MODEL 1
REMARK VINA RESULT:      -7.9      0.000      0.000
REMARK  4 active torsions:
REMARK  status: ('A' for Active; 'I' for Inactive)
REMARK    1  A    between atoms: C_2  and  C_3 
REMARK    2  A    between atoms: C_3  and  C_4 
REMARK    3  A    between atoms: N_7  and  C_8 
REMARK    4  A    between atoms: C_13  and  C_14 
ROOT
HETATM    1  C   UNL     1      -4.600   0.761 -31.780  1.00  0.00     0.017 A 
HETATM    2  C   UNL     1      -4.426   2.084 -32.184  1.00  0.00     0.033 A 
HETATM    3  C   UNL     1      -4.966   3.115 -31.427  1.00  0.00     0.099 A 
HETATM    4  N   UNL     1      -5.663   2.866 -30.287  1.00  0.00    -0.318 N 
HETATM    5  C   UNL     1      -5.853   1.576 -29.897  1.00  0.00     0.099 A 
HETATM    6  C   UNL     1      -5.318   0.510 -30.618  1.00  0.00     0.033 A 
ENDROOT
BRANCH   1   7
HETATM    7  C   UNL     1      -3.933  -0.304 -32.576  1.00  0.00     0.192 C 
HETATM    8  O   UNL     1      -2.707  -0.338 -32.580  1.00  0.00    -0.287 OA
BRANCH   7   9
HETATM    9  C   UNL     1      -4.687  -1.333 -33.324  1.00  0.00     0.015 A 
HETATM   10  C   UNL     1      -4.067  -2.565 -33.561  1.00  0.00     0.017 A 
HETATM   11  C   UNL     1      -4.743  -3.563 -34.267  1.00  0.00     0.025 A 
HETATM   12  C   UNL     1      -6.029  -3.319 -34.748  1.00  0.00     0.034 A 
HETATM   13  C   UNL     1      -6.640  -2.082 -34.539  1.00  0.00     0.025 A 
HETATM   14 CL   UNL     1      -6.865  -4.547 -35.613  1.00  0.00    -0.084 Cl
HETATM   15  C   UNL     1      -5.967  -1.081 -33.832  1.00  0.00     0.017 A 
ENDBRANCH   7   9
ENDBRANCH   1   7
BRANCH   4  16
HETATM   16  C   UNL     1      -6.198   3.946 -29.557  1.00  0.00     0.135 A 
HETATM   17  N   UNL     1      -5.469   4.544 -28.556  1.00  0.00    -0.302 N 
HETATM   18  C   UNL     1      -6.071   5.588 -27.900  1.00  0.00     0.290 A 
HETATM   19  H   UNL     1      -4.516   4.321 -28.303  1.00  0.00     0.171 HD
HETATM   20  O   UNL     1      -5.580   6.250 -27.008  1.00  0.00    -0.260 OA
HETATM   21  S   UNL     1      -7.675   5.812 -28.583  1.00  0.00    -0.022 SA
HETATM   22  C   UNL     1      -7.417   4.498 -29.693  1.00  0.00     0.092 A 
BRANCH  22  23
HETATM   23  C   UNL     1      -8.541   4.079 -30.543  1.00  0.00     0.281 C 
HETATM   24  O   UNL     1      -9.146   3.035 -30.333  1.00  0.00    -0.301 OA
ENDBRANCH  22  23
ENDBRANCH   4  16
TORSDOF 4
ENDMDL
MODEL 2
REMARK VINA RESULT:      -7.8      5.335      8.170
REMARK  4 active torsions:
REMARK  status: ('A' for Active; 'I' for Inactive)
REMARK    1  A    between atoms: C_2  and  C_3 
REMARK    2  A    between atoms: C_3  and  C_4 
REMARK    3  A    between atoms: N_7  and  C_8 
REMARK    4  A    between atoms: C_13  and  C_14 
ROOT
HETATM    1  C   UNL     1      -8.427   0.938 -34.018  1.00  0.00     0.017 A 
HETATM    2  C   UNL     1      -8.046   0.320 -35.207  1.00  0.00     0.033 A 
HETATM    3  C   UNL     1      -7.146  -0.736 -35.181  1.00  0.00     0.099 A 
HETATM    4  N   UNL     1      -6.625  -1.192 -34.011  1.00  0.00    -0.318 N 
HETATM    5  C   UNL     1      -6.978  -0.582 -32.848  1.00  0.00     0.099 A 
HETATM    6  C   UNL     1      -7.888   0.473 -32.825  1.00  0.00     0.033 A 
ENDROOT
BRANCH   1   7
HETATM    7  C   UNL     1      -9.457   2.009 -34.087  1.00  0.00     0.192 C 
HETATM    8  O   UNL     1      -9.077   3.176 -34.085  1.00  0.00    -0.287 OA
BRANCH   7   9
HETATM    9  C   UNL     1     -10.904   1.722 -34.192  1.00  0.00     0.015 A 
HETATM   10  C   UNL     1     -11.402   0.584 -33.547  1.00  0.00     0.017 A 
HETATM   11  C   UNL     1     -12.761   0.276 -33.626  1.00  0.00     0.025 A 
HETATM   12  C   UNL     1     -13.615   1.096 -34.362  1.00  0.00     0.034 A 
HETATM   13  C   UNL     1     -13.119   2.216 -35.030  1.00  0.00     0.025 A 
HETATM   14 CL   UNL     1     -15.291   0.722 -34.456  1.00  0.00    -0.084 Cl
HETATM   15  C   UNL     1     -11.758   2.529 -34.954  1.00  0.00     0.017 A 
ENDBRANCH   7   9
ENDBRANCH   1   7
BRANCH   4  16
HETATM   16  C   UNL     1      -5.709  -2.263 -34.037  1.00  0.00     0.135 A 
HETATM   17  N   UNL     1      -6.078  -3.489 -34.541  1.00  0.00    -0.302 N 
HETATM   18  C   UNL     1      -5.119  -4.470 -34.525  1.00  0.00     0.290 A 
HETATM   19  H   UNL     1      -6.966  -3.709 -34.970  1.00  0.00     0.171 HD
HETATM   20  O   UNL     1      -5.250  -5.602 -34.943  1.00  0.00    -0.260 OA
HETATM   21  S   UNL     1      -3.663  -3.802 -33.804  1.00  0.00    -0.022 SA
HETATM   22  C   UNL     1      -4.443  -2.264 -33.583  1.00  0.00     0.092 A 
BRANCH  22  23
HETATM   23  C   UNL     1      -3.711  -1.214 -32.859  1.00  0.00     0.281 C 
HETATM   24  O   UNL     1      -3.227  -1.419 -31.753  1.00  0.00    -0.301 OA
ENDBRANCH  22  23
ENDBRANCH   4  16
TORSDOF 4
ENDMDL
MODEL 3
REMARK VINA RESULT:      -7.8      4.718      6.076
REMARK  4 active torsions:
REMARK  status: ('A' for Active; 'I' for Inactive)
REMARK    1  A    between atoms: C_2  and  C_3 
REMARK    2  A    between atoms: C_3  and  C_4 
REMARK    3  A    between atoms: N_7  and  C_8 
REMARK    4  A    between atoms: C_13  and  C_14 
ROOT
HETATM    1  C   UNL     1      -8.072   0.798 -33.659  1.00  0.00     0.017 A 
HETATM    2  C   UNL     1      -8.642   1.853 -34.368  1.00  0.00     0.033 A 
HETATM    3  C   UNL     1     -10.014   2.065 -34.311  1.00  0.00     0.099 A 
HETATM    4  N   UNL     1     -10.822   1.264 -33.568  1.00  0.00    -0.318 N 
HETATM    5  C   UNL     1     -10.275   0.221 -32.887  1.00  0.00     0.099 A 
HETATM    6  C   UNL     1      -8.903  -0.023 -32.905  1.00  0.00     0.033 A 
ENDROOT
BRANCH   1   7
HETATM    7  C   UNL     1      -6.592   0.660 -33.683  1.00  0.00     0.192 C 
HETATM    8  O   UNL     1      -5.916   1.676 -33.556  1.00  0.00    -0.287 OA
BRANCH   7   9
HETATM    9  C   UNL     1      -5.912  -0.646 -33.818  1.00  0.00     0.015 A 
HETATM   10  C   UNL     1      -4.762  -0.876 -33.054  1.00  0.00     0.017 A 
HETATM   11  C   UNL     1      -4.088  -2.095 -33.154  1.00  0.00     0.025 A 
HETATM   12  C   UNL     1      -4.556  -3.073 -34.031  1.00  0.00     0.034 A 
HETATM   13  C   UNL     1      -5.685  -2.838 -34.816  1.00  0.00     0.025 A 
HETATM   14 CL   UNL     1      -3.732  -4.577 -34.153  1.00  0.00    -0.084 Cl
HETATM   15  C   UNL     1      -6.363  -1.619 -34.718  1.00  0.00     0.017 A 
ENDBRANCH   7   9
ENDBRANCH   1   7
BRANCH   4  16
HETATM   16  C   UNL     1     -12.208   1.515 -33.546  1.00  0.00     0.135 A 
HETATM   17  N   UNL     1     -13.071   0.747 -34.294  1.00  0.00    -0.302 N 
HETATM   18  C   UNL     1     -14.403   1.065 -34.209  1.00  0.00     0.290 A 
HETATM   19  H   UNL     1     -12.817  -0.059 -34.848  1.00  0.00     0.171 HD
HETATM   20  O   UNL     1     -15.311   0.492 -34.776  1.00  0.00    -0.260 OA
HETATM   21  S   UNL     1     -14.570   2.441 -33.129  1.00  0.00    -0.022 SA
HETATM   22  C   UNL     1     -12.851   2.483 -32.869  1.00  0.00     0.092 A 
BRANCH  22  23
HETATM   23  C   UNL     1     -12.299   3.586 -32.068  1.00  0.00     0.281 C 
HETATM   24  O   UNL     1     -11.837   4.590 -32.595  1.00  0.00    -0.301 OA
ENDBRANCH  22  23
ENDBRANCH   4  16
TORSDOF 4
ENDMDL
MODEL 4
REMARK VINA RESULT:      -7.8      3.438      4.467
REMARK  4 active torsions:
REMARK  status: ('A' for Active; 'I' for Inactive)
REMARK    1  A    between atoms: C_2  and  C_3 
REMARK    2  A    between atoms: C_3  and  C_4 
REMARK    3  A    between atoms: N_7  and  C_8 
REMARK    4  A    between atoms: C_13  and  C_14 
ROOT
HETATM    1  C   UNL     1      -5.119   1.672 -32.157  1.00  0.00     0.017 A 
HETATM    2  C   UNL     1      -3.899   1.975 -31.555  1.00  0.00     0.033 A 
HETATM    3  C   UNL     1      -3.317   3.220 -31.756  1.00  0.00     0.099 A 
HETATM    4  N   UNL     1      -3.917   4.164 -32.528  1.00  0.00    -0.318 N 
HETATM    5  C   UNL     1      -5.100   3.869 -33.133  1.00  0.00     0.099 A 
HETATM    6  C   UNL     1      -5.726   2.638 -32.950  1.00  0.00     0.033 A 
ENDROOT
BRANCH   1   7
HETATM    7  C   UNL     1      -5.743   0.359 -31.846  1.00  0.00     0.192 C 
HETATM    8  O   UNL     1      -6.296   0.225 -30.759  1.00  0.00    -0.287 OA
BRANCH   7   9
HETATM    9  C   UNL     1      -5.752  -0.769 -32.803  1.00  0.00     0.015 A 
HETATM   10  C   UNL     1      -6.966  -1.114 -33.408  1.00  0.00     0.017 A 
HETATM   11  C   UNL     1      -7.019  -2.174 -34.314  1.00  0.00     0.025 A 
HETATM   12  C   UNL     1      -5.861  -2.897 -34.600  1.00  0.00     0.034 A 
HETATM   13  C   UNL     1      -4.654  -2.575 -33.979  1.00  0.00     0.025 A 
HETATM   14 CL   UNL     1      -5.922  -4.200 -35.720  1.00  0.00    -0.084 Cl
HETATM   15  C   UNL     1      -4.597  -1.514 -33.071  1.00  0.00     0.017 A 
ENDBRANCH   7   9
ENDBRANCH   1   7
BRANCH   4  16
HETATM   16  C   UNL     1      -3.285   5.410 -32.707  1.00  0.00     0.135 A 
HETATM   17  N   UNL     1      -3.604   6.480 -31.904  1.00  0.00    -0.302 N 
HETATM   18  C   UNL     1      -2.936   7.652 -32.152  1.00  0.00     0.290 A 
HETATM   19  H   UNL     1      -4.238   6.460 -31.117  1.00  0.00     0.171 HD
HETATM   20  O   UNL     1      -3.066   8.692 -31.538  1.00  0.00    -0.260 OA
HETATM   21  S   UNL     1      -1.850   7.387 -33.507  1.00  0.00    -0.022 SA
HETATM   22  C   UNL     1      -2.366   5.732 -33.635  1.00  0.00     0.092 A 
BRANCH  22  23
HETATM   23  C   UNL     1      -1.853   4.931 -34.757  1.00  0.00     0.281 C 
HETATM   24  O   UNL     1      -0.897   5.306 -35.424  1.00  0.00    -0.301 OA
ENDBRANCH  22  23
ENDBRANCH   4  16
TORSDOF 4
ENDMDL
MODEL 5
REMARK VINA RESULT:      -7.7      3.358      4.328
REMARK  4 active torsions:
REMARK  status: ('A' for Active; 'I' for Inactive)
REMARK    1  A    between atoms: C_2  and  C_3 
REMARK    2  A    between atoms: C_3  and  C_4 
REMARK    3  A    between atoms: N_7  and  C_8 
REMARK    4  A    between atoms: C_13  and  C_14 
ROOT
HETATM    1  C   UNL     1      -5.192   1.509 -32.079  1.00  0.00     0.017 A 
HETATM    2  C   UNL     1      -4.039   1.486 -31.297  1.00  0.00     0.033 A 
HETATM    3  C   UNL     1      -3.178   2.575 -31.300  1.00  0.00     0.099 A 
HETATM    4  N   UNL     1      -3.437   3.679 -32.050  1.00  0.00    -0.318 N 
HETATM    5  C   UNL     1      -4.552   3.701 -32.830  1.00  0.00     0.099 A 
HETATM    6  C   UNL     1      -5.451   2.636 -32.849  1.00  0.00     0.033 A 
ENDROOT
BRANCH   1   7
HETATM    7  C   UNL     1      -6.126   0.356 -31.980  1.00  0.00     0.192 C 
HETATM    8  O   UNL     1      -6.994   0.389 -31.114  1.00  0.00    -0.287 OA
BRANCH   7   9
HETATM    9  C   UNL     1      -6.068  -0.801 -32.899  1.00  0.00     0.015 A 
HETATM   10  C   UNL     1      -4.829  -1.416 -33.114  1.00  0.00     0.017 A 
HETATM   11  C   UNL     1      -4.731  -2.508 -33.978  1.00  0.00     0.025 A 
HETATM   12  C   UNL     1      -5.870  -2.973 -34.636  1.00  0.00     0.034 A 
HETATM   13  C   UNL     1      -7.102  -2.347 -34.447  1.00  0.00     0.025 A 
HETATM   14 CL   UNL     1      -5.754  -4.322 -35.696  1.00  0.00    -0.084 Cl
HETATM   15  C   UNL     1      -7.204  -1.252 -33.583  1.00  0.00     0.017 A 
ENDBRANCH   7   9
ENDBRANCH   1   7
BRANCH   4  16
HETATM   16  C   UNL     1      -2.530   4.757 -32.025  1.00  0.00     0.135 A 
HETATM   17  N   UNL     1      -2.171   5.342 -30.834  1.00  0.00    -0.302 N 
HETATM   18  C   UNL     1      -1.281   6.385 -30.908  1.00  0.00     0.290 A 
HETATM   19  H   UNL     1      -2.457   5.037 -29.914  1.00  0.00     0.171 HD
HETATM   20  O   UNL     1      -0.833   7.009 -29.968  1.00  0.00    -0.260 OA
HETATM   21  S   UNL     1      -0.893   6.654 -32.600  1.00  0.00    -0.022 SA
HETATM   22  C   UNL     1      -1.943   5.352 -33.078  1.00  0.00     0.092 A 
BRANCH  22  23
HETATM   23  C   UNL     1      -2.154   5.125 -34.516  1.00  0.00     0.281 C 
HETATM   24  O   UNL     1      -1.231   5.204 -35.317  1.00  0.00    -0.301 OA
ENDBRANCH  22  23
ENDBRANCH   4  16
TORSDOF 4
ENDMDL
MODEL 6
REMARK VINA RESULT:      -7.3      3.345      4.058
REMARK  4 active torsions:
REMARK  status: ('A' for Active; 'I' for Inactive)
REMARK    1  A    between atoms: C_2  and  C_3 
REMARK    2  A    between atoms: C_3  and  C_4 
REMARK    3  A    between atoms: N_7  and  C_8 
REMARK    4  A    between atoms: C_13  and  C_14 
ROOT
HETATM    1  C   UNL     1      -4.832   1.924 -31.175  1.00  0.00     0.017 A 
HETATM    2  C   UNL     1      -5.642   3.053 -31.273  1.00  0.00     0.033 A 
HETATM    3  C   UNL     1      -5.070   4.298 -31.502  1.00  0.00     0.099 A 
HETATM    4  N   UNL     1      -3.725   4.443 -31.640  1.00  0.00    -0.318 N 
HETATM    5  C   UNL     1      -2.927   3.348 -31.528  1.00  0.00     0.099 A 
HETATM    6  C   UNL     1      -3.458   2.077 -31.311  1.00  0.00     0.033 A 
ENDROOT
BRANCH   1   7
HETATM    7  C   UNL     1      -5.494   0.602 -31.014  1.00  0.00     0.192 C 
HETATM    8  O   UNL     1      -6.017   0.347 -29.934  1.00  0.00    -0.287 OA
BRANCH   7   9
HETATM    9  C   UNL     1      -5.576  -0.390 -32.107  1.00  0.00     0.015 A 
HETATM   10  C   UNL     1      -4.445  -1.168 -32.382  1.00  0.00     0.017 A 
HETATM   11  C   UNL     1      -4.480  -2.114 -33.408  1.00  0.00     0.025 A 
HETATM   12  C   UNL     1      -5.640  -2.268 -34.167  1.00  0.00     0.034 A 
HETATM   13  C   UNL     1      -6.761  -1.476 -33.915  1.00  0.00     0.025 A 
HETATM   14 CL   UNL     1      -5.688  -3.435 -35.428  1.00  0.00    -0.084 Cl
HETATM   15  C   UNL     1      -6.730  -0.528 -32.889  1.00  0.00     0.017 A 
ENDBRANCH   7   9
ENDBRANCH   1   7
BRANCH   4  16
HETATM   16  C   UNL     1      -3.192   5.728 -31.864  1.00  0.00     0.135 A 
HETATM   17  N   UNL     1      -2.621   6.048 -33.074  1.00  0.00    -0.302 N 
HETATM   18  C   UNL     1      -2.128   7.322 -33.200  1.00  0.00     0.290 A 
HETATM   19  H   UNL     1      -2.585   5.450 -33.888  1.00  0.00     0.171 HD
HETATM   20  O   UNL     1      -1.611   7.793 -34.193  1.00  0.00    -0.260 OA
HETATM   21  S   UNL     1      -2.386   8.163 -31.679  1.00  0.00    -0.022 SA
HETATM   22  C   UNL     1      -3.135   6.751 -30.993  1.00  0.00     0.092 A 
BRANCH  22  23
HETATM   23  C   UNL     1      -3.507   6.786 -29.570  1.00  0.00     0.281 C 
HETATM   24  O   UNL     1      -4.670   6.936 -29.218  1.00  0.00    -0.301 OA
ENDBRANCH  22  23
ENDBRANCH   4  16
TORSDOF 4
ENDMDL
MODEL 7
REMARK VINA RESULT:      -7.3      4.888      6.063
REMARK  4 active torsions:
REMARK  status: ('A' for Active; 'I' for Inactive)
REMARK    1  A    between atoms: C_2  and  C_3 
REMARK    2  A    between atoms: C_3  and  C_4 
REMARK    3  A    between atoms: N_7  and  C_8 
REMARK    4  A    between atoms: C_13  and  C_14 
ROOT
HETATM    1  C   UNL     1      -8.453   1.912 -33.787  1.00  0.00     0.017 A 
HETATM    2  C   UNL     1      -9.029   1.295 -32.678  1.00  0.00     0.033 A 
HETATM    3  C   UNL     1     -10.393   1.420 -32.446  1.00  0.00     0.099 A 
HETATM    4  N   UNL     1     -11.190   2.132 -33.286  1.00  0.00    -0.318 N 
HETATM    5  C   UNL     1     -10.632   2.752 -34.360  1.00  0.00     0.099 A 
HETATM    6  C   UNL     1      -9.271   2.644 -34.639  1.00  0.00     0.033 A 
ENDROOT
BRANCH   1   7
HETATM    7  C   UNL     1      -7.006   1.682 -34.040  1.00  0.00     0.192 C 
HETATM    8  O   UNL     1      -6.281   2.662 -34.176  1.00  0.00    -0.287 OA
BRANCH   7   9
HETATM    9  C   UNL     1      -6.410   0.329 -34.098  1.00  0.00     0.015 A 
HETATM   10  C   UNL     1      -5.265   0.077 -33.333  1.00  0.00     0.017 A 
HETATM   11  C   UNL     1      -4.670  -1.185 -33.363  1.00  0.00     0.025 A 
HETATM   12  C   UNL     1      -5.210  -2.186 -34.170  1.00  0.00     0.034 A 
HETATM   13  C   UNL     1      -6.334  -1.931 -34.956  1.00  0.00     0.025 A 
HETATM   14 CL   UNL     1      -4.482  -3.743 -34.204  1.00  0.00    -0.084 Cl
HETATM   15  C   UNL     1      -6.934  -0.669 -34.929  1.00  0.00     0.017 A 
ENDBRANCH   7   9
ENDBRANCH   1   7
BRANCH   4  16
HETATM   16  C   UNL     1     -12.567   2.235 -33.004  1.00  0.00     0.135 A 
HETATM   17  N   UNL     1     -13.057   3.301 -32.286  1.00  0.00    -0.302 N 
HETATM   18  C   UNL     1     -14.410   3.317 -32.062  1.00  0.00     0.290 A 
HETATM   19  H   UNL     1     -12.520   4.093 -31.962  1.00  0.00     0.171 HD
HETATM   20  O   UNL     1     -15.026   4.180 -31.470  1.00  0.00    -0.260 OA
HETATM   21  S   UNL     1     -15.104   1.876 -32.791  1.00  0.00    -0.022 SA
HETATM   22  C   UNL     1     -13.536   1.365 -33.342  1.00  0.00     0.092 A 
BRANCH  22  23
HETATM   23  C   UNL     1     -13.424   0.049 -33.989  1.00  0.00     0.281 C 
HETATM   24  O   UNL     1     -13.058  -0.939 -33.365  1.00  0.00    -0.301 OA
ENDBRANCH  22  23
ENDBRANCH   4  16
TORSDOF 4
ENDMDL
MODEL 8
REMARK VINA RESULT:      -7.0      3.415      4.581
REMARK  4 active torsions:
REMARK  status: ('A' for Active; 'I' for Inactive)
REMARK    1  A    between atoms: C_2  and  C_3 
REMARK    2  A    between atoms: C_3  and  C_4 
REMARK    3  A    between atoms: N_7  and  C_8 
REMARK    4  A    between atoms: C_13  and  C_14 
ROOT
HETATM    1  C   UNL     1      -6.019   2.964 -32.704  1.00  0.00     0.017 A 
HETATM    2  C   UNL     1      -5.595   3.247 -31.407  1.00  0.00     0.033 A 
HETATM    3  C   UNL     1      -4.754   4.327 -31.173  1.00  0.00     0.099 A 
HETATM    4  N   UNL     1      -4.334   5.128 -32.188  1.00  0.00    -0.318 N 
HETATM    5  C   UNL     1      -4.729   4.847 -33.459  1.00  0.00     0.099 A 
HETATM    6  C   UNL     1      -5.583   3.782 -33.739  1.00  0.00     0.033 A 
ENDROOT
BRANCH   1   7
HETATM    7  C   UNL     1      -6.985   1.850 -32.895  1.00  0.00     0.192 C 
HETATM    8  O   UNL     1      -8.163   2.053 -32.617  1.00  0.00    -0.287 OA
BRANCH   7   9
HETATM    9  C   UNL     1      -6.589   0.531 -33.435  1.00  0.00     0.015 A 
HETATM   10  C   UNL     1      -7.329   0.001 -34.497  1.00  0.00     0.017 A 
HETATM   11  C   UNL     1      -6.990  -1.243 -35.033  1.00  0.00     0.025 A 
HETATM   12  C   UNL     1      -5.922  -1.960 -34.494  1.00  0.00     0.034 A 
HETATM   13  C   UNL     1      -5.199  -1.448 -33.417  1.00  0.00     0.025 A 
HETATM   14 CL   UNL     1      -5.499  -3.489 -35.156  1.00  0.00    -0.084 Cl
HETATM   15  C   UNL     1      -5.535  -0.203 -32.877  1.00  0.00     0.017 A 
ENDBRANCH   7   9
ENDBRANCH   1   7
BRANCH   4  16
HETATM   16  C   UNL     1      -3.475   6.208 -31.901  1.00  0.00     0.135 A 
HETATM   17  N   UNL     1      -3.977   7.478 -31.740  1.00  0.00    -0.302 N 
HETATM   18  C   UNL     1      -3.066   8.465 -31.463  1.00  0.00     0.290 A 
HETATM   19  H   UNL     1      -4.955   7.734 -31.751  1.00  0.00     0.171 HD
HETATM   20  O   UNL     1      -3.319   9.637 -31.268  1.00  0.00    -0.260 OA
HETATM   21  S   UNL     1      -1.466   7.739 -31.426  1.00  0.00    -0.022 SA
HETATM   22  C   UNL     1      -2.136   6.174 -31.779  1.00  0.00     0.092 A 
BRANCH  22  23
HETATM   23  C   UNL     1      -1.206   5.057 -32.005  1.00  0.00     0.281 C 
HETATM   24  O   UNL     1      -0.805   4.363 -31.080  1.00  0.00    -0.301 OA
ENDBRANCH  22  23
ENDBRANCH   4  16
TORSDOF 4
ENDMDL
MODEL 9
REMARK VINA RESULT:      -7.0      6.584      8.309
REMARK  4 active torsions:
REMARK  status: ('A' for Active; 'I' for Inactive)
REMARK    1  A    between atoms: C_2  and  C_3 
REMARK    2  A    between atoms: C_3  and  C_4 
REMARK    3  A    between atoms: N_7  and  C_8 
REMARK    4  A    between atoms: C_13  and  C_14 
ROOT
HETATM    1  C   UNL     1      -0.223   6.019 -29.722  1.00  0.00     0.017 A 
HETATM    2  C   UNL     1      -1.149   7.060 -29.701  1.00  0.00     0.033 A 
HETATM    3  C   UNL     1      -1.378   7.759 -28.523  1.00  0.00     0.099 A 
HETATM    4  N   UNL     1      -0.711   7.454 -27.379  1.00  0.00    -0.318 N 
HETATM    5  C   UNL     1       0.180   6.426 -27.388  1.00  0.00     0.099 A 
HETATM    6  C   UNL     1       0.452   5.705 -28.549  1.00  0.00     0.033 A 
ENDROOT
BRANCH   1   7
HETATM    7  C   UNL     1       0.050   5.355 -31.025  1.00  0.00     0.192 C 
HETATM    8  O   UNL     1       1.121   4.772 -31.162  1.00  0.00    -0.287 OA
BRANCH   7   9
HETATM    9  C   UNL     1      -0.927   5.340 -32.135  1.00  0.00     0.015 A 
HETATM   10  C   UNL     1      -1.947   4.382 -32.108  1.00  0.00     0.017 A 
HETATM   11  C   UNL     1      -2.886   4.332 -33.140  1.00  0.00     0.025 A 
HETATM   12  C   UNL     1      -2.794   5.230 -34.203  1.00  0.00     0.034 A 
HETATM   13  C   UNL     1      -1.763   6.168 -34.249  1.00  0.00     0.025 A 
HETATM   14 CL   UNL     1      -3.953   5.175 -35.472  1.00  0.00    -0.084 Cl
HETATM   15  C   UNL     1      -0.820   6.222 -33.218  1.00  0.00     0.017 A 
ENDBRANCH   7   9
ENDBRANCH   1   7
BRANCH   4  16
HETATM   16  C   UNL     1      -0.983   8.187 -26.207  1.00  0.00     0.135 A 
HETATM   17  N   UNL     1      -2.120   7.940 -25.474  1.00  0.00    -0.302 N 
HETATM   18  C   UNL     1      -2.300   8.704 -24.348  1.00  0.00     0.290 A 
HETATM   19  H   UNL     1      -2.797   7.214 -25.660  1.00  0.00     0.171 HD
HETATM   20  O   UNL     1      -3.226   8.617 -23.568  1.00  0.00    -0.260 OA
HETATM   21  S   UNL     1      -0.950   9.822 -24.223  1.00  0.00    -0.022 SA
HETATM   22  C   UNL     1      -0.247   9.182 -25.679  1.00  0.00     0.092 A 
BRANCH  22  23
HETATM   23  C   UNL     1       0.956   9.838 -26.214  1.00  0.00     0.281 C 
HETATM   24  O   UNL     1       0.880  10.852 -26.897  1.00  0.00    -0.301 OA
ENDBRANCH  22  23
ENDBRANCH   4  16
TORSDOF 4
ENDMDL
MODEL 10
REMARK VINA RESULT:      -6.9      6.536      8.348
REMARK  4 active torsions:
REMARK  status: ('A' for Active; 'I' for Inactive)
REMARK    1  A    between atoms: C_2  and  C_3 
REMARK    2  A    between atoms: C_3  and  C_4 
REMARK    3  A    between atoms: N_7  and  C_8 
REMARK    4  A    between atoms: C_13  and  C_14 
ROOT
HETATM    1  C   UNL     1       0.086   6.137 -29.796  1.00  0.00     0.017 A 
HETATM    2  C   UNL     1      -0.543   7.376 -29.900  1.00  0.00     0.033 A 
HETATM    3  C   UNL     1      -0.625   8.206 -28.789  1.00  0.00     0.099 A 
HETATM    4  N   UNL     1      -0.096   7.840 -27.592  1.00  0.00    -0.318 N 
HETATM    5  C   UNL     1       0.503   6.624 -27.479  1.00  0.00     0.099 A 
HETATM    6  C   UNL     1       0.620   5.764 -28.569  1.00  0.00     0.033 A 
ENDROOT
BRANCH   1   7
HETATM    7  C   UNL     1       0.224   5.319 -31.030  1.00  0.00     0.192 C 
HETATM    8  O   UNL     1       1.212   4.600 -31.138  1.00  0.00    -0.287 OA
BRANCH   7   9
HETATM    9  C   UNL     1      -0.793   5.314 -32.103  1.00  0.00     0.015 A 
HETATM   10  C   UNL     1      -1.885   4.447 -31.977  1.00  0.00     0.017 A 
HETATM   11  C   UNL     1      -2.865   4.409 -32.970  1.00  0.00     0.025 A 
HETATM   12  C   UNL     1      -2.743   5.224 -34.094  1.00  0.00     0.034 A 
HETATM   13  C   UNL     1      -1.642   6.070 -34.239  1.00  0.00     0.025 A 
HETATM   14 CL   UNL     1      -3.951   5.183 -35.317  1.00  0.00    -0.084 Cl
HETATM   15  C   UNL     1      -0.658   6.111 -33.246  1.00  0.00     0.017 A 
ENDBRANCH   7   9
ENDBRANCH   1   7
BRANCH   4  16
HETATM   16  C   UNL     1      -0.211   8.714 -26.493  1.00  0.00     0.135 A 
HETATM   17  N   UNL     1       0.800   9.597 -26.192  1.00  0.00    -0.302 N 
HETATM   18  C   UNL     1       0.599  10.409 -25.104  1.00  0.00     0.290 A 
HETATM   19  H   UNL     1       1.643   9.738 -26.731  1.00  0.00     0.171 HD
HETATM   20  O   UNL     1       1.364  11.260 -24.698  1.00  0.00    -0.260 OA
HETATM   21  S   UNL     1      -0.963  10.012 -24.405  1.00  0.00    -0.022 SA
HETATM   22  C   UNL     1      -1.230   8.796 -25.619  1.00  0.00     0.092 A 
BRANCH  22  23
HETATM   23  C   UNL     1      -2.430   7.954 -25.504  1.00  0.00     0.281 C 
HETATM   24  O   UNL     1      -2.348   6.735 -25.410  1.00  0.00    -0.301 OA
ENDBRANCH  22  23
ENDBRANCH   4  16
TORSDOF 4
ENDMDL
