MODEL 1
REMARK VINA RESULT:      -8.7      0.000      0.000
REMARK  7 active torsions:
REMARK  status: ('A' for Active; 'I' for Inactive)
REMARK       I    between atoms: C_2  and  N_3 
REMARK    1  A    between atoms: N_3  and  C_4 
REMARK    2  A    between atoms: C_7  and  C_8 
REMARK    3  A    between atoms: C_8  and  C_9 
REMARK       I    between atoms: C_9  and  N_10 
REMARK    4  A    between atoms: N_10  and  C_11 
REMARK    5  A    between atoms: C_11  and  C_12 
REMARK    6  A    between atoms: C_14  and  O_15 
REMARK    7  A    between atoms: O_15  and  C_16 
ROOT
HETATM    1  C   UNL     1      -3.410   2.754 -31.628  1.00  0.00     0.222 C 
HETATM    2  N   UNL     1      -4.778   2.792 -31.468  1.00  0.00    -0.357 N 
HETATM    3  O   UNL     1      -2.707   1.842 -31.200  1.00  0.00    -0.273 OA
HETATM    4  H   UNL     1      -5.315   3.379 -32.094  1.00  0.00     0.162 HD
ENDROOT
BRANCH   2   5
HETATM    5  C   UNL     1      -5.467   1.689 -30.835  1.00  0.00     0.161 C 
BRANCH   5   6
HETATM    6  C   UNL     1      -6.409   0.981 -31.775  1.00  0.00    -0.038 A 
HETATM    7  C   UNL     1      -5.902   0.345 -32.921  1.00  0.00     0.046 A 
HETATM    8  C   UNL     1      -6.755  -0.345 -33.788  1.00  0.00     0.078 A 
HETATM    9  C   UNL     1      -8.115  -0.442 -33.494  1.00  0.00     0.037 A 
HETATM   10  C   UNL     1      -8.629   0.168 -32.351  1.00  0.00     0.003 A 
HETATM   11  C   UNL     1      -7.779   0.868 -31.493  1.00  0.00     0.009 A 
BRANCH   8  12
HETATM   12  O   UNL     1      -6.316  -1.060 -34.879  1.00  0.00    -0.292 OA
BRANCH  12  13
HETATM   13  C   UNL     1      -5.832  -2.346 -34.680  1.00  0.00     0.169 A 
HETATM   14  N   UNL     1      -4.555  -2.537 -34.279  1.00  0.00    -0.237 NA
HETATM   15  C   UNL     1      -4.147  -3.817 -34.153  1.00  0.00     0.119 A 
HETATM   16  C   UNL     1      -4.952  -4.914 -34.417  1.00  0.00     0.019 A 
HETATM   17  C   UNL     1      -6.256  -4.688 -34.845  1.00  0.00     0.006 A 
HETATM   18  C   UNL     1      -6.706  -3.380 -34.987  1.00  0.00     0.058 A 
ENDBRANCH  12  13
ENDBRANCH   8  12
ENDBRANCH   5   6
ENDBRANCH   2   5
BRANCH   1  19
HETATM   19  C   UNL     1      -2.832   3.947 -32.363  1.00  0.00     0.141 C 
BRANCH  19  20
HETATM   20  C   UNL     1      -2.100   4.966 -31.519  1.00  0.00    -0.049 A 
HETATM   21  C   UNL     1      -2.747   5.963 -30.779  1.00  0.00     0.010 A 
HETATM   22  C   UNL     1      -2.013   6.896 -30.032  1.00  0.00     0.030 A 
HETATM   23  C   UNL     1      -0.619   6.862 -30.023  1.00  0.00     0.034 A 
HETATM   24  C   UNL     1       0.032   5.878 -30.774  1.00  0.00     0.030 A 
HETATM   25  C   UNL     1      -0.699   4.942 -31.512  1.00  0.00     0.010 A 
BRANCH  23  26
HETATM   26  N   UNL     1       0.193   7.769 -29.309  1.00  0.00    -0.328 N 
HETATM   27  C   UNL     1       0.890   7.536 -28.139  1.00  0.00     0.218 C 
HETATM   28  C   UNL     1       1.639   8.750 -27.646  1.00  0.00     0.117 C 
HETATM   29  O   UNL     1       0.945   6.482 -27.512  1.00  0.00    -0.274 OA
HETATM   30  H   UNL     1       0.272   8.693 -29.713  1.00  0.00     0.169 HD
ENDBRANCH  23  26
ENDBRANCH  19  20
ENDBRANCH   1  19
TORSDOF 7
ENDMDL
MODEL 2
REMARK VINA RESULT:      -8.7      1.859     10.500
REMARK  7 active torsions:
REMARK  status: ('A' for Active; 'I' for Inactive)
REMARK       I    between atoms: C_2  and  N_3 
REMARK    1  A    between atoms: N_3  and  C_4 
REMARK    2  A    between atoms: C_7  and  C_8 
REMARK    3  A    between atoms: C_8  and  C_9 
REMARK       I    between atoms: C_9  and  N_10 
REMARK    4  A    between atoms: N_10  and  C_11 
REMARK    5  A    between atoms: C_11  and  C_12 
REMARK    6  A    between atoms: C_14  and  O_15 
REMARK    7  A    between atoms: O_15  and  C_16 
ROOT
HETATM    1  C   UNL     1      -5.050   3.271 -31.881  1.00  0.00     0.222 C 
HETATM    2  N   UNL     1      -3.861   3.243 -32.578  1.00  0.00    -0.357 N 
HETATM    3  O   UNL     1      -5.115   3.471 -30.671  1.00  0.00    -0.273 OA
HETATM    4  H   UNL     1      -3.893   3.388 -33.580  1.00  0.00     0.162 HD
ENDROOT
BRANCH   2   5
HETATM    5  C   UNL     1      -2.615   3.528 -31.903  1.00  0.00     0.161 C 
BRANCH   5   6
HETATM    6  C   UNL     1      -2.153   4.946 -32.119  1.00  0.00    -0.038 A 
HETATM    7  C   UNL     1      -2.141   5.847 -31.041  1.00  0.00     0.046 A 
HETATM    8  C   UNL     1      -1.685   7.158 -31.215  1.00  0.00     0.078 A 
HETATM    9  C   UNL     1      -1.197   7.566 -32.455  1.00  0.00     0.037 A 
HETATM   10  C   UNL     1      -1.184   6.676 -33.529  1.00  0.00     0.003 A 
HETATM   11  C   UNL     1      -1.651   5.372 -33.359  1.00  0.00     0.009 A 
BRANCH   8  12
HETATM   12  O   UNL     1      -1.568   8.065 -30.186  1.00  0.00    -0.292 OA
BRANCH  12  13
HETATM   13  C   UNL     1      -0.996   7.645 -28.992  1.00  0.00     0.169 A 
HETATM   14  N   UNL     1      -1.780   7.352 -27.930  1.00  0.00    -0.237 NA
HETATM   15  C   UNL     1      -1.146   6.997 -26.793  1.00  0.00     0.119 A 
HETATM   16  C   UNL     1       0.233   6.929 -26.665  1.00  0.00     0.019 A 
HETATM   17  C   UNL     1       1.015   7.253 -27.769  1.00  0.00     0.006 A 
HETATM   18  C   UNL     1       0.392   7.626 -28.955  1.00  0.00     0.058 A 
ENDBRANCH  12  13
ENDBRANCH   8  12
ENDBRANCH   5   6
ENDBRANCH   2   5
BRANCH   1  19
HETATM   19  C   UNL     1      -6.280   3.015 -32.729  1.00  0.00     0.141 C 
BRANCH  19  20
HETATM   20  C   UNL     1      -6.428   1.620 -33.293  1.00  0.00    -0.049 A 
HETATM   21  C   UNL     1      -6.747   1.357 -34.630  1.00  0.00     0.010 A 
HETATM   22  C   UNL     1      -6.894   0.040 -35.090  1.00  0.00     0.030 A 
HETATM   23  C   UNL     1      -6.743  -1.039 -34.220  1.00  0.00     0.034 A 
HETATM   24  C   UNL     1      -6.440  -0.780 -32.879  1.00  0.00     0.030 A 
HETATM   25  C   UNL     1      -6.285   0.531 -32.421  1.00  0.00     0.010 A 
BRANCH  23  26
HETATM   26  N   UNL     1      -6.886  -2.390 -34.599  1.00  0.00    -0.328 N 
HETATM   27  C   UNL     1      -5.887  -3.275 -34.957  1.00  0.00     0.218 C 
HETATM   28  C   UNL     1      -6.412  -4.642 -35.324  1.00  0.00     0.117 C 
HETATM   29  O   UNL     1      -4.681  -3.050 -34.992  1.00  0.00    -0.274 OA
HETATM   30  H   UNL     1      -7.833  -2.744 -34.600  1.00  0.00     0.169 HD
ENDBRANCH  23  26
ENDBRANCH  19  20
ENDBRANCH   1  19
TORSDOF 7
ENDMDL
MODEL 3
REMARK VINA RESULT:      -8.5      1.621      2.061
REMARK  7 active torsions:
REMARK  status: ('A' for Active; 'I' for Inactive)
REMARK       I    between atoms: C_2  and  N_3 
REMARK    1  A    between atoms: N_3  and  C_4 
REMARK    2  A    between atoms: C_7  and  C_8 
REMARK    3  A    between atoms: C_8  and  C_9 
REMARK       I    between atoms: C_9  and  N_10 
REMARK    4  A    between atoms: N_10  and  C_11 
REMARK    5  A    between atoms: C_11  and  C_12 
REMARK    6  A    between atoms: C_14  and  O_15 
REMARK    7  A    between atoms: O_15  and  C_16 
ROOT
HETATM    1  C   UNL     1      -2.832   4.737 -32.112  1.00  0.00     0.222 C 
HETATM    2  N   UNL     1      -3.426   4.090 -31.049  1.00  0.00    -0.357 N 
HETATM    3  O   UNL     1      -3.456   5.130 -33.094  1.00  0.00    -0.273 OA
HETATM    4  H   UNL     1      -2.935   4.078 -30.164  1.00  0.00     0.162 HD
ENDROOT
BRANCH   2   5
HETATM    5  C   UNL     1      -4.860   3.910 -31.017  1.00  0.00     0.161 C 
BRANCH   5   6
HETATM    6  C   UNL     1      -5.268   2.479 -31.255  1.00  0.00    -0.038 A 
HETATM    7  C   UNL     1      -5.406   2.004 -32.570  1.00  0.00     0.046 A 
HETATM    8  C   UNL     1      -5.752   0.670 -32.812  1.00  0.00     0.078 A 
HETATM    9  C   UNL     1      -5.919  -0.210 -31.743  1.00  0.00     0.037 A 
HETATM   10  C   UNL     1      -5.765   0.243 -30.434  1.00  0.00     0.003 A 
HETATM   11  C   UNL     1      -5.433   1.578 -30.193  1.00  0.00     0.009 A 
BRANCH   8  12
HETATM   12  O   UNL     1      -5.821   0.119 -34.072  1.00  0.00    -0.292 OA
BRANCH  12  13
HETATM   13  C   UNL     1      -5.669  -1.255 -34.205  1.00  0.00     0.169 A 
HETATM   14  N   UNL     1      -4.459  -1.826 -34.004  1.00  0.00    -0.237 NA
HETATM   15  C   UNL     1      -4.383  -3.159 -34.198  1.00  0.00     0.119 A 
HETATM   16  C   UNL     1      -5.454  -3.946 -34.592  1.00  0.00     0.019 A 
HETATM   17  C   UNL     1      -6.682  -3.329 -34.808  1.00  0.00     0.006 A 
HETATM   18  C   UNL     1      -6.793  -1.955 -34.619  1.00  0.00     0.058 A 
ENDBRANCH  12  13
ENDBRANCH   8  12
ENDBRANCH   5   6
ENDBRANCH   2   5
BRANCH   1  19
HETATM   19  C   UNL     1      -1.331   4.908 -31.981  1.00  0.00     0.141 C 
BRANCH  19  20
HETATM   20  C   UNL     1      -0.836   5.534 -30.697  1.00  0.00    -0.049 A 
HETATM   21  C   UNL     1      -1.337   6.733 -30.179  1.00  0.00     0.010 A 
HETATM   22  C   UNL     1      -0.822   7.277 -28.993  1.00  0.00     0.030 A 
HETATM   23  C   UNL     1       0.216   6.642 -28.311  1.00  0.00     0.034 A 
HETATM   24  C   UNL     1       0.731   5.452 -28.834  1.00  0.00     0.030 A 
HETATM   25  C   UNL     1       0.212   4.904 -30.011  1.00  0.00     0.010 A 
BRANCH  23  26
HETATM   26  N   UNL     1       0.798   7.128 -27.121  1.00  0.00    -0.328 N 
HETATM   27  C   UNL     1       1.636   8.217 -26.977  1.00  0.00     0.218 C 
HETATM   28  C   UNL     1       2.086   8.431 -25.552  1.00  0.00     0.117 C 
HETATM   29  O   UNL     1       2.015   8.977 -27.863  1.00  0.00    -0.274 OA
HETATM   30  H   UNL     1       0.563   6.617 -26.281  1.00  0.00     0.169 HD
ENDBRANCH  23  26
ENDBRANCH  19  20
ENDBRANCH   1  19
TORSDOF 7
ENDMDL
MODEL 4
REMARK VINA RESULT:      -8.4      2.194      3.170
REMARK  7 active torsions:
REMARK  status: ('A' for Active; 'I' for Inactive)
REMARK       I    between atoms: C_2  and  N_3 
REMARK    1  A    between atoms: N_3  and  C_4 
REMARK    2  A    between atoms: C_7  and  C_8 
REMARK    3  A    between atoms: C_8  and  C_9 
REMARK       I    between atoms: C_9  and  N_10 
REMARK    4  A    between atoms: N_10  and  C_11 
REMARK    5  A    between atoms: C_11  and  C_12 
REMARK    6  A    between atoms: C_14  and  O_15 
REMARK    7  A    between atoms: O_15  and  C_16 
ROOT
HETATM    1  C   UNL     1      -2.284   6.042 -34.129  1.00  0.00     0.222 C 
HETATM    2  N   UNL     1      -3.575   5.927 -33.658  1.00  0.00    -0.357 N 
HETATM    3  O   UNL     1      -1.761   5.212 -34.867  1.00  0.00    -0.273 OA
HETATM    4  H   UNL     1      -4.039   6.765 -33.331  1.00  0.00     0.162 HD
ENDROOT
BRANCH   2   5
HETATM    5  C   UNL     1      -4.410   4.828 -34.088  1.00  0.00     0.161 C 
BRANCH   5   6
HETATM    6  C   UNL     1      -4.910   3.998 -32.934  1.00  0.00    -0.038 A 
HETATM    7  C   UNL     1      -5.722   2.878 -33.182  1.00  0.00     0.046 A 
HETATM    8  C   UNL     1      -6.169   2.076 -32.127  1.00  0.00     0.078 A 
HETATM    9  C   UNL     1      -5.773   2.362 -30.820  1.00  0.00     0.037 A 
HETATM   10  C   UNL     1      -4.952   3.458 -30.562  1.00  0.00     0.003 A 
HETATM   11  C   UNL     1      -4.517   4.266 -31.614  1.00  0.00     0.009 A 
BRANCH   8  12
HETATM   12  O   UNL     1      -6.894   0.920 -32.304  1.00  0.00    -0.292 OA
BRANCH  12  13
HETATM   13  C   UNL     1      -6.285  -0.156 -32.936  1.00  0.00     0.169 A 
HETATM   14  N   UNL     1      -5.065  -0.578 -32.533  1.00  0.00    -0.237 NA
HETATM   15  C   UNL     1      -4.520  -1.599 -33.227  1.00  0.00     0.119 A 
HETATM   16  C   UNL     1      -5.132  -2.212 -34.309  1.00  0.00     0.019 A 
HETATM   17  C   UNL     1      -6.379  -1.746 -34.713  1.00  0.00     0.006 A 
HETATM   18  C   UNL     1      -6.967  -0.693 -34.019  1.00  0.00     0.058 A 
ENDBRANCH  12  13
ENDBRANCH   8  12
ENDBRANCH   5   6
ENDBRANCH   2   5
BRANCH   1  19
HETATM   19  C   UNL     1      -1.549   7.276 -33.643  1.00  0.00     0.141 C 
BRANCH  19  20
HETATM   20  C   UNL     1      -1.169   7.299 -32.180  1.00  0.00    -0.049 A 
HETATM   21  C   UNL     1      -1.863   8.036 -31.214  1.00  0.00     0.010 A 
HETATM   22  C   UNL     1      -1.450   8.036 -29.874  1.00  0.00     0.030 A 
HETATM   23  C   UNL     1      -0.324   7.315 -29.476  1.00  0.00     0.034 A 
HETATM   24  C   UNL     1       0.382   6.591 -30.441  1.00  0.00     0.030 A 
HETATM   25  C   UNL     1      -0.034   6.582 -31.776  1.00  0.00     0.010 A 
BRANCH  23  26
HETATM   26  N   UNL     1       0.165   7.273 -28.153  1.00  0.00    -0.328 N 
HETATM   27  C   UNL     1       1.204   8.007 -27.615  1.00  0.00     0.218 C 
HETATM   28  C   UNL     1       1.466   7.685 -26.164  1.00  0.00     0.117 C 
HETATM   29  O   UNL     1       1.886   8.850 -28.190  1.00  0.00    -0.274 OA
HETATM   30  H   UNL     1      -0.312   6.632 -27.533  1.00  0.00     0.169 HD
ENDBRANCH  23  26
ENDBRANCH  19  20
ENDBRANCH   1  19
TORSDOF 7
ENDMDL
MODEL 5
REMARK VINA RESULT:      -8.4      2.124      9.919
REMARK  7 active torsions:
REMARK  status: ('A' for Active; 'I' for Inactive)
REMARK       I    between atoms: C_2  and  N_3 
REMARK    1  A    between atoms: N_3  and  C_4 
REMARK    2  A    between atoms: C_7  and  C_8 
REMARK    3  A    between atoms: C_8  and  C_9 
REMARK       I    between atoms: C_9  and  N_10 
REMARK    4  A    between atoms: N_10  and  C_11 
REMARK    5  A    between atoms: C_11  and  C_12 
REMARK    6  A    between atoms: C_14  and  O_15 
REMARK    7  A    between atoms: O_15  and  C_16 
ROOT
HETATM    1  C   UNL     1      -7.272   3.169 -32.168  1.00  0.00     0.222 C 
HETATM    2  N   UNL     1      -5.956   3.340 -32.543  1.00  0.00    -0.357 N 
HETATM    3  O   UNL     1      -7.774   3.732 -31.200  1.00  0.00    -0.273 OA
HETATM    4  H   UNL     1      -5.698   3.110 -33.495  1.00  0.00     0.162 HD
ENDROOT
BRANCH   2   5
HETATM    5  C   UNL     1      -5.113   4.275 -31.832  1.00  0.00     0.161 C 
BRANCH   5   6
HETATM    6  C   UNL     1      -3.894   4.670 -32.624  1.00  0.00    -0.038 A 
HETATM    7  C   UNL     1      -2.624   4.610 -32.025  1.00  0.00     0.046 A 
HETATM    8  C   UNL     1      -1.478   4.943 -32.754  1.00  0.00     0.078 A 
HETATM    9  C   UNL     1      -1.587   5.295 -34.099  1.00  0.00     0.037 A 
HETATM   10  C   UNL     1      -2.838   5.339 -34.711  1.00  0.00     0.003 A 
HETATM   11  C   UNL     1      -3.984   5.021 -33.980  1.00  0.00     0.009 A 
BRANCH   8  12
HETATM   12  O   UNL     1      -0.200   4.826 -32.257  1.00  0.00    -0.292 OA
BRANCH  12  13
HETATM   13  C   UNL     1       0.104   5.446 -31.052  1.00  0.00     0.169 A 
HETATM   14  N   UNL     1       0.372   4.703 -29.954  1.00  0.00    -0.237 NA
HETATM   15  C   UNL     1       0.611   5.380 -28.812  1.00  0.00     0.119 A 
HETATM   16  C   UNL     1       0.588   6.762 -28.712  1.00  0.00     0.019 A 
HETATM   17  C   UNL     1       0.292   7.501 -29.854  1.00  0.00     0.006 A 
HETATM   18  C   UNL     1       0.038   6.833 -31.047  1.00  0.00     0.058 A 
ENDBRANCH  12  13
ENDBRANCH   8  12
ENDBRANCH   5   6
ENDBRANCH   2   5
BRANCH   1  19
HETATM   19  C   UNL     1      -8.051   2.205 -33.041  1.00  0.00     0.141 C 
BRANCH  19  20
HETATM   20  C   UNL     1      -7.337   0.934 -33.443  1.00  0.00    -0.049 A 
HETATM   21  C   UNL     1      -7.305   0.449 -34.755  1.00  0.00     0.010 A 
HETATM   22  C   UNL     1      -6.644  -0.749 -35.064  1.00  0.00     0.030 A 
HETATM   23  C   UNL     1      -6.019  -1.495 -34.065  1.00  0.00     0.034 A 
HETATM   24  C   UNL     1      -6.063  -1.022 -32.750  1.00  0.00     0.030 A 
HETATM   25  C   UNL     1      -6.713   0.176 -32.443  1.00  0.00     0.010 A 
BRANCH  23  26
HETATM   26  N   UNL     1      -5.345  -2.714 -34.289  1.00  0.00    -0.328 N 
HETATM   27  C   UNL     1      -5.903  -3.943 -34.585  1.00  0.00     0.218 C 
HETATM   28  C   UNL     1      -4.875  -5.037 -34.740  1.00  0.00     0.117 C 
HETATM   29  O   UNL     1      -7.096  -4.196 -34.726  1.00  0.00    -0.274 OA
HETATM   30  H   UNL     1      -4.336  -2.671 -34.230  1.00  0.00     0.169 HD
ENDBRANCH  23  26
ENDBRANCH  19  20
ENDBRANCH   1  19
TORSDOF 7
ENDMDL
MODEL 6
REMARK VINA RESULT:      -8.2      2.656     10.168
REMARK  7 active torsions:
REMARK  status: ('A' for Active; 'I' for Inactive)
REMARK       I    between atoms: C_2  and  N_3 
REMARK    1  A    between atoms: N_3  and  C_4 
REMARK    2  A    between atoms: C_7  and  C_8 
REMARK    3  A    between atoms: C_8  and  C_9 
REMARK       I    between atoms: C_9  and  N_10 
REMARK    4  A    between atoms: N_10  and  C_11 
REMARK    5  A    between atoms: C_11  and  C_12 
REMARK    6  A    between atoms: C_14  and  O_15 
REMARK    7  A    between atoms: O_15  and  C_16 
ROOT
HETATM    1  C   UNL     1      -4.290   0.138 -31.857  1.00  0.00     0.222 C 
HETATM    2  N   UNL     1      -4.149   1.422 -32.337  1.00  0.00    -0.357 N 
HETATM    3  O   UNL     1      -3.703  -0.277 -30.862  1.00  0.00    -0.273 OA
HETATM    4  H   UNL     1      -4.872   1.786 -32.944  1.00  0.00     0.162 HD
ENDROOT
BRANCH   2   5
HETATM    5  C   UNL     1      -3.337   2.381 -31.621  1.00  0.00     0.161 C 
BRANCH   5   6
HETATM    6  C   UNL     1      -3.195   3.685 -32.362  1.00  0.00    -0.038 A 
HETATM    7  C   UNL     1      -2.171   4.580 -32.008  1.00  0.00     0.046 A 
HETATM    8  C   UNL     1      -2.004   5.781 -32.705  1.00  0.00     0.078 A 
HETATM    9  C   UNL     1      -2.829   6.076 -33.790  1.00  0.00     0.037 A 
HETATM   10  C   UNL     1      -3.836   5.188 -34.165  1.00  0.00     0.003 A 
HETATM   11  C   UNL     1      -4.012   3.996 -33.460  1.00  0.00     0.009 A 
BRANCH   8  12
HETATM   12  O   UNL     1      -0.973   6.662 -32.467  1.00  0.00    -0.292 OA
BRANCH  12  13
HETATM   13  C   UNL     1      -0.817   7.169 -31.184  1.00  0.00     0.169 A 
HETATM   14  N   UNL     1      -1.771   7.965 -30.648  1.00  0.00    -0.237 NA
HETATM   15  C   UNL     1      -1.523   8.456 -29.415  1.00  0.00     0.119 A 
HETATM   16  C   UNL     1      -0.366   8.197 -28.697  1.00  0.00     0.019 A 
HETATM   17  C   UNL     1       0.605   7.389 -29.280  1.00  0.00     0.006 A 
HETATM   18  C   UNL     1       0.382   6.869 -30.552  1.00  0.00     0.058 A 
ENDBRANCH  12  13
ENDBRANCH   8  12
ENDBRANCH   5   6
ENDBRANCH   2   5
BRANCH   1  19
HETATM   19  C   UNL     1      -5.220  -0.737 -32.675  1.00  0.00     0.141 C 
BRANCH  19  20
HETATM   20  C   UNL     1      -6.500  -0.092 -33.155  1.00  0.00    -0.049 A 
HETATM   21  C   UNL     1      -7.424   0.519 -32.300  1.00  0.00     0.010 A 
HETATM   22  C   UNL     1      -8.607   1.081 -32.803  1.00  0.00     0.030 A 
HETATM   23  C   UNL     1      -8.898   1.029 -34.165  1.00  0.00     0.034 A 
HETATM   24  C   UNL     1      -7.985   0.405 -35.021  1.00  0.00     0.030 A 
HETATM   25  C   UNL     1      -6.802  -0.149 -34.523  1.00  0.00     0.010 A 
BRANCH  23  26
HETATM   26  N   UNL     1     -10.069   1.558 -34.748  1.00  0.00    -0.328 N 
HETATM   27  C   UNL     1     -11.379   1.279 -34.409  1.00  0.00     0.218 C 
HETATM   28  C   UNL     1     -12.380   2.017 -35.264  1.00  0.00     0.117 C 
HETATM   29  O   UNL     1     -11.766   0.528 -33.519  1.00  0.00    -0.274 OA
HETATM   30  H   UNL     1      -9.921   2.223 -35.496  1.00  0.00     0.169 HD
ENDBRANCH  23  26
ENDBRANCH  19  20
ENDBRANCH   1  19
TORSDOF 7
ENDMDL
MODEL 7
REMARK VINA RESULT:      -8.1      2.207      2.741
REMARK  7 active torsions:
REMARK  status: ('A' for Active; 'I' for Inactive)
REMARK       I    between atoms: C_2  and  N_3 
REMARK    1  A    between atoms: N_3  and  C_4 
REMARK    2  A    between atoms: C_7  and  C_8 
REMARK    3  A    between atoms: C_8  and  C_9 
REMARK       I    between atoms: C_9  and  N_10 
REMARK    4  A    between atoms: N_10  and  C_11 
REMARK    5  A    between atoms: C_11  and  C_12 
REMARK    6  A    between atoms: C_14  and  O_15 
REMARK    7  A    between atoms: O_15  and  C_16 
ROOT
HETATM    1  C   UNL     1      -6.403   4.835 -33.610  1.00  0.00     0.222 C 
HETATM    2  N   UNL     1      -7.314   4.002 -32.998  1.00  0.00    -0.357 N 
HETATM    3  O   UNL     1      -5.817   4.544 -34.649  1.00  0.00    -0.273 OA
HETATM    4  H   UNL     1      -7.974   4.413 -32.349  1.00  0.00     0.162 HD
ENDROOT
BRANCH   2   5
HETATM    5  C   UNL     1      -7.679   2.746 -33.614  1.00  0.00     0.161 C 
BRANCH   5   6
HETATM    6  C   UNL     1      -6.973   1.570 -32.989  1.00  0.00    -0.038 A 
HETATM    7  C   UNL     1      -6.120   0.774 -33.772  1.00  0.00     0.046 A 
HETATM    8  C   UNL     1      -5.430  -0.301 -33.203  1.00  0.00     0.078 A 
HETATM    9  C   UNL     1      -5.553  -0.563 -31.839  1.00  0.00     0.037 A 
HETATM   10  C   UNL     1      -6.380   0.231 -31.046  1.00  0.00     0.003 A 
HETATM   11  C   UNL     1      -7.079   1.296 -31.617  1.00  0.00     0.009 A 
BRANCH   8  12
HETATM   12  O   UNL     1      -4.517  -1.068 -33.891  1.00  0.00    -0.292 OA
BRANCH  12  13
HETATM   13  C   UNL     1      -4.806  -2.408 -34.110  1.00  0.00     0.169 A 
HETATM   14  N   UNL     1      -3.944  -3.365 -33.695  1.00  0.00    -0.237 NA
HETATM   15  C   UNL     1      -4.274  -4.641 -33.987  1.00  0.00     0.119 A 
HETATM   16  C   UNL     1      -5.418  -5.005 -34.681  1.00  0.00     0.019 A 
HETATM   17  C   UNL     1      -6.277  -3.998 -35.111  1.00  0.00     0.006 A 
HETATM   18  C   UNL     1      -5.964  -2.672 -34.828  1.00  0.00     0.058 A 
ENDBRANCH  12  13
ENDBRANCH   8  12
ENDBRANCH   5   6
ENDBRANCH   2   5
BRANCH   1  19
HETATM   19  C   UNL     1      -6.164   6.144 -32.883  1.00  0.00     0.141 C 
BRANCH  19  20
HETATM   20  C   UNL     1      -4.872   6.255 -32.105  1.00  0.00    -0.049 A 
HETATM   21  C   UNL     1      -3.631   6.507 -32.701  1.00  0.00     0.010 A 
HETATM   22  C   UNL     1      -2.462   6.576 -31.929  1.00  0.00     0.030 A 
HETATM   23  C   UNL     1      -2.508   6.378 -30.549  1.00  0.00     0.034 A 
HETATM   24  C   UNL     1      -3.743   6.110 -29.952  1.00  0.00     0.030 A 
HETATM   25  C   UNL     1      -4.910   6.049 -30.719  1.00  0.00     0.010 A 
BRANCH  23  26
HETATM   26  N   UNL     1      -1.379   6.418 -29.704  1.00  0.00    -0.328 N 
HETATM   27  C   UNL     1      -0.316   5.536 -29.676  1.00  0.00     0.218 C 
HETATM   28  C   UNL     1       0.709   5.880 -28.621  1.00  0.00     0.117 C 
HETATM   29  O   UNL     1      -0.149   4.559 -30.399  1.00  0.00    -0.274 OA
HETATM   30  H   UNL     1      -1.351   7.190 -29.051  1.00  0.00     0.169 HD
ENDBRANCH  23  26
ENDBRANCH  19  20
ENDBRANCH   1  19
TORSDOF 7
ENDMDL
MODEL 8
REMARK VINA RESULT:      -8.1      2.644      4.167
REMARK  7 active torsions:
REMARK  status: ('A' for Active; 'I' for Inactive)
REMARK       I    between atoms: C_2  and  N_3 
REMARK    1  A    between atoms: N_3  and  C_4 
REMARK    2  A    between atoms: C_7  and  C_8 
REMARK    3  A    between atoms: C_8  and  C_9 
REMARK       I    between atoms: C_9  and  N_10 
REMARK    4  A    between atoms: N_10  and  C_11 
REMARK    5  A    between atoms: C_11  and  C_12 
REMARK    6  A    between atoms: C_14  and  O_15 
REMARK    7  A    between atoms: O_15  and  C_16 
ROOT
HETATM    1  C   UNL     1      -0.733   6.158 -32.178  1.00  0.00     0.222 C 
HETATM    2  N   UNL     1      -1.146   4.848 -32.066  1.00  0.00    -0.357 N 
HETATM    3  O   UNL     1      -1.214   6.949 -32.985  1.00  0.00    -0.273 OA
HETATM    4  H   UNL     1      -0.945   4.357 -31.204  1.00  0.00     0.162 HD
ENDROOT
BRANCH   2   5
HETATM    5  C   UNL     1      -2.246   4.361 -32.869  1.00  0.00     0.161 C 
BRANCH   5   6
HETATM    6  C   UNL     1      -3.315   3.696 -32.041  1.00  0.00    -0.038 A 
HETATM    7  C   UNL     1      -3.431   2.295 -32.049  1.00  0.00     0.046 A 
HETATM    8  C   UNL     1      -4.395   1.657 -31.262  1.00  0.00     0.078 A 
HETATM    9  C   UNL     1      -5.221   2.410 -30.427  1.00  0.00     0.037 A 
HETATM   10  C   UNL     1      -5.103   3.798 -30.394  1.00  0.00     0.003 A 
HETATM   11  C   UNL     1      -4.150   4.436 -31.190  1.00  0.00     0.009 A 
BRANCH   8  12
HETATM   12  O   UNL     1      -4.508   0.289 -31.158  1.00  0.00    -0.292 OA
BRANCH  12  13
HETATM   13  C   UNL     1      -5.068  -0.413 -32.217  1.00  0.00     0.169 A 
HETATM   14  N   UNL     1      -6.396  -0.328 -32.461  1.00  0.00    -0.237 NA
HETATM   15  C   UNL     1      -6.870  -1.077 -33.479  1.00  0.00     0.119 A 
HETATM   16  C   UNL     1      -6.083  -1.913 -34.256  1.00  0.00     0.019 A 
HETATM   17  C   UNL     1      -4.724  -1.994 -33.971  1.00  0.00     0.006 A 
HETATM   18  C   UNL     1      -4.204  -1.236 -32.926  1.00  0.00     0.058 A 
ENDBRANCH  12  13
ENDBRANCH   8  12
ENDBRANCH   5   6
ENDBRANCH   2   5
BRANCH   1  19
HETATM   19  C   UNL     1       0.388   6.544 -31.232  1.00  0.00     0.141 C 
BRANCH  19  20
HETATM   20  C   UNL     1      -0.016   6.878 -29.814  1.00  0.00    -0.049 A 
HETATM   21  C   UNL     1       0.352   6.108 -28.705  1.00  0.00     0.010 A 
HETATM   22  C   UNL     1      -0.072   6.456 -27.414  1.00  0.00     0.030 A 
HETATM   23  C   UNL     1      -0.886   7.570 -27.208  1.00  0.00     0.034 A 
HETATM   24  C   UNL     1      -1.270   8.332 -28.315  1.00  0.00     0.030 A 
HETATM   25  C   UNL     1      -0.841   7.992 -29.602  1.00  0.00     0.010 A 
BRANCH  23  26
HETATM   26  N   UNL     1      -1.366   7.980 -25.946  1.00  0.00    -0.328 N 
HETATM   27  C   UNL     1      -2.636   7.806 -25.430  1.00  0.00     0.218 C 
HETATM   28  C   UNL     1      -2.797   8.395 -24.049  1.00  0.00     0.117 C 
HETATM   29  O   UNL     1      -3.581   7.242 -25.972  1.00  0.00    -0.274 OA
HETATM   30  H   UNL     1      -0.692   8.450 -25.356  1.00  0.00     0.169 HD
ENDBRANCH  23  26
ENDBRANCH  19  20
ENDBRANCH   1  19
TORSDOF 7
ENDMDL
MODEL 9
REMARK VINA RESULT:      -8.0      3.399      8.320
REMARK  7 active torsions:
REMARK  status: ('A' for Active; 'I' for Inactive)
REMARK       I    between atoms: C_2  and  N_3 
REMARK    1  A    between atoms: N_3  and  C_4 
REMARK    2  A    between atoms: C_7  and  C_8 
REMARK    3  A    between atoms: C_8  and  C_9 
REMARK       I    between atoms: C_9  and  N_10 
REMARK    4  A    between atoms: N_10  and  C_11 
REMARK    5  A    between atoms: C_11  and  C_12 
REMARK    6  A    between atoms: C_14  and  O_15 
REMARK    7  A    between atoms: O_15  and  C_16 
ROOT
HETATM    1  C   UNL     1      -7.910   3.796 -33.137  1.00  0.00     0.222 C 
HETATM    2  N   UNL     1      -7.191   4.658 -33.937  1.00  0.00    -0.357 N 
HETATM    3  O   UNL     1      -7.810   3.772 -31.914  1.00  0.00    -0.273 OA
HETATM    4  H   UNL     1      -7.538   4.844 -34.870  1.00  0.00     0.162 HD
ENDROOT
BRANCH   2   5
HETATM    5  C   UNL     1      -6.319   5.646 -33.342  1.00  0.00     0.161 C 
BRANCH   5   6
HETATM    6  C   UNL     1      -4.886   5.185 -33.273  1.00  0.00    -0.038 A 
HETATM    7  C   UNL     1      -4.497   4.265 -32.285  1.00  0.00     0.046 A 
HETATM    8  C   UNL     1      -3.179   3.801 -32.225  1.00  0.00     0.078 A 
HETATM    9  C   UNL     1      -2.251   4.217 -33.179  1.00  0.00     0.037 A 
HETATM   10  C   UNL     1      -2.629   5.113 -34.178  1.00  0.00     0.003 A 
HETATM   11  C   UNL     1      -3.941   5.588 -34.229  1.00  0.00     0.009 A 
BRANCH   8  12
HETATM   12  O   UNL     1      -2.751   2.839 -31.338  1.00  0.00    -0.292 OA
BRANCH  12  13
HETATM   13  C   UNL     1      -3.406   1.615 -31.318  1.00  0.00     0.169 A 
HETATM   14  N   UNL     1      -2.695   0.465 -31.310  1.00  0.00    -0.237 NA
HETATM   15  C   UNL     1      -3.405  -0.683 -31.337  1.00  0.00     0.119 A 
HETATM   16  C   UNL     1      -4.789  -0.735 -31.381  1.00  0.00     0.019 A 
HETATM   17  C   UNL     1      -5.494   0.464 -31.406  1.00  0.00     0.006 A 
HETATM   18  C   UNL     1      -4.792   1.665 -31.381  1.00  0.00     0.058 A 
ENDBRANCH  12  13
ENDBRANCH   8  12
ENDBRANCH   5   6
ENDBRANCH   2   5
BRANCH   1  19
HETATM   19  C   UNL     1      -8.829   2.858 -33.895  1.00  0.00     0.141 C 
BRANCH  19  20
HETATM   20  C   UNL     1      -8.381   1.417 -33.998  1.00  0.00    -0.049 A 
HETATM   21  C   UNL     1      -8.785   0.418 -33.105  1.00  0.00     0.010 A 
HETATM   22  C   UNL     1      -8.318  -0.898 -33.238  1.00  0.00     0.030 A 
HETATM   23  C   UNL     1      -7.425  -1.237 -34.254  1.00  0.00     0.034 A 
HETATM   24  C   UNL     1      -7.006  -0.239 -35.138  1.00  0.00     0.030 A 
HETATM   25  C   UNL     1      -7.477   1.071 -35.012  1.00  0.00     0.010 A 
BRANCH  23  26
HETATM   26  N   UNL     1      -6.899  -2.532 -34.448  1.00  0.00    -0.328 N 
HETATM   27  C   UNL     1      -5.569  -2.902 -34.501  1.00  0.00     0.218 C 
HETATM   28  C   UNL     1      -5.376  -4.379 -34.745  1.00  0.00     0.117 C 
HETATM   29  O   UNL     1      -4.594  -2.168 -34.368  1.00  0.00    -0.274 OA
HETATM   30  H   UNL     1      -7.584  -3.269 -34.555  1.00  0.00     0.169 HD
ENDBRANCH  23  26
ENDBRANCH  19  20
ENDBRANCH   1  19
TORSDOF 7
ENDMDL
MODEL 10
REMARK VINA RESULT:      -7.9      1.680      3.457
REMARK  7 active torsions:
REMARK  status: ('A' for Active; 'I' for Inactive)
REMARK       I    between atoms: C_2  and  N_3 
REMARK    1  A    between atoms: N_3  and  C_4 
REMARK    2  A    between atoms: C_7  and  C_8 
REMARK    3  A    between atoms: C_8  and  C_9 
REMARK       I    between atoms: C_9  and  N_10 
REMARK    4  A    between atoms: N_10  and  C_11 
REMARK    5  A    between atoms: C_11  and  C_12 
REMARK    6  A    between atoms: C_14  and  O_15 
REMARK    7  A    between atoms: O_15  and  C_16 
ROOT
HETATM    1  C   UNL     1      -3.776   2.971 -31.658  1.00  0.00     0.222 C 
HETATM    2  N   UNL     1      -3.295   1.883 -32.353  1.00  0.00    -0.357 N 
HETATM    3  O   UNL     1      -4.441   2.874 -30.631  1.00  0.00    -0.273 OA
HETATM    4  H   UNL     1      -2.516   2.026 -32.984  1.00  0.00     0.162 HD
ENDROOT
BRANCH   2   5
HETATM    5  C   UNL     1      -3.502   0.545 -31.843  1.00  0.00     0.161 C 
BRANCH   5   6
HETATM    6  C   UNL     1      -4.332  -0.304 -32.770  1.00  0.00    -0.038 A 
HETATM    7  C   UNL     1      -5.437   0.261 -33.430  1.00  0.00     0.046 A 
HETATM    8  C   UNL     1      -6.201  -0.503 -34.319  1.00  0.00     0.078 A 
HETATM    9  C   UNL     1      -5.840  -1.823 -34.590  1.00  0.00     0.037 A 
HETATM   10  C   UNL     1      -4.734  -2.389 -33.958  1.00  0.00     0.003 A 
HETATM   11  C   UNL     1      -3.980  -1.631 -33.060  1.00  0.00     0.009 A 
BRANCH   8  12
HETATM   12  O   UNL     1      -7.242   0.008 -35.061  1.00  0.00    -0.292 OA
BRANCH  12  13
HETATM   13  C   UNL     1      -8.353   0.505 -34.392  1.00  0.00     0.169 A 
HETATM   14  N   UNL     1      -8.781   1.766 -34.629  1.00  0.00    -0.237 NA
HETATM   15  C   UNL     1      -9.838   2.190 -33.905  1.00  0.00     0.119 A 
HETATM   16  C   UNL     1     -10.482   1.418 -32.951  1.00  0.00     0.019 A 
HETATM   17  C   UNL     1     -10.009   0.131 -32.715  1.00  0.00     0.006 A 
HETATM   18  C   UNL     1      -8.919  -0.336 -33.443  1.00  0.00     0.058 A 
ENDBRANCH  12  13
ENDBRANCH   8  12
ENDBRANCH   5   6
ENDBRANCH   2   5
BRANCH   1  19
HETATM   19  C   UNL     1      -3.431   4.312 -32.278  1.00  0.00     0.141 C 
BRANCH  19  20
HETATM   20  C   UNL     1      -2.499   5.199 -31.485  1.00  0.00    -0.049 A 
HETATM   21  C   UNL     1      -2.909   6.376 -30.849  1.00  0.00     0.010 A 
HETATM   22  C   UNL     1      -1.992   7.171 -30.145  1.00  0.00     0.030 A 
HETATM   23  C   UNL     1      -0.646   6.815 -30.078  1.00  0.00     0.034 A 
HETATM   24  C   UNL     1      -0.228   5.649 -30.726  1.00  0.00     0.030 A 
HETATM   25  C   UNL     1      -1.143   4.851 -31.420  1.00  0.00     0.010 A 
BRANCH  23  26
HETATM   26  N   UNL     1       0.341   7.565 -29.403  1.00  0.00    -0.328 N 
HETATM   27  C   UNL     1       0.504   7.707 -28.038  1.00  0.00     0.218 C 
HETATM   28  C   UNL     1       1.660   8.606 -27.672  1.00  0.00     0.117 C 
HETATM   29  O   UNL     1      -0.174   7.187 -27.157  1.00  0.00    -0.274 OA
HETATM   30  H   UNL     1       1.004   8.045 -29.996  1.00  0.00     0.169 HD
ENDBRANCH  23  26
ENDBRANCH  19  20
ENDBRANCH   1  19
TORSDOF 7
ENDMDL
