MODEL 1
REMARK VINA RESULT:     -10.5      0.000      0.000
REMARK  7 active torsions:
REMARK  status: ('A' for Active; 'I' for Inactive)
REMARK    1  A    between atoms: C_3  and  C_4 
REMARK       I    between atoms: C_4  and  N_5 
REMARK    2  A    between atoms: N_5  and  C_6 
REMARK    3  A    between atoms: C_6  and  C_7 
REMARK    4  A    between atoms: N_23  and  C_24 
REMARK    5  A    between atoms: C_24  and  C_25 
REMARK       I    between atoms: C_25  and  N_26 
REMARK    6  A    between atoms: N_26  and  C_27 
REMARK    7  A    between atoms: C_29  and  C_30 
ROOT
HETATM    1  C   UNL     1      -4.905   6.013 -32.811  1.00  0.00     0.051 C 
HETATM    2  C   UNL     1      -5.463   5.484 -31.522  1.00  0.00    -0.021 A 
HETATM    3  C   UNL     1      -5.093   5.936 -30.256  1.00  0.00     0.081 A 
HETATM    4  S   UNL     1      -5.991   5.146 -29.021  1.00  0.00    -0.063 SA
HETATM    5  C   UNL     1      -6.848   4.195 -30.132  1.00  0.00     0.116 A 
HETATM    6  C   UNL     1      -6.446   4.429 -31.428  1.00  0.00     0.075 A 
HETATM    7  C   UNL     1      -7.064   3.623 -32.472  1.00  0.00     0.262 A 
HETATM    8  O   UNL     1      -6.708   3.658 -33.645  1.00  0.00    -0.267 OA
HETATM    9  N   UNL     1      -8.069   2.771 -32.013  1.00  0.00    -0.299 N 
HETATM   10  C   UNL     1      -8.389   2.681 -30.670  1.00  0.00     0.214 A 
HETATM   11  N   UNL     1      -7.804   3.328 -29.717  1.00  0.00    -0.235 NA
ENDROOT
BRANCH   3  12
HETATM   12  C   UNL     1      -4.088   6.946 -29.908  1.00  0.00     0.259 C 
HETATM   13  N   UNL     1      -2.866   6.456 -29.499  1.00  0.00    -0.354 N 
HETATM   14  H   UNL     1      -2.723   5.456 -29.587  1.00  0.00     0.162 HD
HETATM   15  O   UNL     1      -4.283   8.158 -29.987  1.00  0.00    -0.267 OA
BRANCH  13  16
HETATM   16  C   UNL     1      -1.721   7.313 -29.272  1.00  0.00     0.157 C 
BRANCH  16  17
HETATM   17  C   UNL     1      -0.438   6.927 -30.034  1.00  0.00     0.171 C 
HETATM   18  O   UNL     1      -0.456   7.457 -31.370  1.00  0.00    -0.339 OA
HETATM   19  C   UNL     1      -0.889   6.566 -32.316  1.00  0.00     0.102 A 
HETATM   20  C   UNL     1      -1.144   5.219 -32.052  1.00  0.00     0.102 A 
HETATM   21  C   UNL     1      -1.117   7.079 -33.592  1.00  0.00     0.039 A 
HETATM   22  O   UNL     1      -0.975   4.656 -30.816  1.00  0.00    -0.346 OA
HETATM   23  C   UNL     1      -1.661   4.395 -33.050  1.00  0.00     0.039 A 
HETATM   24  C   UNL     1      -0.094   5.439 -30.010  1.00  0.00     0.209 C 
HETATM   25  C   UNL     1      -1.899   4.912 -34.324  1.00  0.00     0.003 A 
HETATM   26  C   UNL     1      -1.622   6.252 -34.596  1.00  0.00     0.003 A 
ENDBRANCH  16  17
ENDBRANCH  13  16
ENDBRANCH   3  12
BRANCH   9  27
HETATM   27  C   UNL     1      -8.835   1.997 -32.981  1.00  0.00     0.236 C 
BRANCH  27  28
HETATM   28  C   UNL     1      -8.289   0.595 -33.285  1.00  0.00     0.240 C 
HETATM   29  N   UNL     1      -6.977   0.551 -33.719  1.00  0.00    -0.326 N 
HETATM   30  H   UNL     1      -6.551   1.433 -33.977  1.00  0.00     0.169 HD
HETATM   31  O   UNL     1      -9.015  -0.381 -33.100  1.00  0.00    -0.271 OA
BRANCH  29  32
HETATM   32  C   UNL     1      -6.162  -0.591 -33.874  1.00  0.00     0.035 A 
HETATM   33  C   UNL     1      -6.618  -1.818 -34.363  1.00  0.00     0.045 A 
HETATM   34  C   UNL     1      -5.759  -2.928 -34.452  1.00  0.00     0.050 A 
HETATM   35  C   UNL     1      -4.425  -2.794 -34.040  1.00  0.00     0.016 A 
HETATM   36  C   UNL     1      -3.962  -1.574 -33.553  1.00  0.00     0.003 A 
HETATM   37  C   UNL     1      -4.825  -0.480 -33.471  1.00  0.00     0.029 A 
BRANCH  34  38
HETATM   38  C   UNL     1      -6.254  -4.258 -34.969  1.00  0.00     0.417 C 
HETATM   39  F   UNL     1      -6.352  -4.324 -36.325  1.00  0.00    -0.166 F 
HETATM   40  F   UNL     1      -5.446  -5.292 -34.602  1.00  0.00    -0.166 F 
HETATM   41  F   UNL     1      -7.493  -4.567 -34.491  1.00  0.00    -0.166 F 
ENDBRANCH  34  38
ENDBRANCH  29  32
ENDBRANCH  27  28
ENDBRANCH   9  27
TORSDOF 7
ENDMDL
MODEL 2
REMARK VINA RESULT:     -10.0      1.236      1.653
REMARK  7 active torsions:
REMARK  status: ('A' for Active; 'I' for Inactive)
REMARK    1  A    between atoms: C_3  and  C_4 
REMARK       I    between atoms: C_4  and  N_5 
REMARK    2  A    between atoms: N_5  and  C_6 
REMARK    3  A    between atoms: C_6  and  C_7 
REMARK    4  A    between atoms: N_23  and  C_24 
REMARK    5  A    between atoms: C_24  and  C_25 
REMARK       I    between atoms: C_25  and  N_26 
REMARK    6  A    between atoms: N_26  and  C_27 
REMARK    7  A    between atoms: C_29  and  C_30 
ROOT
HETATM    1  C   UNL     1      -6.212   4.580 -28.935  1.00  0.00     0.051 C 
HETATM    2  C   UNL     1      -6.059   5.141 -30.318  1.00  0.00    -0.021 A 
HETATM    3  C   UNL     1      -5.234   6.216 -30.648  1.00  0.00     0.081 A 
HETATM    4  S   UNL     1      -5.264   6.533 -32.338  1.00  0.00    -0.063 SA
HETATM    5  C   UNL     1      -6.371   5.285 -32.640  1.00  0.00     0.116 A 
HETATM    6  C   UNL     1      -6.758   4.648 -31.483  1.00  0.00     0.075 A 
HETATM    7  C   UNL     1      -7.759   3.597 -31.605  1.00  0.00     0.262 A 
HETATM    8  O   UNL     1      -8.264   3.038 -30.637  1.00  0.00    -0.267 OA
HETATM    9  N   UNL     1      -8.127   3.311 -32.920  1.00  0.00    -0.299 N 
HETATM   10  C   UNL     1      -7.611   4.020 -33.990  1.00  0.00     0.214 A 
HETATM   11  N   UNL     1      -6.781   5.006 -33.903  1.00  0.00    -0.235 NA
ENDROOT
BRANCH   3  12
HETATM   12  C   UNL     1      -4.407   7.036 -29.757  1.00  0.00     0.259 C 
HETATM   13  N   UNL     1      -3.293   6.413 -29.235  1.00  0.00    -0.354 N 
HETATM   14  H   UNL     1      -3.072   5.494 -29.602  1.00  0.00     0.162 HD
HETATM   15  O   UNL     1      -4.652   8.211 -29.488  1.00  0.00    -0.267 OA
BRANCH  13  16
HETATM   16  C   UNL     1      -2.292   7.126 -28.469  1.00  0.00     0.157 C 
BRANCH  16  17
HETATM   17  C   UNL     1      -0.948   7.363 -29.185  1.00  0.00     0.171 C 
HETATM   18  O   UNL     1      -1.142   8.085 -30.412  1.00  0.00    -0.339 OA
HETATM   19  C   UNL     1      -1.213   7.286 -31.522  1.00  0.00     0.102 A 
HETATM   20  C   UNL     1      -0.966   5.912 -31.505  1.00  0.00     0.102 A 
HETATM   21  C   UNL     1      -1.597   7.908 -32.709  1.00  0.00     0.039 A 
HETATM   22  O   UNL     1      -0.619   5.230 -30.369  1.00  0.00    -0.346 OA
HETATM   23  C   UNL     1      -1.140   5.153 -32.661  1.00  0.00     0.039 A 
HETATM   24  C   UNL     1      -0.090   6.115 -29.380  1.00  0.00     0.209 C 
HETATM   25  C   UNL     1      -1.535   5.775 -33.846  1.00  0.00     0.003 A 
HETATM   26  C   UNL     1      -1.758   7.151 -33.872  1.00  0.00     0.003 A 
ENDBRANCH  16  17
ENDBRANCH  13  16
ENDBRANCH   3  12
BRANCH   9  27
HETATM   27  C   UNL     1      -9.038   2.203 -33.172  1.00  0.00     0.236 C 
BRANCH  27  28
HETATM   28  C   UNL     1      -8.402   0.807 -33.153  1.00  0.00     0.240 C 
HETATM   29  N   UNL     1      -7.324   0.635 -34.002  1.00  0.00    -0.326 N 
HETATM   30  H   UNL     1      -7.162   1.363 -34.688  1.00  0.00     0.169 HD
HETATM   31  O   UNL     1      -8.850  -0.043 -32.385  1.00  0.00    -0.271 OA
BRANCH  29  32
HETATM   32  C   UNL     1      -6.431  -0.457 -34.045  1.00  0.00     0.035 A 
HETATM   33  C   UNL     1      -6.791  -1.749 -34.438  1.00  0.00     0.045 A 
HETATM   34  C   UNL     1      -5.858  -2.800 -34.418  1.00  0.00     0.050 A 
HETATM   35  C   UNL     1      -4.546  -2.540 -33.993  1.00  0.00     0.016 A 
HETATM   36  C   UNL     1      -4.178  -1.256 -33.601  1.00  0.00     0.003 A 
HETATM   37  C   UNL     1      -5.115  -0.220 -33.627  1.00  0.00     0.029 A 
BRANCH  34  38
HETATM   38  C   UNL     1      -6.249  -4.199 -34.830  1.00  0.00     0.417 C 
HETATM   39  F   UNL     1      -6.350  -4.372 -36.177  1.00  0.00    -0.166 F 
HETATM   40  F   UNL     1      -5.360  -5.137 -34.399  1.00  0.00    -0.166 F 
HETATM   41  F   UNL     1      -7.456  -4.568 -34.316  1.00  0.00    -0.166 F 
ENDBRANCH  34  38
ENDBRANCH  29  32
ENDBRANCH  27  28
ENDBRANCH   9  27
TORSDOF 7
ENDMDL
MODEL 3
REMARK VINA RESULT:      -9.7      6.253     11.225
REMARK  7 active torsions:
REMARK  status: ('A' for Active; 'I' for Inactive)
REMARK    1  A    between atoms: C_3  and  C_4 
REMARK       I    between atoms: C_4  and  N_5 
REMARK    2  A    between atoms: N_5  and  C_6 
REMARK    3  A    between atoms: C_6  and  C_7 
REMARK    4  A    between atoms: N_23  and  C_24 
REMARK    5  A    between atoms: C_24  and  C_25 
REMARK       I    between atoms: C_25  and  N_26 
REMARK    6  A    between atoms: N_26  and  C_27 
REMARK    7  A    between atoms: C_29  and  C_30 
ROOT
HETATM    1  C   UNL     1      -3.346   2.578 -31.389  1.00  0.00     0.051 C 
HETATM    2  C   UNL     1      -3.667   3.967 -31.856  1.00  0.00    -0.021 A 
HETATM    3  C   UNL     1      -4.853   4.332 -32.494  1.00  0.00     0.081 A 
HETATM    4  S   UNL     1      -4.895   6.019 -32.821  1.00  0.00    -0.063 SA
HETATM    5  C   UNL     1      -3.358   6.275 -32.153  1.00  0.00     0.116 A 
HETATM    6  C   UNL     1      -2.784   5.103 -31.717  1.00  0.00     0.075 A 
HETATM    7  C   UNL     1      -1.432   5.182 -31.181  1.00  0.00     0.262 A 
HETATM    8  O   UNL     1      -0.776   4.194 -30.869  1.00  0.00    -0.267 OA
HETATM    9  N   UNL     1      -0.930   6.481 -31.096  1.00  0.00    -0.299 N 
HETATM   10  C   UNL     1      -1.654   7.572 -31.541  1.00  0.00     0.214 A 
HETATM   11  N   UNL     1      -2.823   7.520 -32.090  1.00  0.00    -0.235 NA
ENDROOT
BRANCH   3  12
HETATM   12  C   UNL     1      -5.979   3.476 -32.881  1.00  0.00     0.259 C 
HETATM   13  N   UNL     1      -6.966   3.321 -31.930  1.00  0.00    -0.354 N 
HETATM   14  H   UNL     1      -6.894   3.901 -31.101  1.00  0.00     0.162 HD
HETATM   15  O   UNL     1      -6.078   2.934 -33.980  1.00  0.00    -0.267 OA
BRANCH  13  16
HETATM   16  C   UNL     1      -8.213   2.641 -32.208  1.00  0.00     0.157 C 
BRANCH  16  17
HETATM   17  C   UNL     1      -8.360   1.238 -31.587  1.00  0.00     0.171 C 
HETATM   18  O   UNL     1      -7.073   0.627 -31.391  1.00  0.00    -0.339 OA
HETATM   19  C   UNL     1      -6.702  -0.222 -32.400  1.00  0.00     0.102 A 
HETATM   20  C   UNL     1      -7.544  -0.593 -33.450  1.00  0.00     0.102 A 
HETATM   21  C   UNL     1      -5.388  -0.688 -32.365  1.00  0.00     0.039 A 
HETATM   22  O   UNL     1      -8.834  -0.148 -33.565  1.00  0.00    -0.346 OA
HETATM   23  C   UNL     1      -7.065  -1.397 -34.483  1.00  0.00     0.039 A 
HETATM   24  C   UNL     1      -9.334   0.309 -32.308  1.00  0.00     0.209 C 
HETATM   25  C   UNL     1      -5.746  -1.853 -34.453  1.00  0.00     0.003 A 
HETATM   26  C   UNL     1      -4.911  -1.503 -33.393  1.00  0.00     0.003 A 
ENDBRANCH  16  17
ENDBRANCH  13  16
ENDBRANCH   3  12
BRANCH   9  27
HETATM   27  C   UNL     1       0.370   6.695 -30.473  1.00  0.00     0.236 C 
BRANCH  27  28
HETATM   28  C   UNL     1       0.340   6.975 -28.964  1.00  0.00     0.240 C 
HETATM   29  N   UNL     1       0.941   8.157 -28.569  1.00  0.00    -0.326 N 
HETATM   30  H   UNL     1       1.503   8.638 -29.261  1.00  0.00     0.169 HD
HETATM   31  O   UNL     1      -0.225   6.177 -28.219  1.00  0.00    -0.271 OA
BRANCH  29  32
HETATM   32  C   UNL     1       0.887   8.763 -27.296  1.00  0.00     0.035 A 
HETATM   33  C   UNL     1       1.934   8.736 -26.370  1.00  0.00     0.045 A 
HETATM   34  C   UNL     1       1.796   9.327 -25.101  1.00  0.00     0.050 A 
HETATM   35  C   UNL     1       0.584   9.950 -24.767  1.00  0.00     0.016 A 
HETATM   36  C   UNL     1      -0.463   9.984 -25.684  1.00  0.00     0.003 A 
HETATM   37  C   UNL     1      -0.313   9.394 -26.941  1.00  0.00     0.029 A 
BRANCH  34  38
HETATM   38  C   UNL     1       2.921   9.287 -24.096  1.00  0.00     0.417 C 
HETATM   39  F   UNL     1       2.911  10.320 -23.210  1.00  0.00    -0.166 F 
HETATM   40  F   UNL     1       2.907   8.150 -23.344  1.00  0.00    -0.166 F 
HETATM   41  F   UNL     1       4.146   9.321 -24.693  1.00  0.00    -0.166 F 
ENDBRANCH  34  38
ENDBRANCH  29  32
ENDBRANCH  27  28
ENDBRANCH   9  27
TORSDOF 7
ENDMDL
MODEL 4
REMARK VINA RESULT:      -9.3      1.937      3.370
REMARK  7 active torsions:
REMARK  status: ('A' for Active; 'I' for Inactive)
REMARK    1  A    between atoms: C_3  and  C_4 
REMARK       I    between atoms: C_4  and  N_5 
REMARK    2  A    between atoms: N_5  and  C_6 
REMARK    3  A    between atoms: C_6  and  C_7 
REMARK    4  A    between atoms: N_23  and  C_24 
REMARK    5  A    between atoms: C_24  and  C_25 
REMARK       I    between atoms: C_25  and  N_26 
REMARK    6  A    between atoms: N_26  and  C_27 
REMARK    7  A    between atoms: C_29  and  C_30 
ROOT
HETATM    1  C   UNL     1      -4.143   5.954 -33.186  1.00  0.00     0.051 C 
HETATM    2  C   UNL     1      -4.758   5.808 -31.825  1.00  0.00    -0.021 A 
HETATM    3  C   UNL     1      -4.380   6.546 -30.704  1.00  0.00     0.081 A 
HETATM    4  S   UNL     1      -5.352   6.156 -29.340  1.00  0.00    -0.063 SA
HETATM    5  C   UNL     1      -6.253   5.007 -30.202  1.00  0.00     0.116 A 
HETATM    6  C   UNL     1      -5.813   4.876 -31.500  1.00  0.00     0.075 A 
HETATM    7  C   UNL     1      -6.468   3.870 -32.325  1.00  0.00     0.262 A 
HETATM    8  O   UNL     1      -6.090   3.582 -33.456  1.00  0.00    -0.267 OA
HETATM    9  N   UNL     1      -7.537   3.228 -31.700  1.00  0.00    -0.299 N 
HETATM   10  C   UNL     1      -7.886   3.505 -30.390  1.00  0.00     0.214 A 
HETATM   11  N   UNL     1      -7.274   4.337 -29.613  1.00  0.00    -0.235 NA
ENDROOT
BRANCH   3  12
HETATM   12  C   UNL     1      -3.313   7.546 -30.590  1.00  0.00     0.259 C 
HETATM   13  N   UNL     1      -3.692   8.766 -30.070  1.00  0.00    -0.354 N 
HETATM   14  H   UNL     1      -4.633   8.831 -29.701  1.00  0.00     0.162 HD
HETATM   15  O   UNL     1      -2.144   7.335 -30.908  1.00  0.00    -0.267 OA
BRANCH  13  16
HETATM   16  C   UNL     1      -2.734   9.803 -29.747  1.00  0.00     0.157 C 
BRANCH  16  17
HETATM   17  C   UNL     1      -2.533  10.079 -28.244  1.00  0.00     0.171 C 
HETATM   18  O   UNL     1      -1.154  10.361 -27.955  1.00  0.00    -0.339 OA
HETATM   19  C   UNL     1      -0.446   9.276 -27.511  1.00  0.00     0.102 A 
HETATM   20  C   UNL     1      -1.026   8.042 -27.211  1.00  0.00     0.102 A 
HETATM   21  C   UNL     1       0.934   9.439 -27.404  1.00  0.00     0.039 A 
HETATM   22  O   UNL     1      -2.369   7.801 -27.325  1.00  0.00    -0.346 OA
HETATM   23  C   UNL     1      -0.226   6.962 -26.843  1.00  0.00     0.039 A 
HETATM   24  C   UNL     1      -3.113   9.021 -27.308  1.00  0.00     0.209 C 
HETATM   25  C   UNL     1       1.157   7.123 -26.749  1.00  0.00     0.003 A 
HETATM   26  C   UNL     1       1.736   8.361 -27.023  1.00  0.00     0.003 A 
ENDBRANCH  16  17
ENDBRANCH  13  16
ENDBRANCH   3  12
BRANCH   9  27
HETATM   27  C   UNL     1      -8.337   2.282 -32.465  1.00  0.00     0.236 C 
BRANCH  27  28
HETATM   28  C   UNL     1      -7.783   0.852 -32.533  1.00  0.00     0.240 C 
HETATM   29  N   UNL     1      -6.920   0.600 -33.584  1.00  0.00    -0.326 N 
HETATM   30  H   UNL     1      -6.871   1.301 -34.313  1.00  0.00     0.169 HD
HETATM   31  O   UNL     1      -8.101   0.047 -31.659  1.00  0.00    -0.271 OA
BRANCH  29  32
HETATM   32  C   UNL     1      -6.114  -0.542 -33.777  1.00  0.00     0.035 A 
HETATM   33  C   UNL     1      -6.600  -1.781 -34.203  1.00  0.00     0.045 A 
HETATM   34  C   UNL     1      -5.744  -2.890 -34.335  1.00  0.00     0.050 A 
HETATM   35  C   UNL     1      -4.382  -2.740 -34.031  1.00  0.00     0.016 A 
HETATM   36  C   UNL     1      -3.890  -1.509 -33.609  1.00  0.00     0.003 A 
HETATM   37  C   UNL     1      -4.750  -0.416 -33.482  1.00  0.00     0.029 A 
BRANCH  34  38
HETATM   38  C   UNL     1      -6.270  -4.232 -34.782  1.00  0.00     0.417 C 
HETATM   39  F   UNL     1      -7.520  -4.519 -34.324  1.00  0.00    -0.166 F 
HETATM   40  F   UNL     1      -6.335  -4.340 -36.139  1.00  0.00    -0.166 F 
HETATM   41  F   UNL     1      -5.477  -5.260 -34.366  1.00  0.00    -0.166 F 
ENDBRANCH  34  38
ENDBRANCH  29  32
ENDBRANCH  27  28
ENDBRANCH   9  27
TORSDOF 7
ENDMDL
MODEL 5
REMARK VINA RESULT:      -9.2      5.022      9.704
REMARK  7 active torsions:
REMARK  status: ('A' for Active; 'I' for Inactive)
REMARK    1  A    between atoms: C_3  and  C_4 
REMARK       I    between atoms: C_4  and  N_5 
REMARK    2  A    between atoms: N_5  and  C_6 
REMARK    3  A    between atoms: C_6  and  C_7 
REMARK    4  A    between atoms: N_23  and  C_24 
REMARK    5  A    between atoms: C_24  and  C_25 
REMARK       I    between atoms: C_25  and  N_26 
REMARK    6  A    between atoms: N_26  and  C_27 
REMARK    7  A    between atoms: C_29  and  C_30 
ROOT
HETATM    1  C   UNL     1      -5.182   3.505 -32.996  1.00  0.00     0.051 C 
HETATM    2  C   UNL     1      -6.069   3.786 -31.820  1.00  0.00    -0.021 A 
HETATM    3  C   UNL     1      -6.820   2.822 -31.147  1.00  0.00     0.081 A 
HETATM    4  S   UNL     1      -7.661   3.503 -29.811  1.00  0.00    -0.063 SA
HETATM    5  C   UNL     1      -7.068   5.060 -30.119  1.00  0.00     0.116 A 
HETATM    6  C   UNL     1      -6.271   5.095 -31.241  1.00  0.00     0.075 A 
HETATM    7  C   UNL     1      -5.752   6.394 -31.648  1.00  0.00     0.262 A 
HETATM    8  O   UNL     1      -5.129   6.569 -32.690  1.00  0.00    -0.267 OA
HETATM    9  N   UNL     1      -6.065   7.433 -30.771  1.00  0.00    -0.299 N 
HETATM   10  C   UNL     1      -6.849   7.226 -29.650  1.00  0.00     0.214 A 
HETATM   11  N   UNL     1      -7.384   6.101 -29.309  1.00  0.00    -0.235 NA
ENDROOT
BRANCH   3  12
HETATM   12  C   UNL     1      -6.948   1.393 -31.451  1.00  0.00     0.259 C 
HETATM   13  N   UNL     1      -7.909   1.064 -32.383  1.00  0.00    -0.354 N 
HETATM   14  H   UNL     1      -8.358   1.835 -32.865  1.00  0.00     0.162 HD
HETATM   15  O   UNL     1      -6.244   0.523 -30.942  1.00  0.00    -0.267 OA
BRANCH  13  16
HETATM   16  C   UNL     1      -8.055  -0.277 -32.909  1.00  0.00     0.157 C 
BRANCH  16  17
HETATM   17  C   UNL     1      -7.553  -0.486 -34.351  1.00  0.00     0.171 C 
HETATM   18  O   UNL     1      -7.692  -1.860 -34.748  1.00  0.00    -0.339 OA
HETATM   19  C   UNL     1      -6.549  -2.600 -34.597  1.00  0.00     0.102 A 
HETATM   20  C   UNL     1      -5.314  -2.055 -34.241  1.00  0.00     0.102 A 
HETATM   21  C   UNL     1      -6.675  -3.977 -34.776  1.00  0.00     0.039 A 
HETATM   22  O   UNL     1      -5.125  -0.717 -34.017  1.00  0.00    -0.346 OA
HETATM   23  C   UNL     1      -4.216  -2.886 -34.027  1.00  0.00     0.039 A 
HETATM   24  C   UNL     1      -6.154   0.058 -34.635  1.00  0.00     0.209 C 
HETATM   25  C   UNL     1      -4.346  -4.265 -34.195  1.00  0.00     0.003 A 
HETATM   26  C   UNL     1      -5.573  -4.810 -34.574  1.00  0.00     0.003 A 
ENDBRANCH  16  17
ENDBRANCH  13  16
ENDBRANCH   3  12
BRANCH   9  27
HETATM   27  C   UNL     1      -5.507   8.756 -31.017  1.00  0.00     0.236 C 
BRANCH  27  28
HETATM   28  C   UNL     1      -3.991   8.881 -30.815  1.00  0.00     0.240 C 
HETATM   29  N   UNL     1      -3.373   7.772 -30.267  1.00  0.00    -0.326 N 
HETATM   30  H   UNL     1      -3.977   7.058 -29.877  1.00  0.00     0.169 HD
HETATM   31  O   UNL     1      -3.424   9.912 -31.171  1.00  0.00    -0.271 OA
BRANCH  29  32
HETATM   32  C   UNL     1      -1.987   7.528 -30.159  1.00  0.00     0.035 A 
HETATM   33  C   UNL     1      -1.208   7.904 -29.061  1.00  0.00     0.045 A 
HETATM   34  C   UNL     1       0.178   7.665 -29.039  1.00  0.00     0.050 A 
HETATM   35  C   UNL     1       0.780   7.039 -30.141  1.00  0.00     0.016 A 
HETATM   36  C   UNL     1       0.011   6.659 -31.238  1.00  0.00     0.003 A 
HETATM   37  C   UNL     1      -1.364   6.902 -31.247  1.00  0.00     0.029 A 
BRANCH  34  38
HETATM   38  C   UNL     1       1.022   8.082 -27.860  1.00  0.00     0.417 C 
HETATM   39  F   UNL     1       0.354   8.821 -26.932  1.00  0.00    -0.166 F 
HETATM   40  F   UNL     1       1.539   7.016 -27.186  1.00  0.00    -0.166 F 
HETATM   41  F   UNL     1       2.093   8.838 -28.235  1.00  0.00    -0.166 F 
ENDBRANCH  34  38
ENDBRANCH  29  32
ENDBRANCH  27  28
ENDBRANCH   9  27
TORSDOF 7
ENDMDL
MODEL 6
REMARK VINA RESULT:      -9.1      2.990      4.929
REMARK  7 active torsions:
REMARK  status: ('A' for Active; 'I' for Inactive)
REMARK    1  A    between atoms: C_3  and  C_4 
REMARK       I    between atoms: C_4  and  N_5 
REMARK    2  A    between atoms: N_5  and  C_6 
REMARK    3  A    between atoms: C_6  and  C_7 
REMARK    4  A    between atoms: N_23  and  C_24 
REMARK    5  A    between atoms: C_24  and  C_25 
REMARK       I    between atoms: C_25  and  N_26 
REMARK    6  A    between atoms: N_26  and  C_27 
REMARK    7  A    between atoms: C_29  and  C_30 
ROOT
HETATM    1  C   UNL     1      -0.708   7.531 -30.003  1.00  0.00     0.051 C 
HETATM    2  C   UNL     1      -2.203   7.406 -29.998  1.00  0.00    -0.021 A 
HETATM    3  C   UNL     1      -3.074   8.351 -29.457  1.00  0.00     0.081 A 
HETATM    4  S   UNL     1      -4.716   7.899 -29.696  1.00  0.00    -0.063 SA
HETATM    5  C   UNL     1      -4.296   6.459 -30.485  1.00  0.00     0.116 A 
HETATM    6  C   UNL     1      -2.932   6.282 -30.542  1.00  0.00     0.075 A 
HETATM    7  C   UNL     1      -2.445   5.046 -31.140  1.00  0.00     0.262 A 
HETATM    8  O   UNL     1      -1.262   4.724 -31.144  1.00  0.00    -0.267 OA
HETATM    9  N   UNL     1      -3.451   4.235 -31.668  1.00  0.00    -0.299 N 
HETATM   10  C   UNL     1      -4.788   4.576 -31.568  1.00  0.00     0.214 A 
HETATM   11  N   UNL     1      -5.248   5.628 -30.976  1.00  0.00    -0.235 NA
ENDROOT
BRANCH   3  12
HETATM   12  C   UNL     1      -2.744   9.598 -28.759  1.00  0.00     0.259 C 
HETATM   13  N   UNL     1      -3.365   9.782 -27.541  1.00  0.00    -0.354 N 
HETATM   14  H   UNL     1      -3.894   8.998 -27.176  1.00  0.00     0.162 HD
HETATM   15  O   UNL     1      -1.955  10.434 -29.193  1.00  0.00    -0.267 OA
BRANCH  13  16
HETATM   16  C   UNL     1      -3.029  10.878 -26.657  1.00  0.00     0.157 C 
BRANCH  16  17
HETATM   17  C   UNL     1      -2.204  10.501 -25.411  1.00  0.00     0.171 C 
HETATM   18  O   UNL     1      -0.799  10.686 -25.651  1.00  0.00    -0.339 OA
HETATM   19  C   UNL     1      -0.143   9.542 -26.022  1.00  0.00     0.102 A 
HETATM   20  C   UNL     1      -0.732   8.276 -26.022  1.00  0.00     0.102 A 
HETATM   21  C   UNL     1       1.171   9.696 -26.459  1.00  0.00     0.039 A 
HETATM   22  O   UNL     1      -2.028   8.056 -25.638  1.00  0.00    -0.346 OA
HETATM   23  C   UNL     1      -0.023   7.173 -26.492  1.00  0.00     0.039 A 
HETATM   24  C   UNL     1      -2.512   9.125 -24.823  1.00  0.00     0.209 C 
HETATM   25  C   UNL     1       1.289   7.330 -26.940  1.00  0.00     0.003 A 
HETATM   26  C   UNL     1       1.888   8.590 -26.918  1.00  0.00     0.003 A 
ENDBRANCH  16  17
ENDBRANCH  13  16
ENDBRANCH   3  12
BRANCH   9  27
HETATM   27  C   UNL     1      -3.076   3.026 -32.389  1.00  0.00     0.236 C 
BRANCH  27  28
HETATM   28  C   UNL     1      -4.025   1.833 -32.215  1.00  0.00     0.240 C 
HETATM   29  N   UNL     1      -4.898   1.612 -33.264  1.00  0.00    -0.326 N 
HETATM   30  H   UNL     1      -4.971   2.345 -33.960  1.00  0.00     0.169 HD
HETATM   31  O   UNL     1      -3.937   1.143 -31.201  1.00  0.00    -0.271 OA
BRANCH  29  32
HETATM   32  C   UNL     1      -5.728   0.490 -33.469  1.00  0.00     0.035 A 
HETATM   33  C   UNL     1      -5.270  -0.751 -33.922  1.00  0.00     0.045 A 
HETATM   34  C   UNL     1      -6.161  -1.817 -34.143  1.00  0.00     0.050 A 
HETATM   35  C   UNL     1      -7.530  -1.622 -33.904  1.00  0.00     0.016 A 
HETATM   36  C   UNL     1      -7.994  -0.391 -33.450  1.00  0.00     0.003 A 
HETATM   37  C   UNL     1      -7.099   0.659 -33.234  1.00  0.00     0.029 A 
BRANCH  34  38
HETATM   38  C   UNL     1      -5.670  -3.153 -34.644  1.00  0.00     0.417 C 
HETATM   39  F   UNL     1      -6.604  -4.142 -34.596  1.00  0.00    -0.166 F 
HETATM   40  F   UNL     1      -5.249  -3.100 -35.940  1.00  0.00    -0.166 F 
HETATM   41  F   UNL     1      -4.605  -3.612 -33.928  1.00  0.00    -0.166 F 
ENDBRANCH  34  38
ENDBRANCH  29  32
ENDBRANCH  27  28
ENDBRANCH   9  27
TORSDOF 7
ENDMDL
MODEL 7
REMARK VINA RESULT:      -8.9      2.180      2.924
REMARK  7 active torsions:
REMARK  status: ('A' for Active; 'I' for Inactive)
REMARK    1  A    between atoms: C_3  and  C_4 
REMARK       I    between atoms: C_4  and  N_5 
REMARK    2  A    between atoms: N_5  and  C_6 
REMARK    3  A    between atoms: C_6  and  C_7 
REMARK    4  A    between atoms: N_23  and  C_24 
REMARK    5  A    between atoms: C_24  and  C_25 
REMARK       I    between atoms: C_25  and  N_26 
REMARK    6  A    between atoms: N_26  and  C_27 
REMARK    7  A    between atoms: C_29  and  C_30 
ROOT
HETATM    1  C   UNL     1      -5.792   6.149 -32.491  1.00  0.00     0.051 C 
HETATM    2  C   UNL     1      -6.842   5.790 -31.483  1.00  0.00    -0.021 A 
HETATM    3  C   UNL     1      -7.021   6.439 -30.261  1.00  0.00     0.081 A 
HETATM    4  S   UNL     1      -8.364   5.798 -29.401  1.00  0.00    -0.063 SA
HETATM    5  C   UNL     1      -8.702   4.656 -30.606  1.00  0.00     0.116 A 
HETATM    6  C   UNL     1      -7.796   4.715 -31.641  1.00  0.00     0.075 A 
HETATM    7  C   UNL     1      -7.942   3.737 -32.710  1.00  0.00     0.262 A 
HETATM    8  O   UNL     1      -7.132   3.617 -33.623  1.00  0.00    -0.267 OA
HETATM    9  N   UNL     1      -9.063   2.916 -32.582  1.00  0.00    -0.299 N 
HETATM   10  C   UNL     1      -9.911   3.009 -31.493  1.00  0.00     0.214 A 
HETATM   11  N   UNL     1      -9.761   3.816 -30.495  1.00  0.00    -0.235 NA
ENDROOT
BRANCH   3  12
HETATM   12  C   UNL     1      -6.230   7.535 -29.690  1.00  0.00     0.259 C 
HETATM   13  N   UNL     1      -5.008   7.177 -29.162  1.00  0.00    -0.354 N 
HETATM   14  H   UNL     1      -4.706   6.222 -29.320  1.00  0.00     0.162 HD
HETATM   15  O   UNL     1      -6.596   8.709 -29.684  1.00  0.00    -0.267 OA
BRANCH  13  16
HETATM   16  C   UNL     1      -4.043   8.154 -28.705  1.00  0.00     0.157 C 
BRANCH  16  17
HETATM   17  C   UNL     1      -3.191   8.816 -29.806  1.00  0.00     0.171 C 
HETATM   18  O   UNL     1      -3.001   7.921 -30.914  1.00  0.00    -0.339 OA
HETATM   19  C   UNL     1      -1.819   7.230 -30.876  1.00  0.00     0.102 A 
HETATM   20  C   UNL     1      -0.810   7.473 -29.942  1.00  0.00     0.102 A 
HETATM   21  C   UNL     1      -1.668   6.208 -31.811  1.00  0.00     0.039 A 
HETATM   22  O   UNL     1      -0.904   8.438 -28.975  1.00  0.00    -0.346 OA
HETATM   23  C   UNL     1       0.330   6.672 -29.917  1.00  0.00     0.039 A 
HETATM   24  C   UNL     1      -1.874   9.425 -29.327  1.00  0.00     0.209 C 
HETATM   25  C   UNL     1       0.475   5.641 -30.846  1.00  0.00     0.003 A 
HETATM   26  C   UNL     1      -0.521   5.413 -31.796  1.00  0.00     0.003 A 
ENDBRANCH  16  17
ENDBRANCH  13  16
ENDBRANCH   3  12
BRANCH   9  27
HETATM   27  C   UNL     1      -9.373   1.974 -33.648  1.00  0.00     0.236 C 
BRANCH  27  28
HETATM   28  C   UNL     1      -8.662   0.617 -33.558  1.00  0.00     0.240 C 
HETATM   29  N   UNL     1      -7.385   0.581 -34.086  1.00  0.00    -0.326 N 
HETATM   30  H   UNL     1      -7.098   1.377 -34.644  1.00  0.00     0.169 HD
HETATM   31  O   UNL     1      -9.236  -0.323 -33.011  1.00  0.00    -0.271 OA
BRANCH  29  32
HETATM   32  C   UNL     1      -6.434  -0.454 -33.962  1.00  0.00     0.035 A 
HETATM   33  C   UNL     1      -5.387  -0.450 -33.035  1.00  0.00     0.045 A 
HETATM   34  C   UNL     1      -4.450  -1.498 -32.994  1.00  0.00     0.050 A 
HETATM   35  C   UNL     1      -4.573  -2.560 -33.903  1.00  0.00     0.016 A 
HETATM   36  C   UNL     1      -5.614  -2.573 -34.828  1.00  0.00     0.003 A 
HETATM   37  C   UNL     1      -6.539  -1.527 -34.857  1.00  0.00     0.029 A 
BRANCH  34  38
HETATM   38  C   UNL     1      -3.312  -1.488 -32.003  1.00  0.00     0.417 C 
HETATM   39  F   UNL     1      -2.154  -0.963 -32.491  1.00  0.00    -0.166 F 
HETATM   40  F   UNL     1      -3.604  -0.770 -30.882  1.00  0.00    -0.166 F 
HETATM   41  F   UNL     1      -2.997  -2.741 -31.568  1.00  0.00    -0.166 F 
ENDBRANCH  34  38
ENDBRANCH  29  32
ENDBRANCH  27  28
ENDBRANCH   9  27
TORSDOF 7
ENDMDL
MODEL 8
REMARK VINA RESULT:      -8.9      4.236      9.280
REMARK  7 active torsions:
REMARK  status: ('A' for Active; 'I' for Inactive)
REMARK    1  A    between atoms: C_3  and  C_4 
REMARK       I    between atoms: C_4  and  N_5 
REMARK    2  A    between atoms: N_5  and  C_6 
REMARK    3  A    between atoms: C_6  and  C_7 
REMARK    4  A    between atoms: N_23  and  C_24 
REMARK    5  A    between atoms: C_24  and  C_25 
REMARK       I    between atoms: C_25  and  N_26 
REMARK    6  A    between atoms: N_26  and  C_27 
REMARK    7  A    between atoms: C_29  and  C_30 
ROOT
HETATM    1  C   UNL     1      -5.893   4.959 -33.068  1.00  0.00     0.051 C 
HETATM    2  C   UNL     1      -6.482   4.617 -31.732  1.00  0.00    -0.021 A 
HETATM    3  C   UNL     1      -7.022   3.375 -31.400  1.00  0.00     0.081 A 
HETATM    4  S   UNL     1      -7.539   3.333 -29.761  1.00  0.00    -0.063 SA
HETATM    5  C   UNL     1      -7.081   4.941 -29.485  1.00  0.00     0.116 A 
HETATM    6  C   UNL     1      -6.577   5.535 -30.620  1.00  0.00     0.075 A 
HETATM    7  C   UNL     1      -6.208   6.941 -30.527  1.00  0.00     0.262 A 
HETATM    8  O   UNL     1      -5.857   7.607 -31.496  1.00  0.00    -0.267 OA
HETATM    9  N   UNL     1      -6.333   7.479 -29.246  1.00  0.00    -0.299 N 
HETATM   10  C   UNL     1      -6.820   6.732 -28.188  1.00  0.00     0.214 A 
HETATM   11  N   UNL     1      -7.225   5.508 -28.261  1.00  0.00    -0.235 NA
ENDROOT
BRANCH   3  12
HETATM   12  C   UNL     1      -7.177   2.193 -32.255  1.00  0.00     0.259 C 
HETATM   13  N   UNL     1      -6.315   1.149 -31.993  1.00  0.00    -0.354 N 
HETATM   14  H   UNL     1      -5.736   1.234 -31.165  1.00  0.00     0.162 HD
HETATM   15  O   UNL     1      -8.024   2.099 -33.141  1.00  0.00    -0.267 OA
BRANCH  13  16
HETATM   16  C   UNL     1      -6.439  -0.142 -32.637  1.00  0.00     0.157 C 
BRANCH  16  17
HETATM   17  C   UNL     1      -5.571  -0.346 -33.894  1.00  0.00     0.171 C 
HETATM   18  O   UNL     1      -6.089  -1.412 -34.707  1.00  0.00    -0.339 OA
HETATM   19  C   UNL     1      -5.479  -2.620 -34.494  1.00  0.00     0.102 A 
HETATM   20  C   UNL     1      -4.354  -2.788 -33.684  1.00  0.00     0.102 A 
HETATM   21  C   UNL     1      -6.067  -3.727 -35.104  1.00  0.00     0.039 A 
HETATM   22  O   UNL     1      -3.745  -1.752 -33.028  1.00  0.00    -0.346 OA
HETATM   23  C   UNL     1      -3.841  -4.063 -33.452  1.00  0.00     0.039 A 
HETATM   24  C   UNL     1      -4.075  -0.499 -33.629  1.00  0.00     0.209 C 
HETATM   25  C   UNL     1      -4.438  -5.172 -34.054  1.00  0.00     0.003 A 
HETATM   26  C   UNL     1      -5.547  -5.003 -34.883  1.00  0.00     0.003 A 
ENDBRANCH  16  17
ENDBRANCH  13  16
ENDBRANCH   3  12
BRANCH   9  27
HETATM   27  C   UNL     1      -5.888   8.846 -29.008  1.00  0.00     0.236 C 
BRANCH  27  28
HETATM   28  C   UNL     1      -4.389   9.098 -29.216  1.00  0.00     0.240 C 
HETATM   29  N   UNL     1      -3.544   8.202 -28.587  1.00  0.00    -0.326 N 
HETATM   30  H   UNL     1      -3.963   7.582 -27.904  1.00  0.00     0.169 HD
HETATM   31  O   UNL     1      -4.034  10.032 -29.934  1.00  0.00    -0.271 OA
BRANCH  29  32
HETATM   32  C   UNL     1      -2.151   8.067 -28.764  1.00  0.00     0.035 A 
HETATM   33  C   UNL     1      -1.559   7.378 -29.827  1.00  0.00     0.045 A 
HETATM   34  C   UNL     1      -0.162   7.247 -29.920  1.00  0.00     0.050 A 
HETATM   35  C   UNL     1       0.644   7.819 -28.924  1.00  0.00     0.016 A 
HETATM   36  C   UNL     1       0.063   8.509 -27.862  1.00  0.00     0.003 A 
HETATM   37  C   UNL     1      -1.325   8.632 -27.783  1.00  0.00     0.029 A 
BRANCH  34  38
HETATM   38  C   UNL     1       0.477   6.493 -31.060  1.00  0.00     0.417 C 
HETATM   39  F   UNL     1       0.958   5.267 -30.715  1.00  0.00    -0.166 F 
HETATM   40  F   UNL     1      -0.387   6.279 -32.092  1.00  0.00    -0.166 F 
HETATM   41  F   UNL     1       1.534   7.169 -31.596  1.00  0.00    -0.166 F 
ENDBRANCH  34  38
ENDBRANCH  29  32
ENDBRANCH  27  28
ENDBRANCH   9  27
TORSDOF 7
ENDMDL
MODEL 9
REMARK VINA RESULT:      -8.8      5.966      9.308
REMARK  7 active torsions:
REMARK  status: ('A' for Active; 'I' for Inactive)
REMARK    1  A    between atoms: C_3  and  C_4 
REMARK       I    between atoms: C_4  and  N_5 
REMARK    2  A    between atoms: N_5  and  C_6 
REMARK    3  A    between atoms: C_6  and  C_7 
REMARK    4  A    between atoms: N_23  and  C_24 
REMARK    5  A    between atoms: C_24  and  C_25 
REMARK       I    between atoms: C_25  and  N_26 
REMARK    6  A    between atoms: N_26  and  C_27 
REMARK    7  A    between atoms: C_29  and  C_30 
ROOT
HETATM    1  C   UNL     1      -9.498   4.799 -31.893  1.00  0.00     0.051 C 
HETATM    2  C   UNL     1      -9.502   3.362 -32.324  1.00  0.00    -0.021 A 
HETATM    3  C   UNL     1     -10.498   2.773 -33.103  1.00  0.00     0.081 A 
HETATM    4  S   UNL     1     -10.130   1.131 -33.453  1.00  0.00    -0.063 SA
HETATM    5  C   UNL     1      -8.683   1.176 -32.572  1.00  0.00     0.116 A 
HETATM    6  C   UNL     1      -8.480   2.401 -31.977  1.00  0.00     0.075 A 
HETATM    7  C   UNL     1      -7.300   2.545 -31.136  1.00  0.00     0.262 A 
HETATM    8  O   UNL     1      -7.074   3.546 -30.464  1.00  0.00    -0.267 OA
HETATM    9  N   UNL     1      -6.469   1.425 -31.125  1.00  0.00    -0.299 N 
HETATM   10  C   UNL     1      -6.793   0.271 -31.817  1.00  0.00     0.214 A 
HETATM   11  N   UNL     1      -7.870   0.092 -32.508  1.00  0.00    -0.235 NA
ENDROOT
BRANCH   3  12
HETATM   12  C   UNL     1     -11.733   3.379 -33.611  1.00  0.00     0.259 C 
HETATM   13  N   UNL     1     -11.587   4.206 -34.704  1.00  0.00    -0.354 N 
HETATM   14  H   UNL     1     -10.671   4.231 -35.137  1.00  0.00     0.162 HD
HETATM   15  O   UNL     1     -12.845   3.167 -33.129  1.00  0.00    -0.267 OA
BRANCH  13  16
HETATM   16  C   UNL     1     -12.720   4.754 -35.420  1.00  0.00     0.157 C 
BRANCH  16  17
HETATM   17  C   UNL     1     -13.125   6.189 -35.028  1.00  0.00     0.171 C 
HETATM   18  O   UNL     1     -13.632   6.907 -36.166  1.00  0.00    -0.339 OA
HETATM   19  C   UNL     1     -12.699   7.695 -36.787  1.00  0.00     0.102 A 
HETATM   20  C   UNL     1     -11.414   7.916 -36.286  1.00  0.00     0.102 A 
HETATM   21  C   UNL     1     -13.075   8.257 -38.005  1.00  0.00     0.039 A 
HETATM   22  O   UNL     1     -10.966   7.368 -35.114  1.00  0.00    -0.346 OA
HETATM   23  C   UNL     1     -10.495   8.665 -37.019  1.00  0.00     0.039 A 
HETATM   24  C   UNL     1     -12.057   6.981 -34.277  1.00  0.00     0.209 C 
HETATM   25  C   UNL     1     -10.870   9.217 -38.244  1.00  0.00     0.003 A 
HETATM   26  C   UNL     1     -12.160   9.018 -38.734  1.00  0.00     0.003 A 
ENDBRANCH  16  17
ENDBRANCH  13  16
ENDBRANCH   3  12
BRANCH   9  27
HETATM   27  C   UNL     1      -5.203   1.492 -30.407  1.00  0.00     0.236 C 
BRANCH  27  28
HETATM   28  C   UNL     1      -4.002   1.978 -31.230  1.00  0.00     0.240 C 
HETATM   29  N   UNL     1      -3.957   3.340 -31.465  1.00  0.00    -0.326 N 
HETATM   30  H   UNL     1      -4.793   3.870 -31.245  1.00  0.00     0.169 HD
HETATM   31  O   UNL     1      -3.158   1.162 -31.595  1.00  0.00    -0.271 OA
BRANCH  29  32
HETATM   32  C   UNL     1      -2.886   4.083 -32.006  1.00  0.00     0.035 A 
HETATM   33  C   UNL     1      -1.794   4.538 -31.262  1.00  0.00     0.045 A 
HETATM   34  C   UNL     1      -0.780   5.309 -31.859  1.00  0.00     0.050 A 
HETATM   35  C   UNL     1      -0.876   5.625 -33.223  1.00  0.00     0.016 A 
HETATM   36  C   UNL     1      -1.960   5.174 -33.972  1.00  0.00     0.003 A 
HETATM   37  C   UNL     1      -2.959   4.408 -33.367  1.00  0.00     0.029 A 
BRANCH  34  38
HETATM   38  C   UNL     1       0.393   5.812 -31.054  1.00  0.00     0.417 C 
HETATM   39  F   UNL     1       0.887   7.007 -31.479  1.00  0.00    -0.166 F 
HETATM   40  F   UNL     1       0.087   5.981 -29.737  1.00  0.00    -0.166 F 
HETATM   41  F   UNL     1       1.445   4.944 -31.081  1.00  0.00    -0.166 F 
ENDBRANCH  34  38
ENDBRANCH  29  32
ENDBRANCH  27  28
ENDBRANCH   9  27
TORSDOF 7
ENDMDL
MODEL 10
REMARK VINA RESULT:      -8.7      5.854     11.075
REMARK  7 active torsions:
REMARK  status: ('A' for Active; 'I' for Inactive)
REMARK    1  A    between atoms: C_3  and  C_4 
REMARK       I    between atoms: C_4  and  N_5 
REMARK    2  A    between atoms: N_5  and  C_6 
REMARK    3  A    between atoms: C_6  and  C_7 
REMARK    4  A    between atoms: N_23  and  C_24 
REMARK    5  A    between atoms: C_24  and  C_25 
REMARK       I    between atoms: C_25  and  N_26 
REMARK    6  A    between atoms: N_26  and  C_27 
REMARK    7  A    between atoms: C_29  and  C_30 
ROOT
HETATM    1  C   UNL     1      -7.399   5.092 -33.809  1.00  0.00     0.051 C 
HETATM    2  C   UNL     1      -6.602   4.036 -33.102  1.00  0.00    -0.021 A 
HETATM    3  C   UNL     1      -7.126   2.834 -32.627  1.00  0.00     0.081 A 
HETATM    4  S   UNL     1      -5.903   1.846 -31.933  1.00  0.00    -0.063 SA
HETATM    5  C   UNL     1      -4.689   2.992 -32.228  1.00  0.00     0.116 A 
HETATM    6  C   UNL     1      -5.190   4.135 -32.809  1.00  0.00     0.075 A 
HETATM    7  C   UNL     1      -4.253   5.224 -33.052  1.00  0.00     0.262 A 
HETATM    8  O   UNL     1      -4.600   6.329 -33.457  1.00  0.00    -0.267 OA
HETATM    9  N   UNL     1      -2.929   4.915 -32.741  1.00  0.00    -0.299 N 
HETATM   10  C   UNL     1      -2.575   3.692 -32.197  1.00  0.00     0.214 A 
HETATM   11  N   UNL     1      -3.397   2.740 -31.901  1.00  0.00    -0.235 NA
ENDROOT
BRANCH   3  12
HETATM   12  C   UNL     1      -8.518   2.371 -32.665  1.00  0.00     0.259 C 
HETATM   13  N   UNL     1      -9.064   2.224 -33.922  1.00  0.00    -0.354 N 
HETATM   14  H   UNL     1      -8.433   2.327 -34.708  1.00  0.00     0.162 HD
HETATM   15  O   UNL     1      -9.174   2.103 -31.660  1.00  0.00    -0.267 OA
BRANCH  13  16
HETATM   16  C   UNL     1     -10.367   1.629 -34.138  1.00  0.00     0.157 C 
BRANCH  16  17
HETATM   17  C   UNL     1     -11.407   2.533 -34.828  1.00  0.00     0.171 C 
HETATM   18  O   UNL     1     -12.024   3.419 -33.879  1.00  0.00    -0.339 OA
HETATM   19  C   UNL     1     -13.225   2.969 -33.397  1.00  0.00     0.102 A 
HETATM   20  C   UNL     1     -13.880   1.836 -33.885  1.00  0.00     0.102 A 
HETATM   21  C   UNL     1     -13.773   3.684 -32.334  1.00  0.00     0.039 A 
HETATM   22  O   UNL     1     -13.384   1.068 -34.904  1.00  0.00    -0.346 OA
HETATM   23  C   UNL     1     -15.059   1.396 -33.286  1.00  0.00     0.039 A 
HETATM   24  C   UNL     1     -12.436   1.799 -35.684  1.00  0.00     0.209 C 
HETATM   25  C   UNL     1     -15.600   2.105 -32.213  1.00  0.00     0.003 A 
HETATM   26  C   UNL     1     -14.960   3.252 -31.741  1.00  0.00     0.003 A 
ENDBRANCH  16  17
ENDBRANCH  13  16
ENDBRANCH   3  12
BRANCH   9  27
HETATM   27  C   UNL     1      -1.887   5.887 -33.046  1.00  0.00     0.236 C 
BRANCH  27  28
HETATM   28  C   UNL     1      -1.732   7.028 -32.032  1.00  0.00     0.240 C 
HETATM   29  N   UNL     1      -1.850   6.662 -30.704  1.00  0.00    -0.326 N 
HETATM   30  H   UNL     1      -2.207   5.732 -30.516  1.00  0.00     0.169 HD
HETATM   31  O   UNL     1      -1.488   8.162 -32.442  1.00  0.00    -0.271 OA
BRANCH  29  32
HETATM   32  C   UNL     1      -1.557   7.446 -29.568  1.00  0.00     0.035 A 
HETATM   33  C   UNL     1      -0.268   7.646 -29.066  1.00  0.00     0.045 A 
HETATM   34  C   UNL     1      -0.052   8.407 -27.903  1.00  0.00     0.050 A 
HETATM   35  C   UNL     1      -1.154   8.970 -27.242  1.00  0.00     0.016 A 
HETATM   36  C   UNL     1      -2.441   8.778 -27.736  1.00  0.00     0.003 A 
HETATM   37  C   UNL     1      -2.641   8.020 -28.892  1.00  0.00     0.029 A 
BRANCH  34  38
HETATM   38  C   UNL     1       1.338   8.613 -27.353  1.00  0.00     0.417 C 
HETATM   39  F   UNL     1       1.422   9.587 -26.405  1.00  0.00    -0.166 F 
HETATM   40  F   UNL     1       1.842   7.486 -26.775  1.00  0.00    -0.166 F 
HETATM   41  F   UNL     1       2.230   8.961 -28.324  1.00  0.00    -0.166 F 
ENDBRANCH  34  38
ENDBRANCH  29  32
ENDBRANCH  27  28
ENDBRANCH   9  27
TORSDOF 7
ENDMDL
