MODEL 1
REMARK VINA RESULT:      -8.4      0.000      0.000
REMARK  1 active torsions:
REMARK  status: ('A' for Active; 'I' for Inactive)
REMARK    1  A    between atoms: C_11  and  N_12 
REMARK       I    between atoms: N_12  and  C_13 
REMARK       I    between atoms: C_13  and  N_14 
ROOT
HETATM    1  N   UNL     1      -5.792   2.319 -32.675  1.00  0.00    -0.308 N 
HETATM    2  C   UNL     1      -5.530   3.468 -33.378  1.00  0.00     0.323 C 
HETATM    3  N   UNL     1      -5.132   4.556 -32.582  1.00  0.00    -0.332 N 
HETATM    4  C   UNL     1      -4.954   5.832 -33.275  1.00  0.00     0.160 C 
HETATM    5  C   UNL     1      -3.483   6.135 -33.652  1.00  0.00     0.204 C 
HETATM    6  N   UNL     1      -2.828   6.923 -32.537  1.00  0.00    -0.069 N 
HETATM    7  H   UNL     1      -3.337   7.805 -32.390  1.00  0.00     0.277 HD
HETATM    8  H   UNL     1      -1.897   7.216 -32.872  1.00  0.00     0.277 HD
HETATM    9  C   UNL     1      -2.661   6.208 -31.236  1.00  0.00     0.239 C 
HETATM   10  C   UNL     1      -2.944   4.710 -31.356  1.00  0.00     0.029 C 
HETATM   11  C   UNL     1      -4.459   4.410 -31.290  1.00  0.00     0.134 C 
HETATM   12  C   UNL     1      -2.593   4.912 -33.896  1.00  0.00     0.035 C 
HETATM   13  C   UNL     1      -2.277   4.125 -32.612  1.00  0.00     0.010 C 
HETATM   14  O   UNL     1      -5.598   3.594 -34.597  1.00  0.00    -0.247 OA
HETATM   15  H   UNL     1      -6.124   2.477 -31.741  1.00  0.00     0.170 HD
ENDROOT
BRANCH   1  16
HETATM   16  C   UNL     1      -5.959   1.000 -33.185  1.00  0.00     0.049 A 
HETATM   17  C   UNL     1      -5.010  -0.020 -32.837  1.00  0.00     0.021 A 
HETATM   18  C   UNL     1      -5.161  -1.330 -33.363  1.00  0.00     0.090 A 
HETATM   19  C   UNL     1      -3.888   0.182 -31.991  1.00  0.00     0.017 A 
HETATM   20  N   UNL     1      -4.287  -2.322 -33.070  1.00  0.00    -0.259 NA
HETATM   21  C   UNL     1      -6.244  -1.582 -34.211  1.00  0.00     0.063 A 
HETATM   22  C   UNL     1      -3.241  -2.077 -32.261  1.00  0.00     0.117 A 
HETATM   23  C   UNL     1      -2.999  -0.847 -31.702  1.00  0.00     0.020 A 
HETATM   24 CL   UNL     1      -6.499  -3.158 -34.894  1.00  0.00    -0.082 Cl
HETATM   25  C   UNL     1      -7.157  -0.590 -34.559  1.00  0.00     0.028 A 
HETATM   26  C   UNL     1      -7.009   0.695 -34.055  1.00  0.00     0.032 A 
ENDBRANCH   1  16
TORSDOF 1
ENDMDL
MODEL 2
REMARK VINA RESULT:      -8.3      3.334      4.261
REMARK  1 active torsions:
REMARK  status: ('A' for Active; 'I' for Inactive)
REMARK    1  A    between atoms: C_11  and  N_12 
REMARK       I    between atoms: N_12  and  C_13 
REMARK       I    between atoms: C_13  and  N_14 
ROOT
HETATM    1  N   UNL     1      -7.807  -0.588 -33.589  1.00  0.00    -0.308 N 
HETATM    2  C   UNL     1      -7.909   0.671 -34.126  1.00  0.00     0.323 C 
HETATM    3  N   UNL     1      -8.946   1.450 -33.584  1.00  0.00    -0.332 N 
HETATM    4  C   UNL     1      -9.164   2.756 -34.205  1.00  0.00     0.160 C 
HETATM    5  C   UNL     1      -8.485   3.925 -33.450  1.00  0.00     0.204 C 
HETATM    6  N   UNL     1      -9.455   4.509 -32.445  1.00  0.00    -0.069 N 
HETATM    7  H   UNL     1     -10.296   4.851 -32.931  1.00  0.00     0.277 HD
HETATM    8  H   UNL     1      -9.021   5.358 -32.053  1.00  0.00     0.277 HD
HETATM    9  C   UNL     1      -9.850   3.614 -31.315  1.00  0.00     0.239 C 
HETATM   10  C   UNL     1      -8.983   2.356 -31.241  1.00  0.00     0.029 C 
HETATM   11  C   UNL     1      -9.469   1.271 -32.228  1.00  0.00     0.134 C 
HETATM   12  C   UNL     1      -7.218   3.565 -32.668  1.00  0.00     0.035 C 
HETATM   13  C   UNL     1      -7.497   2.703 -31.423  1.00  0.00     0.010 C 
HETATM   14  O   UNL     1      -7.176   1.143 -34.989  1.00  0.00    -0.247 OA
HETATM   15  H   UNL     1      -8.679  -0.967 -33.267  1.00  0.00     0.170 HD
ENDROOT
BRANCH   1  16
HETATM   16  C   UNL     1      -6.734  -1.513 -33.723  1.00  0.00     0.049 A 
HETATM   17  C   UNL     1      -5.523  -1.309 -32.977  1.00  0.00     0.021 A 
HETATM   18  C   UNL     1      -4.442  -2.216 -33.127  1.00  0.00     0.090 A 
HETATM   19  C   UNL     1      -5.308  -0.231 -32.079  1.00  0.00     0.017 A 
HETATM   20  N   UNL     1      -3.280  -2.060 -32.452  1.00  0.00    -0.259 NA
HETATM   21  C   UNL     1      -4.598  -3.292 -34.008  1.00  0.00     0.063 A 
HETATM   22  C   UNL     1      -3.127  -1.021 -31.611  1.00  0.00     0.117 A 
HETATM   23  C   UNL     1      -4.106  -0.084 -31.394  1.00  0.00     0.020 A 
HETATM   24 CL   UNL     1      -3.324  -4.446 -34.247  1.00  0.00    -0.082 Cl
HETATM   25  C   UNL     1      -5.767  -3.483 -34.742  1.00  0.00     0.028 A 
HETATM   26  C   UNL     1      -6.823  -2.593 -34.606  1.00  0.00     0.032 A 
ENDBRANCH   1  16
TORSDOF 1
ENDMDL
MODEL 3
REMARK VINA RESULT:      -8.3      4.022      6.200
REMARK  1 active torsions:
REMARK  status: ('A' for Active; 'I' for Inactive)
REMARK    1  A    between atoms: C_11  and  N_12 
REMARK       I    between atoms: N_12  and  C_13 
REMARK       I    between atoms: C_13  and  N_14 
ROOT
HETATM    1  N   UNL     1      -8.325   1.958 -33.938  1.00  0.00    -0.308 N 
HETATM    2  C   UNL     1      -9.415   2.101 -33.117  1.00  0.00     0.323 C 
HETATM    3  N   UNL     1     -10.262   3.170 -33.460  1.00  0.00    -0.332 N 
HETATM    4  C   UNL     1     -11.374   3.430 -32.545  1.00  0.00     0.160 C 
HETATM    5  C   UNL     1     -12.713   2.799 -33.000  1.00  0.00     0.204 C 
HETATM    6  N   UNL     1     -13.483   3.798 -33.838  1.00  0.00    -0.069 N 
HETATM    7  H   UNL     1     -13.668   4.647 -33.285  1.00  0.00     0.277 HD
HETATM    8  H   UNL     1     -14.416   3.398 -34.016  1.00  0.00     0.277 HD
HETATM    9  C   UNL     1     -12.869   4.170 -35.148  1.00  0.00     0.239 C 
HETATM   10  C   UNL     1     -11.697   3.259 -35.520  1.00  0.00     0.029 C 
HETATM   11  C   UNL     1     -10.391   3.697 -34.819  1.00  0.00     0.134 C 
HETATM   12  C   UNL     1     -12.597   1.527 -33.844  1.00  0.00     0.035 C 
HETATM   13  C   UNL     1     -12.046   1.784 -35.258  1.00  0.00     0.010 C 
HETATM   14  O   UNL     1      -9.695   1.379 -32.166  1.00  0.00    -0.247 OA
HETATM   15  H   UNL     1      -8.001   2.819 -34.342  1.00  0.00     0.170 HD
ENDROOT
BRANCH   1  16
HETATM   16  C   UNL     1      -7.435   0.851 -34.027  1.00  0.00     0.049 A 
HETATM   17  C   UNL     1      -6.143   0.927 -33.403  1.00  0.00     0.021 A 
HETATM   18  C   UNL     1      -5.244  -0.167 -33.511  1.00  0.00     0.090 A 
HETATM   19  C   UNL     1      -5.670   2.047 -32.672  1.00  0.00     0.017 A 
HETATM   20  N   UNL     1      -4.014  -0.139 -32.947  1.00  0.00    -0.259 NA
HETATM   21  C   UNL     1      -5.657  -1.294 -34.230  1.00  0.00     0.063 A 
HETATM   22  C   UNL     1      -3.615   0.949 -32.263  1.00  0.00     0.117 A 
HETATM   23  C   UNL     1      -4.402   2.061 -32.100  1.00  0.00     0.020 A 
HETATM   24 CL   UNL     1      -4.617  -2.673 -34.407  1.00  0.00    -0.082 Cl
HETATM   25  C   UNL     1      -6.904  -1.362 -34.847  1.00  0.00     0.028 A 
HETATM   26  C   UNL     1      -7.782  -0.292 -34.752  1.00  0.00     0.032 A 
ENDBRANCH   1  16
TORSDOF 1
ENDMDL
MODEL 4
REMARK VINA RESULT:      -8.2      1.711      2.456
REMARK  1 active torsions:
REMARK  status: ('A' for Active; 'I' for Inactive)
REMARK    1  A    between atoms: C_11  and  N_12 
REMARK       I    between atoms: N_12  and  C_13 
REMARK       I    between atoms: C_13  and  N_14 
ROOT
HETATM    1  N   UNL     1      -4.936   0.690 -32.742  1.00  0.00    -0.308 N 
HETATM    2  C   UNL     1      -5.797   1.612 -32.200  1.00  0.00     0.323 C 
HETATM    3  N   UNL     1      -5.193   2.831 -31.847  1.00  0.00    -0.332 N 
HETATM    4  C   UNL     1      -6.048   3.799 -31.160  1.00  0.00     0.160 C 
HETATM    5  C   UNL     1      -6.649   4.873 -32.100  1.00  0.00     0.204 C 
HETATM    6  N   UNL     1      -5.731   6.077 -32.144  1.00  0.00    -0.069 N 
HETATM    7  H   UNL     1      -5.621   6.465 -31.197  1.00  0.00     0.277 HD
HETATM    8  H   UNL     1      -6.217   6.817 -32.672  1.00  0.00     0.277 HD
HETATM    9  C   UNL     1      -4.389   5.857 -32.763  1.00  0.00     0.239 C 
HETATM   10  C   UNL     1      -4.294   4.512 -33.484  1.00  0.00     0.029 C 
HETATM   11  C   UNL     1      -3.994   3.359 -32.499  1.00  0.00     0.134 C 
HETATM   12  C   UNL     1      -6.864   4.441 -33.553  1.00  0.00     0.035 C 
HETATM   13  C   UNL     1      -5.550   4.256 -34.333  1.00  0.00     0.010 C 
HETATM   14  O   UNL     1      -7.002   1.454 -32.032  1.00  0.00    -0.247 OA
HETATM   15  H   UNL     1      -3.991   0.769 -32.413  1.00  0.00     0.170 HD
ENDROOT
BRANCH   1  16
HETATM   16  C   UNL     1      -5.262  -0.513 -33.428  1.00  0.00     0.049 A 
HETATM   17  C   UNL     1      -4.548  -1.721 -33.121  1.00  0.00     0.021 A 
HETATM   18  C   UNL     1      -4.853  -2.918 -33.821  1.00  0.00     0.090 A 
HETATM   19  C   UNL     1      -3.518  -1.818 -32.149  1.00  0.00     0.017 A 
HETATM   20  N   UNL     1      -4.202  -4.078 -33.571  1.00  0.00    -0.259 NA
HETATM   21  C   UNL     1      -5.854  -2.876 -34.798  1.00  0.00     0.063 A 
HETATM   22  C   UNL     1      -3.233  -4.116 -32.638  1.00  0.00     0.117 A 
HETATM   23  C   UNL     1      -2.857  -3.017 -31.906  1.00  0.00     0.020 A 
HETATM   24 CL   UNL     1      -6.288  -4.296 -35.696  1.00  0.00    -0.082 Cl
HETATM   25  C   UNL     1      -6.538  -1.702 -35.106  1.00  0.00     0.028 A 
HETATM   26  C   UNL     1      -6.236  -0.528 -34.430  1.00  0.00     0.032 A 
ENDBRANCH   1  16
TORSDOF 1
ENDMDL
MODEL 5
REMARK VINA RESULT:      -8.1      3.779      5.369
REMARK  1 active torsions:
REMARK  status: ('A' for Active; 'I' for Inactive)
REMARK    1  A    between atoms: C_11  and  N_12 
REMARK       I    between atoms: N_12  and  C_13 
REMARK       I    between atoms: C_13  and  N_14 
ROOT
HETATM    1  N   UNL     1      -6.121   0.003 -33.944  1.00  0.00    -0.308 N 
HETATM    2  C   UNL     1      -6.504   1.240 -33.486  1.00  0.00     0.323 C 
HETATM    3  N   UNL     1      -7.681   1.735 -34.073  1.00  0.00    -0.332 N 
HETATM    4  C   UNL     1      -8.063   3.097 -33.700  1.00  0.00     0.160 C 
HETATM    5  C   UNL     1      -9.122   3.159 -32.571  1.00  0.00     0.204 C 
HETATM    6  N   UNL     1     -10.508   3.194 -33.180  1.00  0.00    -0.069 N 
HETATM    7  H   UNL     1     -10.600   4.019 -33.788  1.00  0.00     0.277 HD
HETATM    8  H   UNL     1     -11.178   3.362 -32.414  1.00  0.00     0.277 HD
HETATM    9  C   UNL     1     -10.932   1.967 -33.919  1.00  0.00     0.239 C 
HETATM   10  C   UNL     1      -9.979   0.793 -33.692  1.00  0.00     0.029 C 
HETATM   11  C   UNL     1      -8.740   0.880 -34.612  1.00  0.00     0.134 C 
HETATM   12  C   UNL     1      -9.113   1.987 -31.585  1.00  0.00     0.035 C 
HETATM   13  C   UNL     1      -9.608   0.668 -32.205  1.00  0.00     0.010 C 
HETATM   14  O   UNL     1      -5.924   1.896 -32.627  1.00  0.00    -0.247 OA
HETATM   15  H   UNL     1      -6.395  -0.185 -34.892  1.00  0.00     0.170 HD
ENDROOT
BRANCH   1  16
HETATM   16  C   UNL     1      -5.150  -0.875 -33.386  1.00  0.00     0.049 A 
HETATM   17  C   UNL     1      -5.099  -2.244 -33.818  1.00  0.00     0.021 A 
HETATM   18  C   UNL     1      -4.147  -3.127 -33.246  1.00  0.00     0.090 A 
HETATM   19  C   UNL     1      -5.960  -2.809 -34.795  1.00  0.00     0.017 A 
HETATM   20  N   UNL     1      -4.067  -4.427 -33.614  1.00  0.00    -0.259 NA
HETATM   21  C   UNL     1      -3.280  -2.624 -32.270  1.00  0.00     0.063 A 
HETATM   22  C   UNL     1      -4.907  -4.913 -34.546  1.00  0.00     0.117 A 
HETATM   23  C   UNL     1      -5.866  -4.147 -35.161  1.00  0.00     0.020 A 
HETATM   24 CL   UNL     1      -2.087  -3.640 -31.523  1.00  0.00    -0.082 Cl
HETATM   25  C   UNL     1      -3.337  -1.300 -31.841  1.00  0.00     0.028 A 
HETATM   26  C   UNL     1      -4.273  -0.435 -32.391  1.00  0.00     0.032 A 
ENDBRANCH   1  16
TORSDOF 1
ENDMDL
MODEL 6
REMARK VINA RESULT:      -8.0      4.606      6.936
REMARK  1 active torsions:
REMARK  status: ('A' for Active; 'I' for Inactive)
REMARK    1  A    between atoms: C_11  and  N_12 
REMARK       I    between atoms: N_12  and  C_13 
REMARK       I    between atoms: C_13  and  N_14 
ROOT
HETATM    1  N   UNL     1      -9.077   0.803 -33.213  1.00  0.00    -0.308 N 
HETATM    2  C   UNL     1      -8.409   0.947 -32.023  1.00  0.00     0.323 C 
HETATM    3  N   UNL     1      -7.364   0.025 -31.831  1.00  0.00    -0.332 N 
HETATM    4  C   UNL     1      -6.700   0.068 -30.529  1.00  0.00     0.160 C 
HETATM    5  C   UNL     1      -5.386   0.888 -30.528  1.00  0.00     0.204 C 
HETATM    6  N   UNL     1      -4.218  -0.028 -30.826  1.00  0.00    -0.069 N 
HETATM    7  H   UNL     1      -4.165  -0.768 -30.113  1.00  0.00     0.277 HD
HETATM    8  H   UNL     1      -3.354   0.520 -30.693  1.00  0.00     0.277 HD
HETATM    9  C   UNL     1      -4.189  -0.633 -32.191  1.00  0.00     0.239 C 
HETATM   10  C   UNL     1      -5.215   0.003 -33.131  1.00  0.00     0.029 C 
HETATM   11  C   UNL     1      -6.623  -0.600 -32.928  1.00  0.00     0.134 C 
HETATM   12  C   UNL     1      -5.313   2.028 -31.548  1.00  0.00     0.035 C 
HETATM   13  C   UNL     1      -5.199   1.535 -33.002  1.00  0.00     0.010 C 
HETATM   14  O   UNL     1      -8.639   1.798 -31.171  1.00  0.00    -0.247 OA
HETATM   15  H   UNL     1      -9.092  -0.139 -33.564  1.00  0.00     0.170 HD
ENDROOT
BRANCH   1  16
HETATM   16  C   UNL     1      -9.990   1.711 -33.820  1.00  0.00     0.049 A 
HETATM   17  C   UNL     1     -11.371   1.343 -33.959  1.00  0.00     0.021 A 
HETATM   18  C   UNL     1     -12.278   2.237 -34.585  1.00  0.00     0.090 A 
HETATM   19  C   UNL     1     -11.921   0.112 -33.515  1.00  0.00     0.017 A 
HETATM   20  N   UNL     1     -13.587   1.931 -34.746  1.00  0.00    -0.259 NA
HETATM   21  C   UNL     1     -11.786   3.461 -35.050  1.00  0.00     0.063 A 
HETATM   22  C   UNL     1     -14.058   0.750 -34.307  1.00  0.00     0.117 A 
HETATM   23  C   UNL     1     -13.268  -0.188 -33.690  1.00  0.00     0.020 A 
HETATM   24 CL   UNL     1     -12.831   4.610 -35.826  1.00  0.00    -0.082 Cl
HETATM   25  C   UNL     1     -10.444   3.813 -34.928  1.00  0.00     0.028 A 
HETATM   26  C   UNL     1      -9.551   2.938 -34.325  1.00  0.00     0.032 A 
ENDBRANCH   1  16
TORSDOF 1
ENDMDL
MODEL 7
REMARK VINA RESULT:      -7.9      2.098      2.676
REMARK  1 active torsions:
REMARK  status: ('A' for Active; 'I' for Inactive)
REMARK    1  A    between atoms: C_11  and  N_12 
REMARK       I    between atoms: N_12  and  C_13 
REMARK       I    between atoms: C_13  and  N_14 
ROOT
HETATM    1  N   UNL     1      -7.327   1.106 -32.822  1.00  0.00    -0.308 N 
HETATM    2  C   UNL     1      -6.918   2.396 -33.047  1.00  0.00     0.323 C 
HETATM    3  N   UNL     1      -7.523   3.350 -32.211  1.00  0.00    -0.332 N 
HETATM    4  C   UNL     1      -7.203   4.750 -32.492  1.00  0.00     0.160 C 
HETATM    5  C   UNL     1      -6.078   5.323 -31.596  1.00  0.00     0.204 C 
HETATM    6  N   UNL     1      -6.687   5.959 -30.364  1.00  0.00    -0.069 N 
HETATM    7  H   UNL     1      -7.327   6.715 -30.645  1.00  0.00     0.277 HD
HETATM    8  H   UNL     1      -5.928   6.439 -29.857  1.00  0.00     0.277 HD
HETATM    9  C   UNL     1      -7.377   5.032 -29.418  1.00  0.00     0.239 C 
HETATM   10  C   UNL     1      -7.105   3.562 -29.742  1.00  0.00     0.029 C 
HETATM   11  C   UNL     1      -8.027   3.048 -30.870  1.00  0.00     0.134 C 
HETATM   12  C   UNL     1      -5.046   4.308 -31.092  1.00  0.00     0.035 C 
HETATM   13  C   UNL     1      -5.614   3.335 -30.044  1.00  0.00     0.010 C 
HETATM   14  O   UNL     1      -6.085   2.749 -33.876  1.00  0.00    -0.247 OA
HETATM   15  H   UNL     1      -8.266   1.028 -32.476  1.00  0.00     0.170 HD
ENDROOT
BRANCH   1  16
HETATM   16  C   UNL     1      -6.735  -0.097 -33.301  1.00  0.00     0.049 A 
HETATM   17  C   UNL     1      -5.482  -0.538 -32.756  1.00  0.00     0.021 A 
HETATM   18  C   UNL     1      -4.878  -1.724 -33.250  1.00  0.00     0.090 A 
HETATM   19  C   UNL     1      -4.767   0.143 -31.737  1.00  0.00     0.017 A 
HETATM   20  N   UNL     1      -3.694  -2.175 -32.773  1.00  0.00    -0.259 NA
HETATM   21  C   UNL     1      -5.536  -2.430 -34.263  1.00  0.00     0.063 A 
HETATM   22  C   UNL     1      -3.057  -1.492 -31.805  1.00  0.00     0.117 A 
HETATM   23  C   UNL     1      -3.550  -0.333 -31.259  1.00  0.00     0.020 A 
HETATM   24 CL   UNL     1      -4.864  -3.890 -34.919  1.00  0.00    -0.082 Cl
HETATM   25  C   UNL     1      -6.745  -1.995 -34.801  1.00  0.00     0.028 A 
HETATM   26  C   UNL     1      -7.335  -0.831 -34.329  1.00  0.00     0.032 A 
ENDBRANCH   1  16
TORSDOF 1
ENDMDL
MODEL 8
REMARK VINA RESULT:      -7.7      6.280      9.742
REMARK  1 active torsions:
REMARK  status: ('A' for Active; 'I' for Inactive)
REMARK    1  A    between atoms: C_11  and  N_12 
REMARK       I    between atoms: N_12  and  C_13 
REMARK       I    between atoms: C_13  and  N_14 
ROOT
HETATM    1  N   UNL     1      -0.954   6.381 -29.148  1.00  0.00    -0.308 N 
HETATM    2  C   UNL     1      -0.564   6.042 -30.419  1.00  0.00     0.323 C 
HETATM    3  N   UNL     1      -1.576   5.456 -31.198  1.00  0.00    -0.332 N 
HETATM    4  C   UNL     1      -1.175   4.975 -32.520  1.00  0.00     0.160 C 
HETATM    5  C   UNL     1      -1.480   5.973 -33.664  1.00  0.00     0.204 C 
HETATM    6  N   UNL     1      -2.851   5.680 -34.238  1.00  0.00    -0.069 N 
HETATM    7  H   UNL     1      -2.877   4.717 -34.601  1.00  0.00     0.277 HD
HETATM    8  H   UNL     1      -2.969   6.273 -35.073  1.00  0.00     0.277 HD
HETATM    9  C   UNL     1      -4.009   5.911 -33.324  1.00  0.00     0.239 C 
HETATM   10  C   UNL     1      -3.607   6.663 -32.054  1.00  0.00     0.029 C 
HETATM   11  C   UNL     1      -3.003   5.711 -30.997  1.00  0.00     0.134 C 
HETATM   12  C   UNL     1      -1.484   7.453 -33.272  1.00  0.00     0.035 C 
HETATM   13  C   UNL     1      -2.681   7.844 -32.387  1.00  0.00     0.010 C 
HETATM   14  O   UNL     1       0.549   6.229 -30.901  1.00  0.00    -0.247 OA
HETATM   15  H   UNL     1      -1.678   5.795 -28.772  1.00  0.00     0.170 HD
ENDROOT
BRANCH   1  16
HETATM   16  C   UNL     1      -0.269   7.207 -28.213  1.00  0.00     0.049 A 
HETATM   17  C   UNL     1      -0.666   8.578 -28.054  1.00  0.00     0.021 A 
HETATM   18  C   UNL     1       0.031   9.412 -27.140  1.00  0.00     0.090 A 
HETATM   19  C   UNL     1      -1.727   9.194 -28.768  1.00  0.00     0.017 A 
HETATM   20  N   UNL     1      -0.301  10.712 -26.962  1.00  0.00    -0.259 NA
HETATM   21  C   UNL     1       1.093   8.858 -26.417  1.00  0.00     0.063 A 
HETATM   22  C   UNL     1      -1.317  11.246 -27.664  1.00  0.00     0.117 A 
HETATM   23  C   UNL     1      -2.054  10.532 -28.575  1.00  0.00     0.020 A 
HETATM   24 CL   UNL     1       1.994   9.809 -25.279  1.00  0.00    -0.082 Cl
HETATM   25  C   UNL     1       1.487   7.532 -26.580  1.00  0.00     0.028 A 
HETATM   26  C   UNL     1       0.815   6.716 -27.479  1.00  0.00     0.032 A 
ENDBRANCH   1  16
TORSDOF 1
ENDMDL
MODEL 9
REMARK VINA RESULT:      -7.6     16.614     17.780
REMARK  1 active torsions:
REMARK  status: ('A' for Active; 'I' for Inactive)
REMARK    1  A    between atoms: C_11  and  N_12 
REMARK       I    between atoms: N_12  and  C_13 
REMARK       I    between atoms: C_13  and  N_14 
ROOT
HETATM    1  N   UNL     1      -3.855 -12.962 -39.937  1.00  0.00    -0.308 N 
HETATM    2  C   UNL     1      -3.148 -14.013 -40.464  1.00  0.00     0.323 C 
HETATM    3  N   UNL     1      -1.762 -13.951 -40.235  1.00  0.00    -0.332 N 
HETATM    4  C   UNL     1      -0.956 -14.989 -40.877  1.00  0.00     0.160 C 
HETATM    5  C   UNL     1      -0.613 -16.176 -39.943  1.00  0.00     0.204 C 
HETATM    6  N   UNL     1       0.710 -15.911 -39.254  1.00  0.00    -0.069 N 
HETATM    7  H   UNL     1       1.452 -15.797 -39.958  1.00  0.00     0.277 HD
HETATM    8  H   UNL     1       0.969 -16.768 -38.742  1.00  0.00     0.277 HD
HETATM    9  C   UNL     1       0.735 -14.763 -38.299  1.00  0.00     0.239 C 
HETATM   10  C   UNL     1      -0.666 -14.231 -37.992  1.00  0.00     0.029 C 
HETATM   11  C   UNL     1      -1.160 -13.264 -39.092  1.00  0.00     0.134 C 
HETATM   12  C   UNL     1      -1.627 -16.463 -38.832  1.00  0.00     0.035 C 
HETATM   13  C   UNL     1      -1.646 -15.386 -37.733  1.00  0.00     0.010 C 
HETATM   14  O   UNL     1      -3.626 -14.965 -41.073  1.00  0.00    -0.247 OA
HETATM   15  H   UNL     1      -3.336 -12.103 -39.886  1.00  0.00     0.170 HD
ENDROOT
BRANCH   1  16
HETATM   16  C   UNL     1      -5.264 -12.853 -39.767  1.00  0.00     0.049 A 
HETATM   17  C   UNL     1      -5.847 -13.129 -38.484  1.00  0.00     0.021 A 
HETATM   18  C   UNL     1      -7.255 -13.044 -38.317  1.00  0.00     0.090 A 
HETATM   19  C   UNL     1      -5.109 -13.504 -37.331  1.00  0.00     0.017 A 
HETATM   20  N   UNL     1      -7.850 -13.304 -37.130  1.00  0.00    -0.259 NA
HETATM   21  C   UNL     1      -8.032 -12.689 -39.425  1.00  0.00     0.063 A 
HETATM   22  C   UNL     1      -7.103 -13.654 -36.067  1.00  0.00     0.117 A 
HETATM   23  C   UNL     1      -5.736 -13.769 -36.118  1.00  0.00     0.020 A 
HETATM   24 CL   UNL     1      -9.759 -12.562 -39.303  1.00  0.00    -0.082 Cl
HETATM   25  C   UNL     1      -7.468 -12.434 -40.672  1.00  0.00     0.028 A 
HETATM   26  C   UNL     1      -6.094 -12.524 -40.843  1.00  0.00     0.032 A 
ENDBRANCH   1  16
TORSDOF 1
ENDMDL
MODEL 10
REMARK VINA RESULT:      -7.5      2.044      2.590
REMARK  1 active torsions:
REMARK  status: ('A' for Active; 'I' for Inactive)
REMARK    1  A    between atoms: C_11  and  N_12 
REMARK       I    between atoms: N_12  and  C_13 
REMARK       I    between atoms: C_13  and  N_14 
ROOT
HETATM    1  N   UNL     1      -5.596   3.908 -31.467  1.00  0.00    -0.308 N 
HETATM    2  C   UNL     1      -5.262   5.003 -32.224  1.00  0.00     0.323 C 
HETATM    3  N   UNL     1      -4.045   5.606 -31.864  1.00  0.00    -0.332 N 
HETATM    4  C   UNL     1      -3.706   6.843 -32.569  1.00  0.00     0.160 C 
HETATM    5  C   UNL     1      -2.743   6.634 -33.764  1.00  0.00     0.204 C 
HETATM    6  N   UNL     1      -1.312   6.792 -33.294  1.00  0.00    -0.069 N 
HETATM    7  H   UNL     1      -1.177   7.733 -32.900  1.00  0.00     0.277 HD
HETATM    8  H   UNL     1      -0.709   6.773 -34.130  1.00  0.00     0.277 HD
HETATM    9  C   UNL     1      -0.819   5.761 -32.331  1.00  0.00     0.239 C 
HETATM   10  C   UNL     1      -1.778   4.577 -32.206  1.00  0.00     0.029 C 
HETATM   11  C   UNL     1      -2.939   4.885 -31.233  1.00  0.00     0.134 C 
HETATM   12  C   UNL     1      -2.824   5.268 -34.452  1.00  0.00     0.035 C 
HETATM   13  C   UNL     1      -2.269   4.120 -33.590  1.00  0.00     0.010 C 
HETATM   14  O   UNL     1      -5.915   5.452 -33.161  1.00  0.00    -0.247 OA
HETATM   15  H   UNL     1      -5.245   3.938 -30.526  1.00  0.00     0.170 HD
ENDROOT
BRANCH   1  16
HETATM   16  C   UNL     1      -6.603   2.937 -31.729  1.00  0.00     0.049 A 
HETATM   17  C   UNL     1      -6.230   1.649 -32.245  1.00  0.00     0.021 A 
HETATM   18  C   UNL     1      -7.234   0.687 -32.529  1.00  0.00     0.090 A 
HETATM   19  C   UNL     1      -4.895   1.250 -32.515  1.00  0.00     0.017 A 
HETATM   20  N   UNL     1      -6.933  -0.536 -33.025  1.00  0.00    -0.259 NA
HETATM   21  C   UNL     1      -8.569   1.034 -32.291  1.00  0.00     0.063 A 
HETATM   22  C   UNL     1      -5.650  -0.865 -33.262  1.00  0.00     0.117 A 
HETATM   23  C   UNL     1      -4.602  -0.010 -33.026  1.00  0.00     0.020 A 
HETATM   24 CL   UNL     1      -9.855  -0.087 -32.612  1.00  0.00    -0.082 Cl
HETATM   25  C   UNL     1      -8.932   2.286 -31.803  1.00  0.00     0.028 A 
HETATM   26  C   UNL     1      -7.955   3.233 -31.532  1.00  0.00     0.032 A 
ENDBRANCH   1  16
TORSDOF 1
ENDMDL
