MODEL 1
REMARK VINA RESULT:      -9.2      0.000      0.000
REMARK  5 active torsions:
REMARK  status: ('A' for Active; 'I' for Inactive)
REMARK    1  A    between atoms: C_2  and  C_3 
REMARK    2  A    between atoms: C_5  and  C_6 
REMARK    3  A    between atoms: C_6  and  C_7 
REMARK       I    between atoms: C_7  and  N_8 
REMARK    4  A    between atoms: N_8  and  C_9 
REMARK    5  A    between atoms: C_16  and  C_17 
REMARK       I    between atoms: C_17  and  N_18 
ROOT
HETATM    1  C   UNL     1     -10.303   2.404 -33.965  1.00  0.00     0.035 A 
HETATM    2  C   UNL     1     -11.489   1.660 -34.084  1.00  0.00     0.046 A 
HETATM    3  C   UNL     1     -12.667   2.120 -33.462  1.00  0.00     0.030 A 
HETATM    4  C   UNL     1     -12.621   3.300 -32.733  1.00  0.00     0.063 A 
HETATM    5  N   UNL     1     -13.885   3.471 -32.239  1.00  0.00    -0.277 N 
HETATM    6  H   UNL     1     -14.214   4.225 -31.649  1.00  0.00     0.189 HD
HETATM    7  N   UNL     1     -14.756   2.513 -32.601  1.00  0.00    -0.168 NA
HETATM    8  C   UNL     1     -14.017   1.673 -33.360  1.00  0.00     0.156 A 
HETATM    9  C   UNL     1     -11.462   4.066 -32.600  1.00  0.00     0.034 A 
HETATM   10  C   UNL     1     -10.305   3.595 -33.236  1.00  0.00     0.032 A 
ENDROOT
BRANCH   1  11
HETATM   11  N   UNL     1      -9.149   1.853 -34.558  1.00  0.00    -0.327 N 
HETATM   12  C   UNL     1      -8.456   0.721 -34.159  1.00  0.00     0.226 C 
HETATM   13  O   UNL     1      -8.590   0.121 -33.097  1.00  0.00    -0.273 OA
HETATM   14  H   UNL     1      -8.837   2.297 -35.414  1.00  0.00     0.169 HD
BRANCH  12  15
HETATM   15  C   UNL     1      -7.463   0.242 -35.211  1.00  0.00     0.141 C 
BRANCH  15  16
HETATM   16  C   UNL     1      -6.369  -0.620 -34.622  1.00  0.00    -0.049 A 
HETATM   17  C   UNL     1      -6.345  -2.003 -34.864  1.00  0.00     0.014 A 
HETATM   18  C   UNL     1      -5.320  -2.810 -34.354  1.00  0.00    -0.058 A 
HETATM   19  C   UNL     1      -4.318  -2.221 -33.574  1.00  0.00     0.007 A 
HETATM   20  C   UNL     1      -4.348  -0.853 -33.304  1.00  0.00     0.001 A 
HETATM   21  C   UNL     1      -5.368  -0.054 -33.821  1.00  0.00     0.007 A 
BRANCH  18  22
HETATM   22  C   UNL     1      -5.279  -4.282 -34.677  1.00  0.00     0.034 C 
HETATM   23  C   UNL     1      -6.484  -4.715 -35.499  1.00  0.00     0.010 C 
ENDBRANCH  18  22
ENDBRANCH  15  16
ENDBRANCH  12  15
ENDBRANCH   1  11
BRANCH   8  24
HETATM   24  C   UNL     1     -14.605   0.475 -33.974  1.00  0.00     0.270 C 
HETATM   25  N   UNL     1     -14.068  -0.701 -33.529  1.00  0.00    -0.365 N 
HETATM   26  H   UNL     1     -13.339  -0.666 -32.827  1.00  0.00     0.159 HD
HETATM   27  H   UNL     1     -14.422  -1.579 -33.877  1.00  0.00     0.159 HD
HETATM   28  O   UNL     1     -15.503   0.493 -34.810  1.00  0.00    -0.266 OA
ENDBRANCH   8  24
TORSDOF 5
ENDMDL
MODEL 2
REMARK VINA RESULT:      -8.9      1.791      2.627
REMARK  5 active torsions:
REMARK  status: ('A' for Active; 'I' for Inactive)
REMARK    1  A    between atoms: C_2  and  C_3 
REMARK    2  A    between atoms: C_5  and  C_6 
REMARK    3  A    between atoms: C_6  and  C_7 
REMARK       I    between atoms: C_7  and  N_8 
REMARK    4  A    between atoms: N_8  and  C_9 
REMARK    5  A    between atoms: C_16  and  C_17 
REMARK       I    between atoms: C_17  and  N_18 
ROOT
HETATM    1  C   UNL     1     -11.265   1.800 -34.297  1.00  0.00     0.035 A 
HETATM    2  C   UNL     1     -11.547   2.630 -33.199  1.00  0.00     0.046 A 
HETATM    3  C   UNL     1     -12.886   2.851 -32.816  1.00  0.00     0.030 A 
HETATM    4  C   UNL     1     -13.898   2.248 -33.548  1.00  0.00     0.063 A 
HETATM    5  N   UNL     1     -15.064   2.660 -32.963  1.00  0.00    -0.277 N 
HETATM    6  H   UNL     1     -16.007   2.424 -33.245  1.00  0.00     0.189 HD
HETATM    7  N   UNL     1     -14.896   3.466 -31.900  1.00  0.00    -0.168 NA
HETATM    8  C   UNL     1     -13.554   3.589 -31.795  1.00  0.00     0.156 A 
HETATM    9  C   UNL     1     -13.653   1.414 -34.640  1.00  0.00     0.034 A 
HETATM   10  C   UNL     1     -12.314   1.198 -34.995  1.00  0.00     0.032 A 
ENDROOT
BRANCH   1  11
HETATM   11  N   UNL     1      -9.911   1.673 -34.663  1.00  0.00    -0.327 N 
HETATM   12  C   UNL     1      -9.014   0.700 -34.249  1.00  0.00     0.226 C 
HETATM   13  O   UNL     1      -9.174  -0.094 -33.327  1.00  0.00    -0.273 OA
HETATM   14  H   UNL     1      -9.579   2.326 -35.362  1.00  0.00     0.169 HD
BRANCH  12  15
HETATM   15  C   UNL     1      -7.742   0.683 -35.088  1.00  0.00     0.141 C 
BRANCH  15  16
HETATM   16  C   UNL     1      -6.664  -0.189 -34.483  1.00  0.00    -0.049 A 
HETATM   17  C   UNL     1      -6.528  -1.530 -34.879  1.00  0.00     0.014 A 
HETATM   18  C   UNL     1      -5.515  -2.341 -34.354  1.00  0.00    -0.058 A 
HETATM   19  C   UNL     1      -4.639  -1.803 -33.404  1.00  0.00     0.007 A 
HETATM   20  C   UNL     1      -4.783  -0.481 -32.982  1.00  0.00     0.001 A 
HETATM   21  C   UNL     1      -5.791   0.323 -33.515  1.00  0.00     0.007 A 
BRANCH  18  22
HETATM   22  C   UNL     1      -5.347  -3.759 -34.838  1.00  0.00     0.034 C 
HETATM   23  C   UNL     1      -6.687  -4.417 -35.136  1.00  0.00     0.010 C 
ENDBRANCH  18  22
ENDBRANCH  15  16
ENDBRANCH  12  15
ENDBRANCH   1  11
BRANCH   8  24
HETATM   24  C   UNL     1     -12.937   4.395 -30.734  1.00  0.00     0.270 C 
HETATM   25  N   UNL     1     -12.318   3.660 -29.761  1.00  0.00    -0.365 N 
HETATM   26  H   UNL     1     -12.318   2.650 -29.843  1.00  0.00     0.159 HD
HETATM   27  H   UNL     1     -11.848   4.126 -29.001  1.00  0.00     0.159 HD
HETATM   28  O   UNL     1     -12.952   5.622 -30.696  1.00  0.00    -0.266 OA
ENDBRANCH   8  24
TORSDOF 5
ENDMDL
MODEL 3
REMARK VINA RESULT:      -8.8      5.684      9.013
REMARK  5 active torsions:
REMARK  status: ('A' for Active; 'I' for Inactive)
REMARK    1  A    between atoms: C_2  and  C_3 
REMARK    2  A    between atoms: C_5  and  C_6 
REMARK    3  A    between atoms: C_6  and  C_7 
REMARK       I    between atoms: C_7  and  N_8 
REMARK    4  A    between atoms: N_8  and  C_9 
REMARK    5  A    between atoms: C_16  and  C_17 
REMARK       I    between atoms: C_17  and  N_18 
ROOT
HETATM    1  C   UNL     1      -3.915   3.199 -32.261  1.00  0.00     0.035 A 
HETATM    2  C   UNL     1      -2.693   3.567 -31.672  1.00  0.00     0.046 A 
HETATM    3  C   UNL     1      -2.061   4.765 -32.064  1.00  0.00     0.030 A 
HETATM    4  C   UNL     1      -2.662   5.550 -33.038  1.00  0.00     0.063 A 
HETATM    5  N   UNL     1      -1.819   6.611 -33.219  1.00  0.00    -0.277 N 
HETATM    6  H   UNL     1      -1.935   7.382 -33.867  1.00  0.00     0.189 HD
HETATM    7  N   UNL     1      -0.729   6.595 -32.431  1.00  0.00    -0.168 NA
HETATM    8  C   UNL     1      -0.868   5.461 -31.710  1.00  0.00     0.156 A 
HETATM    9  C   UNL     1      -3.877   5.217 -33.639  1.00  0.00     0.034 A 
HETATM   10  C   UNL     1      -4.494   4.028 -33.226  1.00  0.00     0.032 A 
ENDROOT
BRANCH   1  11
HETATM   11  N   UNL     1      -4.458   1.960 -31.869  1.00  0.00    -0.327 N 
HETATM   12  C   UNL     1      -5.490   1.740 -30.971  1.00  0.00     0.226 C 
HETATM   13  O   UNL     1      -5.969   2.561 -30.195  1.00  0.00    -0.273 OA
HETATM   14  H   UNL     1      -4.100   1.147 -32.356  1.00  0.00     0.169 HD
BRANCH  12  15
HETATM   15  C   UNL     1      -6.027   0.315 -31.035  1.00  0.00     0.141 C 
BRANCH  15  16
HETATM   16  C   UNL     1      -6.430  -0.087 -32.436  1.00  0.00    -0.049 A 
HETATM   17  C   UNL     1      -5.848  -1.208 -33.050  1.00  0.00     0.014 A 
HETATM   18  C   UNL     1      -6.235  -1.613 -34.334  1.00  0.00    -0.058 A 
HETATM   19  C   UNL     1      -7.205  -0.870 -35.016  1.00  0.00     0.007 A 
HETATM   20  C   UNL     1      -7.769   0.261 -34.427  1.00  0.00     0.001 A 
HETATM   21  C   UNL     1      -7.384   0.655 -33.145  1.00  0.00     0.007 A 
BRANCH  18  22
HETATM   22  C   UNL     1      -5.642  -2.856 -34.950  1.00  0.00     0.034 C 
HETATM   23  C   UNL     1      -6.641  -4.004 -34.980  1.00  0.00     0.010 C 
ENDBRANCH  18  22
ENDBRANCH  15  16
ENDBRANCH  12  15
ENDBRANCH   1  11
BRANCH   8  24
HETATM   24  C   UNL     1       0.124   5.066 -30.702  1.00  0.00     0.270 C 
HETATM   25  N   UNL     1      -0.257   5.316 -29.413  1.00  0.00    -0.365 N 
HETATM   26  H   UNL     1      -1.167   5.730 -29.248  1.00  0.00     0.159 HD
HETATM   27  H   UNL     1       0.350   5.059 -28.650  1.00  0.00     0.159 HD
HETATM   28  O   UNL     1       1.207   4.549 -30.960  1.00  0.00    -0.266 OA
ENDBRANCH   8  24
TORSDOF 5
ENDMDL
MODEL 4
REMARK VINA RESULT:      -8.2      1.880      3.340
REMARK  5 active torsions:
REMARK  status: ('A' for Active; 'I' for Inactive)
REMARK    1  A    between atoms: C_2  and  C_3 
REMARK    2  A    between atoms: C_5  and  C_6 
REMARK    3  A    between atoms: C_6  and  C_7 
REMARK       I    between atoms: C_7  and  N_8 
REMARK    4  A    between atoms: N_8  and  C_9 
REMARK    5  A    between atoms: C_16  and  C_17 
REMARK       I    between atoms: C_17  and  N_18 
ROOT
HETATM    1  C   UNL     1     -11.211   1.794 -34.239  1.00  0.00     0.035 A 
HETATM    2  C   UNL     1     -11.514   2.635 -33.155  1.00  0.00     0.046 A 
HETATM    3  C   UNL     1     -12.859   2.843 -32.786  1.00  0.00     0.030 A 
HETATM    4  C   UNL     1     -13.857   2.215 -33.518  1.00  0.00     0.063 A 
HETATM    5  N   UNL     1     -15.033   2.620 -32.949  1.00  0.00    -0.277 N 
HETATM    6  H   UNL     1     -15.971   2.367 -33.236  1.00  0.00     0.189 HD
HETATM    7  N   UNL     1     -14.885   3.443 -31.896  1.00  0.00    -0.168 NA
HETATM    8  C   UNL     1     -13.546   3.586 -31.782  1.00  0.00     0.156 A 
HETATM    9  C   UNL     1     -13.591   1.369 -34.596  1.00  0.00     0.034 A 
HETATM   10  C   UNL     1     -12.246   1.167 -34.937  1.00  0.00     0.032 A 
ENDROOT
BRANCH   1  11
HETATM   11  N   UNL     1      -9.852   1.681 -34.591  1.00  0.00    -0.327 N 
HETATM   12  C   UNL     1      -8.946   0.726 -34.157  1.00  0.00     0.226 C 
HETATM   13  O   UNL     1      -9.103  -0.058 -33.226  1.00  0.00    -0.273 OA
HETATM   14  H   UNL     1      -9.523   2.329 -35.297  1.00  0.00     0.169 HD
BRANCH  12  15
HETATM   15  C   UNL     1      -7.667   0.714 -34.984  1.00  0.00     0.141 C 
BRANCH  15  16
HETATM   16  C   UNL     1      -6.645  -0.268 -34.454  1.00  0.00    -0.049 A 
HETATM   17  C   UNL     1      -5.751   0.114 -33.440  1.00  0.00     0.014 A 
HETATM   18  C   UNL     1      -4.822  -0.793 -32.916  1.00  0.00    -0.058 A 
HETATM   19  C   UNL     1      -4.778  -2.094 -33.431  1.00  0.00     0.007 A 
HETATM   20  C   UNL     1      -5.642  -2.474 -34.457  1.00  0.00     0.001 A 
HETATM   21  C   UNL     1      -6.570  -1.568 -34.970  1.00  0.00     0.007 A 
BRANCH  18  22
HETATM   22  C   UNL     1      -3.913  -0.382 -31.785  1.00  0.00     0.034 C 
HETATM   23  C   UNL     1      -3.418   1.048 -31.948  1.00  0.00     0.010 C 
ENDBRANCH  18  22
ENDBRANCH  15  16
ENDBRANCH  12  15
ENDBRANCH   1  11
BRANCH   8  24
HETATM   24  C   UNL     1     -12.949   4.415 -30.727  1.00  0.00     0.270 C 
HETATM   25  N   UNL     1     -12.280   3.706 -29.770  1.00  0.00    -0.365 N 
HETATM   26  H   UNL     1     -12.233   2.698 -29.857  1.00  0.00     0.159 HD
HETATM   27  H   UNL     1     -11.818   4.190 -29.015  1.00  0.00     0.159 HD
HETATM   28  O   UNL     1     -13.022   5.640 -30.683  1.00  0.00    -0.266 OA
ENDBRANCH   8  24
TORSDOF 5
ENDMDL
MODEL 5
REMARK VINA RESULT:      -8.2      1.883      3.160
REMARK  5 active torsions:
REMARK  status: ('A' for Active; 'I' for Inactive)
REMARK    1  A    between atoms: C_2  and  C_3 
REMARK    2  A    between atoms: C_5  and  C_6 
REMARK    3  A    between atoms: C_6  and  C_7 
REMARK       I    between atoms: C_7  and  N_8 
REMARK    4  A    between atoms: N_8  and  C_9 
REMARK    5  A    between atoms: C_16  and  C_17 
REMARK       I    between atoms: C_17  and  N_18 
ROOT
HETATM    1  C   UNL     1      -8.842   0.480 -33.279  1.00  0.00     0.035 A 
HETATM    2  C   UNL     1     -10.081   0.796 -33.861  1.00  0.00     0.046 A 
HETATM    3  C   UNL     1     -10.872   1.823 -33.306  1.00  0.00     0.030 A 
HETATM    4  C   UNL     1     -10.407   2.492 -32.183  1.00  0.00     0.063 A 
HETATM    5  N   UNL     1     -11.383   3.397 -31.870  1.00  0.00    -0.277 N 
HETATM    6  H   UNL     1     -11.386   4.050 -31.096  1.00  0.00     0.189 HD
HETATM    7  N   UNL     1     -12.436   3.388 -32.706  1.00  0.00    -0.168 NA
HETATM    8  C   UNL     1     -12.132   2.422 -33.601  1.00  0.00     0.156 A 
HETATM    9  C   UNL     1      -9.179   2.207 -31.584  1.00  0.00     0.034 A 
HETATM   10  C   UNL     1      -8.404   1.191 -32.159  1.00  0.00     0.032 A 
ENDROOT
BRANCH   1  11
HETATM   11  N   UNL     1      -8.134  -0.598 -33.846  1.00  0.00    -0.327 N 
HETATM   12  C   UNL     1      -7.152  -0.539 -34.823  1.00  0.00     0.226 C 
HETATM   13  O   UNL     1      -6.877   0.431 -35.523  1.00  0.00    -0.273 OA
HETATM   14  H   UNL     1      -8.314  -1.508 -33.439  1.00  0.00     0.169 HD
BRANCH  12  15
HETATM   15  C   UNL     1      -6.384  -1.848 -34.959  1.00  0.00     0.141 C 
BRANCH  15  16
HETATM   16  C   UNL     1      -5.282  -1.980 -33.931  1.00  0.00    -0.049 A 
HETATM   17  C   UNL     1      -5.040  -0.947 -33.011  1.00  0.00     0.014 A 
HETATM   18  C   UNL     1      -4.046  -1.068 -32.032  1.00  0.00    -0.058 A 
HETATM   19  C   UNL     1      -3.273  -2.235 -31.990  1.00  0.00     0.007 A 
HETATM   20  C   UNL     1      -3.486  -3.255 -32.917  1.00  0.00     0.001 A 
HETATM   21  C   UNL     1      -4.483  -3.130 -33.885  1.00  0.00     0.007 A 
BRANCH  18  22
HETATM   22  C   UNL     1      -3.844   0.026 -31.014  1.00  0.00     0.034 C 
HETATM   23  C   UNL     1      -3.484   1.351 -31.672  1.00  0.00     0.010 C 
ENDBRANCH  18  22
ENDBRANCH  15  16
ENDBRANCH  12  15
ENDBRANCH   1  11
BRANCH   8  24
HETATM   24  C   UNL     1     -13.034   2.093 -34.712  1.00  0.00     0.270 C 
HETATM   25  N   UNL     1     -14.285   1.707 -34.321  1.00  0.00    -0.365 N 
HETATM   26  H   UNL     1     -14.499   1.686 -33.331  1.00  0.00     0.159 HD
HETATM   27  H   UNL     1     -14.982   1.481 -35.014  1.00  0.00     0.159 HD
HETATM   28  O   UNL     1     -12.725   2.155 -35.898  1.00  0.00    -0.266 OA
ENDBRANCH   8  24
TORSDOF 5
ENDMDL
MODEL 6
REMARK VINA RESULT:      -8.1      6.313      8.997
REMARK  5 active torsions:
REMARK  status: ('A' for Active; 'I' for Inactive)
REMARK    1  A    between atoms: C_2  and  C_3 
REMARK    2  A    between atoms: C_5  and  C_6 
REMARK    3  A    between atoms: C_6  and  C_7 
REMARK       I    between atoms: C_7  and  N_8 
REMARK    4  A    between atoms: N_8  and  C_9 
REMARK    5  A    between atoms: C_16  and  C_17 
REMARK       I    between atoms: C_17  and  N_18 
ROOT
HETATM    1  C   UNL     1      -3.140   4.129 -31.803  1.00  0.00     0.035 A 
HETATM    2  C   UNL     1      -3.243   5.400 -31.215  1.00  0.00     0.046 A 
HETATM    3  C   UNL     1      -2.639   6.511 -31.839  1.00  0.00     0.030 A 
HETATM    4  C   UNL     1      -1.943   6.314 -33.023  1.00  0.00     0.063 A 
HETATM    5  N   UNL     1      -1.459   7.545 -33.369  1.00  0.00    -0.277 N 
HETATM    6  H   UNL     1      -0.891   7.776 -34.175  1.00  0.00     0.189 HD
HETATM    7  N   UNL     1      -1.798   8.532 -32.520  1.00  0.00    -0.168 NA
HETATM    8  C   UNL     1      -2.531   7.907 -31.572  1.00  0.00     0.156 A 
HETATM    9  C   UNL     1      -1.826   5.066 -33.638  1.00  0.00     0.034 A 
HETATM   10  C   UNL     1      -2.445   3.978 -33.005  1.00  0.00     0.032 A 
ENDROOT
BRANCH   1  11
HETATM   11  N   UNL     1      -3.713   3.055 -31.094  1.00  0.00    -0.327 N 
HETATM   12  C   UNL     1      -5.033   2.633 -31.126  1.00  0.00     0.226 C 
HETATM   13  O   UNL     1      -5.983   3.246 -31.605  1.00  0.00    -0.273 OA
HETATM   14  H   UNL     1      -3.069   2.486 -30.557  1.00  0.00     0.169 HD
BRANCH  12  15
HETATM   15  C   UNL     1      -5.224   1.260 -30.495  1.00  0.00     0.141 C 
BRANCH  15  16
HETATM   16  C   UNL     1      -4.881   0.135 -31.446  1.00  0.00    -0.049 A 
HETATM   17  C   UNL     1      -5.755  -0.204 -32.492  1.00  0.00     0.014 A 
HETATM   18  C   UNL     1      -5.437  -1.220 -33.401  1.00  0.00    -0.058 A 
HETATM   19  C   UNL     1      -4.233  -1.918 -33.245  1.00  0.00     0.007 A 
HETATM   20  C   UNL     1      -3.371  -1.609 -32.193  1.00  0.00     0.001 A 
HETATM   21  C   UNL     1      -3.692  -0.590 -31.295  1.00  0.00     0.007 A 
BRANCH  18  22
HETATM   22  C   UNL     1      -6.360  -1.526 -34.554  1.00  0.00     0.034 C 
HETATM   23  C   UNL     1      -6.764  -2.994 -34.580  1.00  0.00     0.010 C 
ENDBRANCH  18  22
ENDBRANCH  15  16
ENDBRANCH  12  15
ENDBRANCH   1  11
BRANCH   8  24
HETATM   24  C   UNL     1      -3.113   8.643 -30.442  1.00  0.00     0.270 C 
HETATM   25  N   UNL     1      -2.476   8.434 -29.251  1.00  0.00    -0.365 N 
HETATM   26  H   UNL     1      -1.671   7.819 -29.233  1.00  0.00     0.159 HD
HETATM   27  H   UNL     1      -2.791   8.913 -28.421  1.00  0.00     0.159 HD
HETATM   28  O   UNL     1      -4.082   9.392 -30.528  1.00  0.00    -0.266 OA
ENDBRANCH   8  24
TORSDOF 5
ENDMDL
MODEL 7
REMARK VINA RESULT:      -8.0      6.018      9.541
REMARK  5 active torsions:
REMARK  status: ('A' for Active; 'I' for Inactive)
REMARK    1  A    between atoms: C_2  and  C_3 
REMARK    2  A    between atoms: C_5  and  C_6 
REMARK    3  A    between atoms: C_6  and  C_7 
REMARK       I    between atoms: C_7  and  N_8 
REMARK    4  A    between atoms: N_8  and  C_9 
REMARK    5  A    between atoms: C_16  and  C_17 
REMARK       I    between atoms: C_17  and  N_18 
ROOT
HETATM    1  C   UNL     1      -3.561   3.509 -32.386  1.00  0.00     0.035 A 
HETATM    2  C   UNL     1      -2.478   3.794 -31.538  1.00  0.00     0.046 A 
HETATM    3  C   UNL     1      -1.687   4.938 -31.774  1.00  0.00     0.030 A 
HETATM    4  C   UNL     1      -1.996   5.751 -32.855  1.00  0.00     0.063 A 
HETATM    5  N   UNL     1      -1.057   6.746 -32.840  1.00  0.00    -0.277 N 
HETATM    6  H   UNL     1      -0.968   7.514 -33.494  1.00  0.00     0.189 HD
HETATM    7  N   UNL     1      -0.174   6.660 -31.828  1.00  0.00    -0.168 NA
HETATM    8  C   UNL     1      -0.555   5.549 -31.160  1.00  0.00     0.156 A 
HETATM    9  C   UNL     1      -3.067   5.500 -33.713  1.00  0.00     0.034 A 
HETATM   10  C   UNL     1      -3.847   4.365 -33.453  1.00  0.00     0.032 A 
ENDROOT
BRANCH   1  11
HETATM   11  N   UNL     1      -4.268   2.318 -32.130  1.00  0.00    -0.327 N 
HETATM   12  C   UNL     1      -3.819   1.204 -31.439  1.00  0.00     0.226 C 
HETATM   13  O   UNL     1      -2.659   0.966 -31.115  1.00  0.00    -0.273 OA
HETATM   14  H   UNL     1      -5.238   2.308 -32.424  1.00  0.00     0.169 HD
BRANCH  12  15
HETATM   15  C   UNL     1      -4.947   0.246 -31.077  1.00  0.00     0.141 C 
BRANCH  15  16
HETATM   16  C   UNL     1      -5.688  -0.259 -32.295  1.00  0.00    -0.049 A 
HETATM   17  C   UNL     1      -6.986   0.197 -32.579  1.00  0.00     0.014 A 
HETATM   18  C   UNL     1      -7.673  -0.235 -33.720  1.00  0.00    -0.058 A 
HETATM   19  C   UNL     1      -7.054  -1.152 -34.577  1.00  0.00     0.007 A 
HETATM   20  C   UNL     1      -5.777  -1.634 -34.290  1.00  0.00     0.001 A 
HETATM   21  C   UNL     1      -5.096  -1.194 -33.155  1.00  0.00     0.007 A 
BRANCH  18  22
HETATM   22  C   UNL     1      -9.040   0.314 -34.038  1.00  0.00     0.034 C 
HETATM   23  C   UNL     1      -9.838   0.613 -32.777  1.00  0.00     0.010 C 
ENDBRANCH  18  22
ENDBRANCH  15  16
ENDBRANCH  12  15
ENDBRANCH   1  11
BRANCH   8  24
HETATM   24  C   UNL     1       0.156   5.095 -29.957  1.00  0.00     0.270 C 
HETATM   25  N   UNL     1      -0.280   5.675 -28.798  1.00  0.00    -0.365 N 
HETATM   26  H   UNL     1      -1.040   6.342 -28.846  1.00  0.00     0.159 HD
HETATM   27  H   UNL     1       0.134   5.411 -27.918  1.00  0.00     0.159 HD
HETATM   28  O   UNL     1       1.061   4.266 -29.957  1.00  0.00    -0.266 OA
ENDBRANCH   8  24
TORSDOF 5
ENDMDL
MODEL 8
REMARK VINA RESULT:      -7.9      3.150      4.345
REMARK  5 active torsions:
REMARK  status: ('A' for Active; 'I' for Inactive)
REMARK    1  A    between atoms: C_2  and  C_3 
REMARK    2  A    between atoms: C_5  and  C_6 
REMARK    3  A    between atoms: C_6  and  C_7 
REMARK       I    between atoms: C_7  and  N_8 
REMARK    4  A    between atoms: N_8  and  C_9 
REMARK    5  A    between atoms: C_16  and  C_17 
REMARK       I    between atoms: C_17  and  N_18 
ROOT
HETATM    1  C   UNL     1      -7.066   1.255 -32.730  1.00  0.00     0.035 A 
HETATM    2  C   UNL     1      -7.498   2.486 -33.249  1.00  0.00     0.046 A 
HETATM    3  C   UNL     1      -8.865   2.829 -33.189  1.00  0.00     0.030 A 
HETATM    4  C   UNL     1      -9.755   1.927 -32.623  1.00  0.00     0.063 A 
HETATM    5  N   UNL     1     -10.984   2.517 -32.728  1.00  0.00    -0.277 N 
HETATM    6  H   UNL     1     -11.874   2.137 -32.428  1.00  0.00     0.189 HD
HETATM    7  N   UNL     1     -10.968   3.736 -33.295  1.00  0.00    -0.168 NA
HETATM    8  C   UNL     1      -9.663   3.943 -33.582  1.00  0.00     0.156 A 
HETATM    9  C   UNL     1      -9.358   0.698 -32.093  1.00  0.00     0.034 A 
HETATM   10  C   UNL     1      -7.993   0.384 -32.153  1.00  0.00     0.032 A 
ENDROOT
BRANCH   1  11
HETATM   11  N   UNL     1      -5.699   0.950 -32.880  1.00  0.00    -0.327 N 
HETATM   12  C   UNL     1      -4.748   0.828 -31.879  1.00  0.00     0.226 C 
HETATM   13  O   UNL     1      -4.874   1.174 -30.708  1.00  0.00    -0.273 OA
HETATM   14  H   UNL     1      -5.397   0.725 -33.821  1.00  0.00     0.169 HD
BRANCH  12  15
HETATM   15  C   UNL     1      -3.461   0.178 -32.371  1.00  0.00     0.141 C 
BRANCH  15  16
HETATM   16  C   UNL     1      -3.646  -1.284 -32.712  1.00  0.00    -0.049 A 
HETATM   17  C   UNL     1      -4.448  -1.663 -33.802  1.00  0.00     0.014 A 
HETATM   18  C   UNL     1      -4.603  -3.010 -34.152  1.00  0.00    -0.058 A 
HETATM   19  C   UNL     1      -3.960  -3.989 -33.385  1.00  0.00     0.007 A 
HETATM   20  C   UNL     1      -3.185  -3.625 -32.284  1.00  0.00     0.001 A 
HETATM   21  C   UNL     1      -3.029  -2.280 -31.945  1.00  0.00     0.007 A 
BRANCH  18  22
HETATM   22  C   UNL     1      -5.418  -3.393 -35.362  1.00  0.00     0.034 C 
HETATM   23  C   UNL     1      -6.360  -4.551 -35.066  1.00  0.00     0.010 C 
ENDBRANCH  18  22
ENDBRANCH  15  16
ENDBRANCH  12  15
ENDBRANCH   1  11
BRANCH   8  24
HETATM   24  C   UNL     1      -9.203   5.186 -34.214  1.00  0.00     0.270 C 
HETATM   25  N   UNL     1      -8.319   5.904 -33.458  1.00  0.00    -0.365 N 
HETATM   26  H   UNL     1      -8.044   5.537 -32.555  1.00  0.00     0.159 HD
HETATM   27  H   UNL     1      -7.931   6.762 -33.817  1.00  0.00     0.159 HD
HETATM   28  O   UNL     1      -9.557   5.572 -35.324  1.00  0.00    -0.266 OA
ENDBRANCH   8  24
TORSDOF 5
ENDMDL
MODEL 9
REMARK VINA RESULT:      -7.9     15.183     18.732
REMARK  5 active torsions:
REMARK  status: ('A' for Active; 'I' for Inactive)
REMARK    1  A    between atoms: C_2  and  C_3 
REMARK    2  A    between atoms: C_5  and  C_6 
REMARK    3  A    between atoms: C_6  and  C_7 
REMARK       I    between atoms: C_7  and  N_8 
REMARK    4  A    between atoms: N_8  and  C_9 
REMARK    5  A    between atoms: C_16  and  C_17 
REMARK       I    between atoms: C_17  and  N_18 
ROOT
HETATM    1  C   UNL     1      -1.992 -14.369 -38.543  1.00  0.00     0.035 A 
HETATM    2  C   UNL     1      -1.018 -15.048 -37.792  1.00  0.00     0.046 A 
HETATM    3  C   UNL     1       0.275 -15.230 -38.326  1.00  0.00     0.030 A 
HETATM    4  C   UNL     1       0.547 -14.740 -39.595  1.00  0.00     0.063 A 
HETATM    5  N   UNL     1       1.848 -15.082 -39.844  1.00  0.00    -0.277 N 
HETATM    6  H   UNL     1       2.380 -14.896 -40.685  1.00  0.00     0.189 HD
HETATM    7  N   UNL     1       2.452 -15.737 -38.836  1.00  0.00    -0.168 NA
HETATM    8  C   UNL     1       1.491 -15.832 -37.890  1.00  0.00     0.156 A 
HETATM    9  C   UNL     1      -0.395 -14.057 -40.365  1.00  0.00     0.034 A 
HETATM   10  C   UNL     1      -1.669 -13.877 -39.809  1.00  0.00     0.032 A 
ENDROOT
BRANCH   1  11
HETATM   11  N   UNL     1      -3.278 -14.279 -37.975  1.00  0.00    -0.327 N 
HETATM   12  C   UNL     1      -3.925 -13.135 -37.533  1.00  0.00     0.226 C 
HETATM   13  O   UNL     1      -3.417 -12.033 -37.356  1.00  0.00    -0.273 OA
HETATM   14  H   UNL     1      -3.815 -15.138 -37.956  1.00  0.00     0.169 HD
BRANCH  12  15
HETATM   15  C   UNL     1      -5.411 -13.363 -37.284  1.00  0.00     0.141 C 
BRANCH  15  16
HETATM   16  C   UNL     1      -6.261 -12.994 -38.479  1.00  0.00    -0.049 A 
HETATM   17  C   UNL     1      -7.660 -13.099 -38.417  1.00  0.00     0.014 A 
HETATM   18  C   UNL     1      -8.463 -12.729 -39.503  1.00  0.00    -0.058 A 
HETATM   19  C   UNL     1      -7.850 -12.267 -40.674  1.00  0.00     0.007 A 
HETATM   20  C   UNL     1      -6.460 -12.186 -40.756  1.00  0.00     0.001 A 
HETATM   21  C   UNL     1      -5.667 -12.550 -39.667  1.00  0.00     0.007 A 
BRANCH  18  22
HETATM   22  C   UNL     1      -9.966 -12.791 -39.394  1.00  0.00     0.034 C 
HETATM   23  C   UNL     1     -10.641 -11.791 -40.323  1.00  0.00     0.010 C 
ENDBRANCH  18  22
ENDBRANCH  15  16
ENDBRANCH  12  15
ENDBRANCH   1  11
BRANCH   8  24
HETATM   24  C   UNL     1       1.747 -16.482 -36.598  1.00  0.00     0.270 C 
HETATM   25  N   UNL     1       0.860 -17.475 -36.287  1.00  0.00    -0.365 N 
HETATM   26  H   UNL     1       0.124 -17.692 -36.948  1.00  0.00     0.159 HD
HETATM   27  H   UNL     1       0.967 -17.994 -35.429  1.00  0.00     0.159 HD
HETATM   28  O   UNL     1       2.670 -16.189 -35.844  1.00  0.00    -0.266 OA
ENDBRANCH   8  24
TORSDOF 5
ENDMDL
MODEL 10
REMARK VINA RESULT:      -7.8      2.826      8.738
REMARK  5 active torsions:
REMARK  status: ('A' for Active; 'I' for Inactive)
REMARK    1  A    between atoms: C_2  and  C_3 
REMARK    2  A    between atoms: C_5  and  C_6 
REMARK    3  A    between atoms: C_6  and  C_7 
REMARK       I    between atoms: C_7  and  N_8 
REMARK    4  A    between atoms: N_8  and  C_9 
REMARK    5  A    between atoms: C_16  and  C_17 
REMARK       I    between atoms: C_17  and  N_18 
ROOT
HETATM    1  C   UNL     1      -7.577   0.375 -34.543  1.00  0.00     0.035 A 
HETATM    2  C   UNL     1      -6.708   1.111 -33.721  1.00  0.00     0.046 A 
HETATM    3  C   UNL     1      -5.493   0.536 -33.294  1.00  0.00     0.030 A 
HETATM    4  C   UNL     1      -5.192  -0.759 -33.692  1.00  0.00     0.063 A 
HETATM    5  N   UNL     1      -3.986  -1.044 -33.113  1.00  0.00    -0.277 N 
HETATM    6  H   UNL     1      -3.466  -1.911 -33.177  1.00  0.00     0.189 HD
HETATM    7  N   UNL     1      -3.467  -0.038 -32.388  1.00  0.00    -0.168 NA
HETATM    8  C   UNL     1      -4.387   0.947 -32.495  1.00  0.00     0.156 A 
HETATM    9  C   UNL     1      -6.030  -1.517 -34.512  1.00  0.00     0.034 A 
HETATM   10  C   UNL     1      -7.226  -0.920 -34.934  1.00  0.00     0.032 A 
ENDROOT
BRANCH   1  11
HETATM   11  N   UNL     1      -8.800   0.987 -34.880  1.00  0.00    -0.327 N 
HETATM   12  C   UNL     1      -9.912   1.147 -34.068  1.00  0.00     0.226 C 
HETATM   13  O   UNL     1     -10.113   0.598 -32.989  1.00  0.00    -0.273 OA
HETATM   14  H   UNL     1      -8.841   1.420 -35.795  1.00  0.00     0.169 HD
BRANCH  12  15
HETATM   15  C   UNL     1     -10.922   2.130 -34.648  1.00  0.00     0.141 C 
BRANCH  15  16
HETATM   16  C   UNL     1     -12.321   1.899 -34.121  1.00  0.00    -0.049 A 
HETATM   17  C   UNL     1     -12.841   2.714 -33.102  1.00  0.00     0.014 A 
HETATM   18  C   UNL     1     -14.145   2.535 -32.626  1.00  0.00    -0.058 A 
HETATM   19  C   UNL     1     -14.930   1.510 -33.168  1.00  0.00     0.007 A 
HETATM   20  C   UNL     1     -14.414   0.677 -34.160  1.00  0.00     0.001 A 
HETATM   21  C   UNL     1     -13.115   0.866 -34.634  1.00  0.00     0.007 A 
BRANCH  18  22
HETATM   22  C   UNL     1     -14.706   3.460 -31.575  1.00  0.00     0.034 C 
HETATM   23  C   UNL     1     -13.604   4.180 -30.809  1.00  0.00     0.010 C 
ENDBRANCH  18  22
ENDBRANCH  15  16
ENDBRANCH  12  15
ENDBRANCH   1  11
BRANCH   8  24
HETATM   24  C   UNL     1      -4.196   2.250 -31.845  1.00  0.00     0.270 C 
HETATM   25  N   UNL     1      -3.711   3.223 -32.674  1.00  0.00    -0.365 N 
HETATM   26  H   UNL     1      -3.535   2.989 -33.645  1.00  0.00     0.159 HD
HETATM   27  H   UNL     1      -3.567   4.157 -32.324  1.00  0.00     0.159 HD
HETATM   28  O   UNL     1      -4.445   2.480 -30.666  1.00  0.00    -0.266 OA
ENDBRANCH   8  24
TORSDOF 5
ENDMDL
