MODEL 1
REMARK VINA RESULT:      -7.9      0.000      0.000
REMARK  2 active torsions:
REMARK  status: ('A' for Active; 'I' for Inactive)
REMARK    1  A    between atoms: C_9  and  C_10 
REMARK       I    between atoms: C_10  and  N_11 
REMARK    2  A    between atoms: N_11  and  C_12 
ROOT
HETATM    1  C   UNL     1      -3.766   2.037 -31.634  1.00  0.00     0.276 C 
HETATM    2  N   UNL     1      -2.997   2.810 -32.477  1.00  0.00    -0.317 N 
HETATM    3  O   UNL     1      -4.563   2.460 -30.803  1.00  0.00    -0.266 OA
HETATM    4  H   UNL     1      -2.392   2.284 -33.112  1.00  0.00     0.169 HD
ENDROOT
BRANCH   1   5
HETATM    5  C   UNL     1      -3.537   0.595 -31.829  1.00  0.00     0.147 A 
HETATM    6  N   UNL     1      -2.628  -0.088 -31.102  1.00  0.00    -0.169 NA
HETATM    7  N   UNL     1      -2.729  -1.350 -31.564  1.00  0.00    -0.275 N 
HETATM    8  C   UNL     1      -3.655  -1.505 -32.555  1.00  0.00     0.086 A 
HETATM    9  H   UNL     1      -2.135  -2.070 -31.163  1.00  0.00     0.189 HD
HETATM   10  C   UNL     1      -3.908  -2.766 -33.168  1.00  0.00     0.103 A 
HETATM   11  C   UNL     1      -4.198  -0.258 -32.753  1.00  0.00     0.073 A 
HETATM   12  O   UNL     1      -3.256  -3.909 -32.782  1.00  0.00    -0.320 OA
HETATM   13  C   UNL     1      -4.786  -3.081 -34.191  1.00  0.00     0.041 A 
HETATM   14  C   UNL     1      -3.719  -4.927 -33.548  1.00  0.00     0.142 A 
HETATM   15  C   UNL     1      -4.664  -4.471 -34.434  1.00  0.00     0.027 A 
ENDBRANCH   1   5
BRANCH   2  16
HETATM   16  C   UNL     1      -2.928   4.180 -32.575  1.00  0.00     0.102 A 
HETATM   17  C   UNL     1      -1.846   4.859 -31.763  1.00  0.00     0.218 A 
HETATM   18  O   UNL     1      -1.090   4.179 -31.070  1.00  0.00    -0.284 OA
HETATM   19  C   UNL     1      -1.745   6.356 -31.843  1.00  0.00     0.078 A 
HETATM   20 BR   UNL     1      -0.435   7.243 -30.867  1.00  0.00    -0.045 Br
HETATM   21  C   UNL     1      -2.626   6.988 -32.633  1.00  0.00     0.111 A 
HETATM   22  N   UNL     1      -3.592   6.340 -33.355  1.00  0.00    -0.372 N 
HETATM   23  C   UNL     1      -3.721   4.975 -33.311  1.00  0.00     0.121 A 
HETATM   24  H   UNL     1      -4.233   6.877 -33.934  1.00  0.00     0.164 HD
ENDBRANCH   2  16
TORSDOF 2
ENDMDL
MODEL 2
REMARK VINA RESULT:      -7.6      1.853      2.009
REMARK  2 active torsions:
REMARK  status: ('A' for Active; 'I' for Inactive)
REMARK    1  A    between atoms: C_9  and  C_10 
REMARK       I    between atoms: C_10  and  N_11 
REMARK    2  A    between atoms: N_11  and  C_12 
ROOT
HETATM    1  C   UNL     1      -5.012   1.982 -32.628  1.00  0.00     0.276 C 
HETATM    2  N   UNL     1      -3.855   2.594 -32.197  1.00  0.00    -0.317 N 
HETATM    3  O   UNL     1      -6.115   2.513 -32.710  1.00  0.00    -0.266 OA
HETATM    4  H   UNL     1      -3.024   1.997 -32.202  1.00  0.00     0.169 HD
ENDROOT
BRANCH   1   5
HETATM    5  C   UNL     1      -4.798   0.573 -32.997  1.00  0.00     0.147 A 
HETATM    6  N   UNL     1      -3.615  -0.046 -32.801  1.00  0.00    -0.169 NA
HETATM    7  N   UNL     1      -3.827  -1.299 -33.249  1.00  0.00    -0.275 N 
HETATM    8  C   UNL     1      -5.088  -1.509 -33.729  1.00  0.00     0.086 A 
HETATM    9  H   UNL     1      -3.069  -1.973 -33.204  1.00  0.00     0.189 HD
HETATM   10  C   UNL     1      -5.504  -2.770 -34.244  1.00  0.00     0.103 A 
HETATM   11  C   UNL     1      -5.745  -0.311 -33.582  1.00  0.00     0.073 A 
HETATM   12  O   UNL     1      -4.672  -3.860 -34.266  1.00  0.00    -0.320 OA
HETATM   13  C   UNL     1      -6.725  -3.135 -34.784  1.00  0.00     0.041 A 
HETATM   14  C   UNL     1      -5.361  -4.895 -34.809  1.00  0.00     0.142 A 
HETATM   15  C   UNL     1      -6.632  -4.501 -35.146  1.00  0.00     0.027 A 
ENDBRANCH   1   5
BRANCH   2  16
HETATM   16  C   UNL     1      -3.668   3.884 -31.761  1.00  0.00     0.102 A 
HETATM   17  C   UNL     1      -2.735   4.744 -32.587  1.00  0.00     0.218 A 
HETATM   18  O   UNL     1      -2.199   4.270 -33.588  1.00  0.00    -0.284 OA
HETATM   19  C   UNL     1      -2.504   6.160 -32.138  1.00  0.00     0.078 A 
HETATM   20 BR   UNL     1      -1.368   7.261 -33.114  1.00  0.00    -0.045 Br
HETATM   21  C   UNL     1      -3.144   6.563 -31.030  1.00  0.00     0.111 A 
HETATM   22  N   UNL     1      -3.982   5.756 -30.307  1.00  0.00    -0.372 N 
HETATM   23  C   UNL     1      -4.222   4.459 -30.681  1.00  0.00     0.121 A 
HETATM   24  H   UNL     1      -4.436   6.121 -29.473  1.00  0.00     0.164 HD
ENDBRANCH   2  16
TORSDOF 2
ENDMDL
MODEL 3
REMARK VINA RESULT:      -7.5      6.525      7.434
REMARK  2 active torsions:
REMARK  status: ('A' for Active; 'I' for Inactive)
REMARK    1  A    between atoms: C_9  and  C_10 
REMARK       I    between atoms: C_10  and  N_11 
REMARK    2  A    between atoms: N_11  and  C_12 
ROOT
HETATM    1  C   UNL     1      -8.208   1.773 -34.032  1.00  0.00     0.276 C 
HETATM    2  N   UNL     1      -9.485   1.361 -34.349  1.00  0.00    -0.317 N 
HETATM    3  O   UNL     1      -7.876   2.920 -33.752  1.00  0.00    -0.266 OA
HETATM    4  H   UNL     1      -9.578   0.362 -34.547  1.00  0.00     0.169 HD
ENDROOT
BRANCH   1   5
HETATM    5  C   UNL     1      -7.237   0.667 -34.061  1.00  0.00     0.147 A 
HETATM    6  N   UNL     1      -5.941   0.845 -33.733  1.00  0.00    -0.169 NA
HETATM    7  N   UNL     1      -5.400  -0.381 -33.872  1.00  0.00    -0.275 N 
HETATM    8  C   UNL     1      -6.289  -1.335 -34.278  1.00  0.00     0.086 A 
HETATM    9  H   UNL     1      -4.413  -0.509 -33.675  1.00  0.00     0.189 HD
HETATM   10  C   UNL     1      -5.907  -2.692 -34.478  1.00  0.00     0.103 A 
HETATM   11  C   UNL     1      -7.493  -0.686 -34.413  1.00  0.00     0.073 A 
HETATM   12  O   UNL     1      -4.629  -3.133 -34.249  1.00  0.00    -0.320 OA
HETATM   13  C   UNL     1      -6.674  -3.763 -34.907  1.00  0.00     0.041 A 
HETATM   14  C   UNL     1      -4.593  -4.460 -34.526  1.00  0.00     0.142 A 
HETATM   15  C   UNL     1      -5.828  -4.898 -34.937  1.00  0.00     0.027 A 
ENDBRANCH   1   5
BRANCH   2  16
HETATM   16  C   UNL     1     -10.638   2.104 -34.437  1.00  0.00     0.102 A 
HETATM   17  C   UNL     1     -11.893   1.468 -33.878  1.00  0.00     0.218 A 
HETATM   18  O   UNL     1     -11.833   0.345 -33.378  1.00  0.00    -0.284 OA
HETATM   19  C   UNL     1     -13.173   2.249 -33.962  1.00  0.00     0.078 A 
HETATM   20 BR   UNL     1     -14.745   1.516 -33.291  1.00  0.00    -0.045 Br
HETATM   21  C   UNL     1     -13.113   3.464 -34.529  1.00  0.00     0.111 A 
HETATM   22  N   UNL     1     -11.959   4.009 -35.024  1.00  0.00    -0.372 N 
HETATM   23  C   UNL     1     -10.768   3.330 -34.969  1.00  0.00     0.121 A 
HETATM   24  H   UNL     1     -11.980   4.934 -35.446  1.00  0.00     0.164 HD
ENDBRANCH   2  16
TORSDOF 2
ENDMDL
MODEL 4
REMARK VINA RESULT:      -7.4      3.434      7.860
REMARK  2 active torsions:
REMARK  status: ('A' for Active; 'I' for Inactive)
REMARK    1  A    between atoms: C_9  and  C_10 
REMARK       I    between atoms: C_10  and  N_11 
REMARK    2  A    between atoms: N_11  and  C_12 
ROOT
HETATM    1  C   UNL     1      -5.177   0.919 -31.741  1.00  0.00     0.276 C 
HETATM    2  N   UNL     1      -4.734   0.420 -32.947  1.00  0.00    -0.317 N 
HETATM    3  O   UNL     1      -5.987   0.376 -30.996  1.00  0.00    -0.266 OA
HETATM    4  H   UNL     1      -4.050   1.007 -33.430  1.00  0.00     0.169 HD
ENDROOT
BRANCH   1   5
HETATM    5  C   UNL     1      -4.566   2.217 -31.410  1.00  0.00     0.147 A 
HETATM    6  N   UNL     1      -5.040   2.999 -30.418  1.00  0.00    -0.169 NA
HETATM    7  N   UNL     1      -4.219   4.067 -30.428  1.00  0.00    -0.275 N 
HETATM    8  C   UNL     1      -3.245   4.009 -31.383  1.00  0.00     0.086 A 
HETATM    9  H   UNL     1      -4.373   4.812 -29.755  1.00  0.00     0.189 HD
HETATM   10  C   UNL     1      -2.281   5.043 -31.547  1.00  0.00     0.103 A 
HETATM   11  C   UNL     1      -3.444   2.819 -32.042  1.00  0.00     0.073 A 
HETATM   12  O   UNL     1      -2.251   6.151 -30.739  1.00  0.00    -0.320 OA
HETATM   13  C   UNL     1      -1.256   5.145 -32.474  1.00  0.00     0.041 A 
HETATM   14  C   UNL     1      -1.224   6.934 -31.149  1.00  0.00     0.142 A 
HETATM   15  C   UNL     1      -0.578   6.361 -32.216  1.00  0.00     0.027 A 
ENDBRANCH   1   5
BRANCH   2  16
HETATM   16  C   UNL     1      -5.087  -0.745 -33.585  1.00  0.00     0.102 A 
HETATM   17  C   UNL     1      -4.218  -1.953 -33.307  1.00  0.00     0.218 A 
HETATM   18  O   UNL     1      -3.259  -1.849 -32.542  1.00  0.00    -0.284 OA
HETATM   19  C   UNL     1      -4.571  -3.244 -33.991  1.00  0.00     0.078 A 
HETATM   20 BR   UNL     1      -3.538  -4.759 -33.687  1.00  0.00    -0.045 Br
HETATM   21  C   UNL     1      -5.639  -3.233 -34.804  1.00  0.00     0.111 A 
HETATM   22  N   UNL     1      -6.404  -2.121 -35.031  1.00  0.00    -0.372 N 
HETATM   23  C   UNL     1      -6.117  -0.923 -34.428  1.00  0.00     0.121 A 
HETATM   24  H   UNL     1      -7.199  -2.177 -35.661  1.00  0.00     0.164 HD
ENDBRANCH   2  16
TORSDOF 2
ENDMDL
MODEL 5
REMARK VINA RESULT:      -7.3      2.129      2.376
REMARK  2 active torsions:
REMARK  status: ('A' for Active; 'I' for Inactive)
REMARK    1  A    between atoms: C_9  and  C_10 
REMARK       I    between atoms: C_10  and  N_11 
REMARK    2  A    between atoms: N_11  and  C_12 
ROOT
HETATM    1  C   UNL     1      -3.615   1.631 -32.073  1.00  0.00     0.276 C 
HETATM    2  N   UNL     1      -3.774   2.871 -32.654  1.00  0.00    -0.317 N 
HETATM    3  O   UNL     1      -2.827   1.359 -31.172  1.00  0.00    -0.266 OA
HETATM    4  H   UNL     1      -4.485   2.914 -33.388  1.00  0.00     0.169 HD
ENDROOT
BRANCH   1   5
HETATM    5  C   UNL     1      -4.511   0.619 -32.654  1.00  0.00     0.147 A 
HETATM    6  N   UNL     1      -5.830   0.847 -32.827  1.00  0.00    -0.169 NA
HETATM    7  N   UNL     1      -6.285  -0.293 -33.383  1.00  0.00    -0.275 N 
HETATM    8  C   UNL     1      -5.322  -1.242 -33.568  1.00  0.00     0.086 A 
HETATM    9  H   UNL     1      -7.271  -0.368 -33.615  1.00  0.00     0.189 HD
HETATM   10  C   UNL     1      -5.608  -2.512 -34.145  1.00  0.00     0.103 A 
HETATM   11  C   UNL     1      -4.156  -0.682 -33.103  1.00  0.00     0.073 A 
HETATM   12  O   UNL     1      -6.864  -2.852 -34.576  1.00  0.00    -0.320 OA
HETATM   13  C   UNL     1      -4.757  -3.580 -34.376  1.00  0.00     0.041 A 
HETATM   14  C   UNL     1      -6.804  -4.113 -35.072  1.00  0.00     0.142 A 
HETATM   15  C   UNL     1      -5.528  -4.608 -34.972  1.00  0.00     0.027 A 
ENDBRANCH   1   5
BRANCH   2  16
HETATM   16  C   UNL     1      -3.110   4.045 -32.386  1.00  0.00     0.102 A 
HETATM   17  C   UNL     1      -3.664   4.888 -31.257  1.00  0.00     0.218 A 
HETATM   18  O   UNL     1      -4.655   4.500 -30.639  1.00  0.00    -0.284 OA
HETATM   19  C   UNL     1      -2.966   6.181 -30.940  1.00  0.00     0.078 A 
HETATM   20 BR   UNL     1      -3.603   7.256 -29.564  1.00  0.00    -0.045 Br
HETATM   21  C   UNL     1      -1.896   6.497 -31.685  1.00  0.00     0.111 A 
HETATM   22  N   UNL     1      -1.422   5.709 -32.699  1.00  0.00    -0.372 N 
HETATM   23  C   UNL     1      -2.028   4.522 -33.022  1.00  0.00     0.121 A 
HETATM   24  H   UNL     1      -0.607   6.007 -33.229  1.00  0.00     0.164 HD
ENDBRANCH   2  16
TORSDOF 2
ENDMDL
MODEL 6
REMARK VINA RESULT:      -7.2      4.095      8.661
REMARK  2 active torsions:
REMARK  status: ('A' for Active; 'I' for Inactive)
REMARK    1  A    between atoms: C_9  and  C_10 
REMARK       I    between atoms: C_10  and  N_11 
REMARK    2  A    between atoms: N_11  and  C_12 
ROOT
HETATM    1  C   UNL     1      -1.629   4.637 -31.635  1.00  0.00     0.276 C 
HETATM    2  N   UNL     1      -2.729   3.956 -31.160  1.00  0.00    -0.317 N 
HETATM    3  O   UNL     1      -1.363   4.831 -32.817  1.00  0.00    -0.266 OA
HETATM    4  H   UNL     1      -2.793   3.898 -30.141  1.00  0.00     0.169 HD
ENDROOT
BRANCH   1   5
HETATM    5  C   UNL     1      -0.764   5.131 -30.551  1.00  0.00     0.147 A 
HETATM    6  N   UNL     1       0.215   4.372 -30.016  1.00  0.00    -0.169 NA
HETATM    7  N   UNL     1       0.771   5.172 -29.084  1.00  0.00    -0.275 N 
HETATM    8  C   UNL     1       0.191   6.404 -28.994  1.00  0.00     0.086 A 
HETATM    9  H   UNL     1       1.549   4.820 -28.535  1.00  0.00     0.189 HD
HETATM   10  C   UNL     1       0.641   7.390 -28.070  1.00  0.00     0.103 A 
HETATM   11  C   UNL     1      -0.813   6.410 -29.934  1.00  0.00     0.073 A 
HETATM   12  O   UNL     1       1.703   7.173 -27.231  1.00  0.00    -0.320 OA
HETATM   13  C   UNL     1       0.149   8.664 -27.841  1.00  0.00     0.041 A 
HETATM   14  C   UNL     1       1.878   8.294 -26.488  1.00  0.00     0.142 A 
HETATM   15  C   UNL     1       0.945   9.243 -26.824  1.00  0.00     0.027 A 
ENDBRANCH   1   5
BRANCH   2  16
HETATM   16  C   UNL     1      -3.741   3.346 -31.864  1.00  0.00     0.102 A 
HETATM   17  C   UNL     1      -3.758   1.833 -31.841  1.00  0.00     0.218 A 
HETATM   18  O   UNL     1      -2.893   1.225 -31.211  1.00  0.00    -0.284 OA
HETATM   19  C   UNL     1      -4.847   1.132 -32.603  1.00  0.00     0.078 A 
HETATM   20 BR   UNL     1      -4.917  -0.726 -32.611  1.00  0.00    -0.045 Br
HETATM   21  C   UNL     1      -5.733   1.903 -33.253  1.00  0.00     0.111 A 
HETATM   22  N   UNL     1      -5.688   3.271 -33.250  1.00  0.00    -0.372 N 
HETATM   23  C   UNL     1      -4.711   3.951 -32.568  1.00  0.00     0.121 A 
HETATM   24  H   UNL     1      -6.387   3.799 -33.765  1.00  0.00     0.164 HD
ENDBRANCH   2  16
TORSDOF 2
ENDMDL
MODEL 7
REMARK VINA RESULT:      -7.2      6.813      8.726
REMARK  2 active torsions:
REMARK  status: ('A' for Active; 'I' for Inactive)
REMARK    1  A    between atoms: C_9  and  C_10 
REMARK       I    between atoms: C_10  and  N_11 
REMARK    2  A    between atoms: N_11  and  C_12 
ROOT
HETATM    1  C   UNL     1      -8.188   0.768 -33.996  1.00  0.00     0.276 C 
HETATM    2  N   UNL     1      -7.878  -0.508 -33.577  1.00  0.00    -0.317 N 
HETATM    3  O   UNL     1      -7.456   1.504 -34.650  1.00  0.00    -0.266 OA
HETATM    4  H   UNL     1      -8.616  -0.978 -33.047  1.00  0.00     0.169 HD
ENDROOT
BRANCH   1   5
HETATM    5  C   UNL     1      -9.534   1.188 -33.571  1.00  0.00     0.147 A 
HETATM    6  N   UNL     1      -9.723   2.101 -32.596  1.00  0.00    -0.169 NA
HETATM    7  N   UNL     1     -11.063   2.215 -32.515  1.00  0.00    -0.275 N 
HETATM    8  C   UNL     1     -11.741   1.414 -33.389  1.00  0.00     0.086 A 
HETATM    9  H   UNL     1     -11.463   2.859 -31.840  1.00  0.00     0.189 HD
HETATM   10  C   UNL     1     -13.163   1.396 -33.456  1.00  0.00     0.103 A 
HETATM   11  C   UNL     1     -10.775   0.731 -34.089  1.00  0.00     0.073 A 
HETATM   12  O   UNL     1     -13.942   2.202 -32.666  1.00  0.00    -0.320 OA
HETATM   13  C   UNL     1     -13.991   0.631 -34.260  1.00  0.00     0.041 A 
HETATM   14  C   UNL     1     -15.239   1.951 -32.970  1.00  0.00     0.142 A 
HETATM   15  C   UNL     1     -15.325   0.989 -33.946  1.00  0.00     0.027 A 
ENDBRANCH   1   5
BRANCH   2  16
HETATM   16  C   UNL     1      -6.722  -1.226 -33.769  1.00  0.00     0.102 A 
HETATM   17  C   UNL     1      -5.584  -0.938 -32.813  1.00  0.00     0.218 A 
HETATM   18  O   UNL     1      -5.735  -0.099 -31.925  1.00  0.00    -0.284 OA
HETATM   19  C   UNL     1      -4.303  -1.702 -32.996  1.00  0.00     0.078 A 
HETATM   20 BR   UNL     1      -2.873  -1.388 -31.850  1.00  0.00    -0.045 Br
HETATM   21  C   UNL     1      -4.259  -2.591 -34.000  1.00  0.00     0.111 A 
HETATM   22  N   UNL     1      -5.309  -2.826 -34.846  1.00  0.00    -0.372 N 
HETATM   23  C   UNL     1      -6.496  -2.151 -34.715  1.00  0.00     0.121 A 
HETATM   24  H   UNL     1      -5.211  -3.511 -35.591  1.00  0.00     0.164 HD
ENDBRANCH   2  16
TORSDOF 2
ENDMDL
MODEL 8
REMARK VINA RESULT:      -7.1      5.611      6.371
REMARK  2 active torsions:
REMARK  status: ('A' for Active; 'I' for Inactive)
REMARK    1  A    between atoms: C_9  and  C_10 
REMARK       I    between atoms: C_10  and  N_11 
REMARK    2  A    between atoms: N_11  and  C_12 
ROOT
HETATM    1  C   UNL     1      -7.375   1.984 -32.607  1.00  0.00     0.276 C 
HETATM    2  N   UNL     1      -8.653   1.674 -32.195  1.00  0.00    -0.317 N 
HETATM    3  O   UNL     1      -6.892   3.111 -32.651  1.00  0.00    -0.266 OA
HETATM    4  H   UNL     1      -8.882   0.677 -32.217  1.00  0.00     0.169 HD
ENDROOT
BRANCH   1   5
HETATM    5  C   UNL     1      -6.608   0.793 -33.007  1.00  0.00     0.147 A 
HETATM    6  N   UNL     1      -5.263   0.744 -32.912  1.00  0.00    -0.169 NA
HETATM    7  N   UNL     1      -4.953  -0.491 -33.355  1.00  0.00    -0.275 N 
HETATM    8  C   UNL     1      -6.035  -1.232 -33.734  1.00  0.00     0.086 A 
HETATM    9  H   UNL     1      -3.979  -0.775 -33.378  1.00  0.00     0.189 HD
HETATM   10  C   UNL     1      -5.910  -2.562 -34.227  1.00  0.00     0.103 A 
HETATM   11  C   UNL     1      -7.128  -0.425 -33.522  1.00  0.00     0.073 A 
HETATM   12  O   UNL     1      -4.697  -3.193 -34.327  1.00  0.00    -0.320 OA
HETATM   13  C   UNL     1      -6.896  -3.427 -34.670  1.00  0.00     0.041 A 
HETATM   14  C   UNL     1      -4.916  -4.435 -34.822  1.00  0.00     0.142 A 
HETATM   15  C   UNL     1      -6.256  -4.631 -35.052  1.00  0.00     0.027 A 
ENDBRANCH   1   5
BRANCH   2  16
HETATM   16  C   UNL     1      -9.654   2.514 -31.767  1.00  0.00     0.102 A 
HETATM   17  C   UNL     1     -10.684   2.914 -32.801  1.00  0.00     0.218 A 
HETATM   18  O   UNL     1     -10.591   2.482 -33.950  1.00  0.00    -0.284 OA
HETATM   19  C   UNL     1     -11.790   3.835 -32.370  1.00  0.00     0.078 A 
HETATM   20 BR   UNL     1     -13.083   4.359 -33.598  1.00  0.00    -0.045 Br
HETATM   21  C   UNL     1     -11.786   4.239 -31.090  1.00  0.00     0.111 A 
HETATM   22  N   UNL     1     -10.837   3.856 -30.181  1.00  0.00    -0.372 N 
HETATM   23  C   UNL     1      -9.810   3.017 -30.532  1.00  0.00     0.121 A 
HETATM   24  H   UNL     1     -10.887   4.200 -29.226  1.00  0.00     0.164 HD
ENDBRANCH   2  16
TORSDOF 2
ENDMDL
MODEL 9
REMARK VINA RESULT:      -7.0      5.006      7.775
REMARK  2 active torsions:
REMARK  status: ('A' for Active; 'I' for Inactive)
REMARK    1  A    between atoms: C_9  and  C_10 
REMARK       I    between atoms: C_10  and  N_11 
REMARK    2  A    between atoms: N_11  and  C_12 
ROOT
HETATM    1  C   UNL     1      -5.602   3.637 -33.484  1.00  0.00     0.276 C 
HETATM    2  N   UNL     1      -6.492   2.728 -32.955  1.00  0.00    -0.317 N 
HETATM    3  O   UNL     1      -5.772   4.292 -34.507  1.00  0.00    -0.266 OA
HETATM    4  H   UNL     1      -6.185   2.278 -32.089  1.00  0.00     0.169 HD
ENDROOT
BRANCH   1   5
HETATM    5  C   UNL     1      -4.375   3.756 -32.679  1.00  0.00     0.147 A 
HETATM    6  N   UNL     1      -4.035   2.833 -31.755  1.00  0.00    -0.169 NA
HETATM    7  N   UNL     1      -2.868   3.290 -31.257  1.00  0.00    -0.275 N 
HETATM    8  C   UNL     1      -2.449   4.464 -31.815  1.00  0.00     0.086 A 
HETATM    9  H   UNL     1      -2.400   2.756 -30.532  1.00  0.00     0.189 HD
HETATM   10  C   UNL     1      -1.239   5.102 -31.423  1.00  0.00     0.103 A 
HETATM   11  C   UNL     1      -3.408   4.795 -32.743  1.00  0.00     0.073 A 
HETATM   12  O   UNL     1      -0.402   4.564 -30.478  1.00  0.00    -0.320 OA
HETATM   13  C   UNL     1      -0.693   6.293 -31.869  1.00  0.00     0.041 A 
HETATM   14  C   UNL     1       0.653   5.402 -30.335  1.00  0.00     0.142 A 
HETATM   15  C   UNL     1       0.523   6.485 -31.169  1.00  0.00     0.027 A 
ENDBRANCH   1   5
BRANCH   2  16
HETATM   16  C   UNL     1      -7.724   2.343 -33.430  1.00  0.00     0.102 A 
HETATM   17  C   UNL     1      -8.924   3.051 -32.837  1.00  0.00     0.218 A 
HETATM   18  O   UNL     1      -8.755   3.919 -31.981  1.00  0.00    -0.284 OA
HETATM   19  C   UNL     1     -10.287   2.654 -33.330  1.00  0.00     0.078 A 
HETATM   20 BR   UNL     1     -11.796   3.489 -32.637  1.00  0.00    -0.045 Br
HETATM   21  C   UNL     1     -10.343   1.694 -34.266  1.00  0.00     0.111 A 
HETATM   22  N   UNL     1      -9.235   1.075 -34.781  1.00  0.00    -0.372 N 
HETATM   23  C   UNL     1      -7.973   1.407 -34.359  1.00  0.00     0.121 A 
HETATM   24  H   UNL     1      -9.345   0.352 -35.486  1.00  0.00     0.164 HD
ENDBRANCH   2  16
TORSDOF 2
ENDMDL
MODEL 10
REMARK VINA RESULT:      -6.9      4.033      8.024
REMARK  2 active torsions:
REMARK  status: ('A' for Active; 'I' for Inactive)
REMARK    1  A    between atoms: C_9  and  C_10 
REMARK       I    between atoms: C_10  and  N_11 
REMARK    2  A    between atoms: N_11  and  C_12 
ROOT
HETATM    1  C   UNL     1      -5.365   3.771 -33.359  1.00  0.00     0.276 C 
HETATM    2  N   UNL     1      -5.587   2.438 -33.085  1.00  0.00    -0.317 N 
HETATM    3  O   UNL     1      -5.861   4.403 -34.286  1.00  0.00    -0.266 OA
HETATM    4  H   UNL     1      -5.093   2.079 -32.264  1.00  0.00     0.169 HD
ENDROOT
BRANCH   1   5
HETATM    5  C   UNL     1      -4.440   4.395 -32.399  1.00  0.00     0.147 A 
HETATM    6  N   UNL     1      -4.753   4.537 -31.093  1.00  0.00    -0.169 NA
HETATM    7  N   UNL     1      -3.665   5.129 -30.563  1.00  0.00    -0.275 N 
HETATM    8  C   UNL     1      -2.673   5.378 -31.467  1.00  0.00     0.086 A 
HETATM    9  H   UNL     1      -3.656   5.342 -29.570  1.00  0.00     0.189 HD
HETATM   10  C   UNL     1      -1.445   5.996 -31.096  1.00  0.00     0.103 A 
HETATM   11  C   UNL     1      -3.146   4.915 -32.672  1.00  0.00     0.073 A 
HETATM   12  O   UNL     1      -1.170   6.355 -29.802  1.00  0.00    -0.320 OA
HETATM   13  C   UNL     1      -0.362   6.335 -31.889  1.00  0.00     0.041 A 
HETATM   14  C   UNL     1       0.068   6.908 -29.780  1.00  0.00     0.142 A 
HETATM   15  C   UNL     1       0.609   6.921 -31.042  1.00  0.00     0.027 A 
ENDBRANCH   1   5
BRANCH   2  16
HETATM   16  C   UNL     1      -6.370   1.534 -33.762  1.00  0.00     0.102 A 
HETATM   17  C   UNL     1      -5.825   0.126 -33.877  1.00  0.00     0.218 A 
HETATM   18  O   UNL     1      -4.735  -0.147 -33.373  1.00  0.00    -0.284 OA
HETATM   19  C   UNL     1      -6.653  -0.889 -34.614  1.00  0.00     0.078 A 
HETATM   20 BR   UNL     1      -6.032  -2.633 -34.786  1.00  0.00    -0.045 Br
HETATM   21  C   UNL     1      -7.824  -0.473 -35.120  1.00  0.00     0.111 A 
HETATM   22  N   UNL     1      -8.286   0.810 -34.995  1.00  0.00    -0.372 N 
HETATM   23  C   UNL     1      -7.563   1.768 -34.332  1.00  0.00     0.121 A 
HETATM   24  H   UNL     1      -9.181   1.064 -35.405  1.00  0.00     0.164 HD
ENDBRANCH   2  16
TORSDOF 2
ENDMDL
