MODEL 1
REMARK VINA RESULT:      -9.5      0.000      0.000
REMARK  5 active torsions:
REMARK  status: ('A' for Active; 'I' for Inactive)
REMARK    1  A    between atoms: C_2  and  C_3 
REMARK    2  A    between atoms: C_6  and  C_7 
REMARK    3  A    between atoms: C_11  and  C_12 
REMARK       I    between atoms: C_12  and  N_13 
REMARK    4  A    between atoms: N_13  and  N_14 
REMARK    5  A    between atoms: C_15  and  C_16 
ROOT
HETATM    1  C   UNL     1      -2.118   4.385 -31.857  1.00  0.00     0.289 C 
HETATM    2  N   UNL     1      -2.823   3.266 -31.432  1.00  0.00    -0.242 N 
HETATM    3  O   UNL     1      -1.830   4.632 -33.024  1.00  0.00    -0.264 OA
HETATM    4  H   UNL     1      -3.181   3.257 -30.484  1.00  0.00     0.192 HD
ENDROOT
BRANCH   1   5
HETATM    5  C   UNL     1      -1.733   5.287 -30.798  1.00  0.00     0.121 A 
HETATM    6  N   UNL     1      -2.609   6.212 -30.303  1.00  0.00    -0.272 N 
HETATM    7  N   UNL     1      -2.099   6.998 -29.346  1.00  0.00    -0.174 NA
HETATM    8  H   UNL     1      -3.572   6.354 -30.595  1.00  0.00     0.189 HD
HETATM    9  C   UNL     1      -0.838   6.568 -29.187  1.00  0.00     0.089 A 
HETATM   10  C   UNL     1      -0.570   5.493 -30.083  1.00  0.00     0.071 A 
BRANCH   9  11
HETATM   11  C   UNL     1       0.068   7.185 -28.213  1.00  0.00    -0.006 A 
HETATM   12  C   UNL     1       0.946   8.211 -28.588  1.00  0.00     0.014 A 
HETATM   13  C   UNL     1       1.803   8.795 -27.647  1.00  0.00     0.008 A 
HETATM   14  C   UNL     1       1.802   8.363 -26.316  1.00  0.00    -0.059 A 
HETATM   15  C   UNL     1       0.923   7.343 -25.937  1.00  0.00     0.008 A 
HETATM   16  C   UNL     1       0.070   6.758 -26.877  1.00  0.00     0.014 A 
BRANCH  14  17
HETATM   17  C   UNL     1       2.715   9.001 -25.301  1.00  0.00     0.034 C 
HETATM   18  C   UNL     1       1.963   9.412 -24.043  1.00  0.00     0.010 C 
ENDBRANCH  14  17
ENDBRANCH   9  11
ENDBRANCH   1   5
BRANCH   2  19
HETATM   19  N   UNL     1      -3.356   2.271 -32.215  1.00  0.00    -0.183 NA
HETATM   20  C   UNL     1      -3.924   1.252 -31.653  1.00  0.00     0.153 C 
BRANCH  20  21
HETATM   21  C   UNL     1      -4.475   0.183 -32.474  1.00  0.00     0.018 A 
HETATM   22  C   UNL     1      -5.583   0.311 -33.378  1.00  0.00     0.004 A 
HETATM   23  C   UNL     1      -5.780  -0.931 -33.979  1.00  0.00     0.043 A 
HETATM   24  C   UNL     1      -6.439   1.373 -33.744  1.00  0.00     0.014 A 
HETATM   25  C   UNL     1      -6.780  -1.166 -34.930  1.00  0.00     0.030 A 
HETATM   26  N   UNL     1      -4.839  -1.784 -33.458  1.00  0.00    -0.358 N 
HETATM   27  C   UNL     1      -7.611  -0.098 -35.275  1.00  0.00     0.002 A 
HETATM   28  C   UNL     1      -7.447   1.154 -34.691  1.00  0.00     0.001 A 
HETATM   29  H   UNL     1      -4.752  -2.758 -33.716  1.00  0.00     0.166 HD
HETATM   30  C   UNL     1      -4.043  -1.136 -32.547  1.00  0.00     0.018 A 
HETATM   31  C   UNL     1      -2.946  -1.851 -31.843  1.00  0.00     0.069 C 
ENDBRANCH  20  21
ENDBRANCH   2  19
TORSDOF 5
ENDMDL
MODEL 2
REMARK VINA RESULT:      -9.2      1.548      2.463
REMARK  5 active torsions:
REMARK  status: ('A' for Active; 'I' for Inactive)
REMARK    1  A    between atoms: C_2  and  C_3 
REMARK    2  A    between atoms: C_6  and  C_7 
REMARK    3  A    between atoms: C_11  and  C_12 
REMARK       I    between atoms: C_12  and  N_13 
REMARK    4  A    between atoms: N_13  and  N_14 
REMARK    5  A    between atoms: C_15  and  C_16 
ROOT
HETATM    1  C   UNL     1      -2.653   4.450 -32.397  1.00  0.00     0.289 C 
HETATM    2  N   UNL     1      -3.165   3.255 -31.907  1.00  0.00    -0.242 N 
HETATM    3  O   UNL     1      -3.003   4.988 -33.443  1.00  0.00    -0.264 OA
HETATM    4  H   UNL     1      -2.959   3.002 -30.948  1.00  0.00     0.192 HD
ENDROOT
BRANCH   1   5
HETATM    5  C   UNL     1      -1.645   5.055 -31.560  1.00  0.00     0.121 A 
HETATM    6  N   UNL     1      -0.332   5.080 -31.939  1.00  0.00    -0.272 N 
HETATM    7  N   UNL     1       0.489   5.647 -31.046  1.00  0.00    -0.174 NA
HETATM    8  H   UNL     1       0.059   4.711 -32.802  1.00  0.00     0.189 HD
HETATM    9  C   UNL     1      -0.312   6.029 -30.039  1.00  0.00     0.089 A 
HETATM   10  C   UNL     1      -1.662   5.673 -30.325  1.00  0.00     0.071 A 
BRANCH   9  11
HETATM   11  C   UNL     1       0.216   6.699 -28.846  1.00  0.00    -0.006 A 
HETATM   12  C   UNL     1      -0.034   6.198 -27.561  1.00  0.00     0.014 A 
HETATM   13  C   UNL     1       0.481   6.846 -26.431  1.00  0.00     0.008 A 
HETATM   14  C   UNL     1       1.251   8.006 -26.563  1.00  0.00    -0.059 A 
HETATM   15  C   UNL     1       1.508   8.505 -27.845  1.00  0.00     0.008 A 
HETATM   16  C   UNL     1       0.991   7.861 -28.972  1.00  0.00     0.014 A 
BRANCH  14  17
HETATM   17  C   UNL     1       1.816   8.694 -25.348  1.00  0.00     0.034 C 
HETATM   18  C   UNL     1       1.549  10.193 -25.370  1.00  0.00     0.010 C 
ENDBRANCH  14  17
ENDBRANCH   9  11
ENDBRANCH   1   5
BRANCH   2  19
HETATM   19  N   UNL     1      -4.163   2.489 -32.460  1.00  0.00    -0.183 NA
HETATM   20  C   UNL     1      -4.603   1.453 -31.819  1.00  0.00     0.153 C 
BRANCH  20  21
HETATM   21  C   UNL     1      -5.646   0.624 -32.404  1.00  0.00     0.018 A 
HETATM   22  C   UNL     1      -5.431  -0.582 -33.155  1.00  0.00     0.004 A 
HETATM   23  C   UNL     1      -6.681  -1.078 -33.519  1.00  0.00     0.043 A 
HETATM   24  C   UNL     1      -4.284  -1.300 -33.559  1.00  0.00     0.014 A 
HETATM   25  C   UNL     1      -6.846  -2.256 -34.258  1.00  0.00     0.030 A 
HETATM   26  N   UNL     1      -7.620  -0.209 -33.022  1.00  0.00    -0.358 N 
HETATM   27  C   UNL     1      -5.696  -2.948 -34.642  1.00  0.00     0.002 A 
HETATM   28  C   UNL     1      -4.431  -2.479 -34.301  1.00  0.00     0.001 A 
HETATM   29  H   UNL     1      -8.618  -0.323 -33.139  1.00  0.00     0.166 HD
HETATM   30  C   UNL     1      -7.019   0.825 -32.347  1.00  0.00     0.018 A 
HETATM   31  C   UNL     1      -7.830   1.900 -31.715  1.00  0.00     0.069 C 
ENDBRANCH  20  21
ENDBRANCH   2  19
TORSDOF 5
ENDMDL
MODEL 3
REMARK VINA RESULT:      -9.2      2.056      3.594
REMARK  5 active torsions:
REMARK  status: ('A' for Active; 'I' for Inactive)
REMARK    1  A    between atoms: C_2  and  C_3 
REMARK    2  A    between atoms: C_6  and  C_7 
REMARK    3  A    between atoms: C_11  and  C_12 
REMARK       I    between atoms: C_12  and  N_13 
REMARK    4  A    between atoms: N_13  and  N_14 
REMARK    5  A    between atoms: C_15  and  C_16 
ROOT
HETATM    1  C   UNL     1      -4.910   3.580 -33.012  1.00  0.00     0.289 C 
HETATM    2  N   UNL     1      -5.005   2.331 -32.412  1.00  0.00    -0.242 N 
HETATM    3  O   UNL     1      -5.340   3.858 -34.128  1.00  0.00    -0.264 OA
HETATM    4  H   UNL     1      -4.803   2.258 -31.422  1.00  0.00     0.192 HD
ENDROOT
BRANCH   1   5
HETATM    5  C   UNL     1      -4.255   4.582 -32.206  1.00  0.00     0.121 A 
HETATM    6  N   UNL     1      -4.890   5.742 -31.862  1.00  0.00    -0.272 N 
HETATM    7  N   UNL     1      -4.144   6.587 -31.139  1.00  0.00    -0.174 NA
HETATM    8  H   UNL     1      -5.840   6.010 -32.107  1.00  0.00     0.189 HD
HETATM    9  C   UNL     1      -2.970   5.957 -30.982  1.00  0.00     0.089 A 
HETATM   10  C   UNL     1      -3.000   4.693 -31.640  1.00  0.00     0.071 A 
BRANCH   9  11
HETATM   11  C   UNL     1      -1.864   6.565 -30.234  1.00  0.00    -0.006 A 
HETATM   12  C   UNL     1      -2.051   7.062 -28.937  1.00  0.00     0.014 A 
HETATM   13  C   UNL     1      -0.986   7.636 -28.233  1.00  0.00     0.008 A 
HETATM   14  C   UNL     1       0.284   7.727 -28.812  1.00  0.00    -0.059 A 
HETATM   15  C   UNL     1       0.476   7.227 -30.105  1.00  0.00     0.008 A 
HETATM   16  C   UNL     1      -0.588   6.657 -30.808  1.00  0.00     0.014 A 
BRANCH  14  17
HETATM   17  C   UNL     1       1.434   8.333 -28.049  1.00  0.00     0.034 C 
HETATM   18  C   UNL     1       1.519   7.791 -26.629  1.00  0.00     0.010 C 
ENDBRANCH  14  17
ENDBRANCH   9  11
ENDBRANCH   1   5
BRANCH   2  19
HETATM   19  N   UNL     1      -5.617   1.210 -32.918  1.00  0.00    -0.183 NA
HETATM   20  C   UNL     1      -4.902   0.301 -33.502  1.00  0.00     0.153 C 
BRANCH  20  21
HETATM   21  C   UNL     1      -5.543  -0.881 -34.058  1.00  0.00     0.018 A 
HETATM   22  C   UNL     1      -5.035  -2.223 -33.977  1.00  0.00     0.004 A 
HETATM   23  C   UNL     1      -5.950  -3.058 -34.614  1.00  0.00     0.043 A 
HETATM   24  C   UNL     1      -3.877  -2.805 -33.417  1.00  0.00     0.014 A 
HETATM   25  C   UNL     1      -5.775  -4.443 -34.715  1.00  0.00     0.030 A 
HETATM   26  N   UNL     1      -6.970  -2.262 -35.074  1.00  0.00    -0.358 N 
HETATM   27  C   UNL     1      -4.622  -4.994 -34.150  1.00  0.00     0.002 A 
HETATM   28  C   UNL     1      -3.683  -4.189 -33.511  1.00  0.00     0.001 A 
HETATM   29  H   UNL     1      -7.775  -2.606 -35.580  1.00  0.00     0.166 HD
HETATM   30  C   UNL     1      -6.745  -0.946 -34.752  1.00  0.00     0.018 A 
HETATM   31  C   UNL     1      -7.712   0.114 -35.144  1.00  0.00     0.069 C 
ENDBRANCH  20  21
ENDBRANCH   2  19
TORSDOF 5
ENDMDL
MODEL 4
REMARK VINA RESULT:      -9.1      1.821     11.238
REMARK  5 active torsions:
REMARK  status: ('A' for Active; 'I' for Inactive)
REMARK    1  A    between atoms: C_2  and  C_3 
REMARK    2  A    between atoms: C_6  and  C_7 
REMARK    3  A    between atoms: C_11  and  C_12 
REMARK       I    between atoms: C_12  and  N_13 
REMARK    4  A    between atoms: N_13  and  N_14 
REMARK    5  A    between atoms: C_15  and  C_16 
ROOT
HETATM    1  C   UNL     1      -2.491   4.343 -31.470  1.00  0.00     0.289 C 
HETATM    2  N   UNL     1      -2.911   5.267 -30.522  1.00  0.00    -0.242 N 
HETATM    3  O   UNL     1      -1.462   4.434 -32.132  1.00  0.00    -0.264 OA
HETATM    4  H   UNL     1      -3.660   5.003 -29.893  1.00  0.00     0.192 HD
ENDROOT
BRANCH   1   5
HETATM    5  C   UNL     1      -3.372   3.211 -31.631  1.00  0.00     0.121 A 
HETATM    6  N   UNL     1      -4.274   2.872 -30.662  1.00  0.00    -0.272 N 
HETATM    7  N   UNL     1      -4.999   1.781 -30.940  1.00  0.00    -0.174 NA
HETATM    8  H   UNL     1      -4.428   3.353 -29.780  1.00  0.00     0.189 HD
HETATM    9  C   UNL     1      -4.573   1.387 -32.150  1.00  0.00     0.089 A 
HETATM   10  C   UNL     1      -3.549   2.261 -32.618  1.00  0.00     0.071 A 
BRANCH   9  11
HETATM   11  C   UNL     1      -5.130   0.205 -32.816  1.00  0.00    -0.006 A 
HETATM   12  C   UNL     1      -6.506   0.090 -33.060  1.00  0.00     0.014 A 
HETATM   13  C   UNL     1      -7.024  -1.042 -33.700  1.00  0.00     0.008 A 
HETATM   14  C   UNL     1      -6.180  -2.081 -34.105  1.00  0.00    -0.059 A 
HETATM   15  C   UNL     1      -4.806  -1.968 -33.868  1.00  0.00     0.008 A 
HETATM   16  C   UNL     1      -4.289  -0.839 -33.226  1.00  0.00     0.014 A 
BRANCH  14  17
HETATM   17  C   UNL     1      -6.737  -3.294 -34.806  1.00  0.00     0.034 C 
HETATM   18  C   UNL     1      -5.725  -4.429 -34.863  1.00  0.00     0.010 C 
ENDBRANCH  14  17
ENDBRANCH   9  11
ENDBRANCH   1   5
BRANCH   2  19
HETATM   19  N   UNL     1      -2.255   6.407 -30.124  1.00  0.00    -0.183 NA
HETATM   20  C   UNL     1      -2.360   6.809 -28.897  1.00  0.00     0.153 C 
BRANCH  20  21
HETATM   21  C   UNL     1      -1.685   8.026 -28.470  1.00  0.00     0.018 A 
HETATM   22  C   UNL     1      -0.455   8.082 -27.730  1.00  0.00     0.004 A 
HETATM   23  C   UNL     1      -0.140   9.426 -27.541  1.00  0.00     0.043 A 
HETATM   24  C   UNL     1       0.424   7.110 -27.203  1.00  0.00     0.014 A 
HETATM   25  C   UNL     1       1.007   9.851 -26.860  1.00  0.00     0.030 A 
HETATM   26  N   UNL     1      -1.139  10.161 -28.130  1.00  0.00    -0.358 N 
HETATM   27  C   UNL     1       1.861   8.869 -26.352  1.00  0.00     0.002 A 
HETATM   28  C   UNL     1       1.575   7.517 -26.517  1.00  0.00     0.001 A 
HETATM   29  H   UNL     1      -1.169  11.172 -28.143  1.00  0.00     0.166 HD
HETATM   30  C   UNL     1      -2.082   9.338 -28.696  1.00  0.00     0.018 A 
HETATM   31  C   UNL     1      -3.267   9.900 -29.397  1.00  0.00     0.069 C 
ENDBRANCH  20  21
ENDBRANCH   2  19
TORSDOF 5
ENDMDL
MODEL 5
REMARK VINA RESULT:      -8.4     18.765     19.871
REMARK  5 active torsions:
REMARK  status: ('A' for Active; 'I' for Inactive)
REMARK    1  A    between atoms: C_2  and  C_3 
REMARK    2  A    between atoms: C_6  and  C_7 
REMARK    3  A    between atoms: C_11  and  C_12 
REMARK       I    between atoms: C_12  and  N_13 
REMARK    4  A    between atoms: N_13  and  N_14 
REMARK    5  A    between atoms: C_15  and  C_16 
ROOT
HETATM    1  C   UNL     1      -5.462 -14.775 -33.528  1.00  0.00     0.289 C 
HETATM    2  N   UNL     1      -4.446 -14.712 -34.473  1.00  0.00    -0.242 N 
HETATM    3  O   UNL     1      -6.637 -14.487 -33.738  1.00  0.00    -0.264 OA
HETATM    4  H   UNL     1      -3.563 -15.159 -34.259  1.00  0.00     0.192 HD
ENDROOT
BRANCH   1   5
HETATM    5  C   UNL     1      -5.038 -15.231 -32.226  1.00  0.00     0.121 A 
HETATM    6  N   UNL     1      -5.865 -15.143 -31.141  1.00  0.00    -0.272 N 
HETATM    7  N   UNL     1      -5.322 -15.576 -29.996  1.00  0.00    -0.174 NA
HETATM    8  H   UNL     1      -6.816 -14.783 -31.129  1.00  0.00     0.189 HD
HETATM    9  C   UNL     1      -4.089 -15.984 -30.336  1.00  0.00     0.089 A 
HETATM   10  C   UNL     1      -3.873 -15.781 -31.730  1.00  0.00     0.071 A 
BRANCH   9  11
HETATM   11  C   UNL     1      -3.160 -16.533 -29.344  1.00  0.00    -0.006 A 
HETATM   12  C   UNL     1      -3.548 -17.565 -28.478  1.00  0.00     0.014 A 
HETATM   13  C   UNL     1      -2.649 -18.084 -27.539  1.00  0.00     0.008 A 
HETATM   14  C   UNL     1      -1.347 -17.580 -27.443  1.00  0.00    -0.059 A 
HETATM   15  C   UNL     1      -0.954 -16.554 -28.309  1.00  0.00     0.008 A 
HETATM   16  C   UNL     1      -1.853 -16.034 -29.245  1.00  0.00     0.014 A 
BRANCH  14  17
HETATM   17  C   UNL     1      -0.376 -18.148 -26.441  1.00  0.00     0.034 C 
HETATM   18  C   UNL     1       0.896 -17.316 -26.351  1.00  0.00     0.010 C 
ENDBRANCH  14  17
ENDBRANCH   9  11
ENDBRANCH   1   5
BRANCH   2  19
HETATM   19  N   UNL     1      -4.563 -14.365 -35.798  1.00  0.00    -0.183 NA
HETATM   20  C   UNL     1      -4.370 -13.135 -36.155  1.00  0.00     0.153 C 
BRANCH  20  21
HETATM   21  C   UNL     1      -4.510 -12.753 -37.552  1.00  0.00     0.018 A 
HETATM   22  C   UNL     1      -5.748 -12.671 -38.276  1.00  0.00     0.004 A 
HETATM   23  C   UNL     1      -5.450 -12.255 -39.571  1.00  0.00     0.043 A 
HETATM   24  C   UNL     1      -7.100 -12.912 -37.946  1.00  0.00     0.014 A 
HETATM   25  C   UNL     1      -6.431 -12.059 -40.552  1.00  0.00     0.030 A 
HETATM   26  N   UNL     1      -4.088 -12.098 -39.642  1.00  0.00    -0.358 N 
HETATM   27  C   UNL     1      -7.760 -12.302 -40.199  1.00  0.00     0.002 A 
HETATM   28  C   UNL     1      -8.093 -12.724 -38.915  1.00  0.00     0.001 A 
HETATM   29  H   UNL     1      -3.593 -11.803 -40.473  1.00  0.00     0.166 HD
HETATM   30  C   UNL     1      -3.500 -12.395 -38.437  1.00  0.00     0.018 A 
HETATM   31  C   UNL     1      -2.026 -12.300 -38.261  1.00  0.00     0.069 C 
ENDBRANCH  20  21
ENDBRANCH   2  19
TORSDOF 5
ENDMDL
MODEL 6
REMARK VINA RESULT:      -8.3      2.748     10.940
REMARK  5 active torsions:
REMARK  status: ('A' for Active; 'I' for Inactive)
REMARK    1  A    between atoms: C_2  and  C_3 
REMARK    2  A    between atoms: C_6  and  C_7 
REMARK    3  A    between atoms: C_11  and  C_12 
REMARK       I    between atoms: C_12  and  N_13 
REMARK    4  A    between atoms: N_13  and  N_14 
REMARK    5  A    between atoms: C_15  and  C_16 
ROOT
HETATM    1  C   UNL     1      -5.261   4.203 -30.980  1.00  0.00     0.289 C 
HETATM    2  N   UNL     1      -3.998   4.775 -31.065  1.00  0.00    -0.242 N 
HETATM    3  O   UNL     1      -6.137   4.548 -30.193  1.00  0.00    -0.264 OA
HETATM    4  H   UNL     1      -3.426   4.558 -31.873  1.00  0.00     0.192 HD
ENDROOT
BRANCH   1   5
HETATM    5  C   UNL     1      -5.497   3.135 -31.922  1.00  0.00     0.121 A 
HETATM    6  N   UNL     1      -6.114   3.370 -33.118  1.00  0.00    -0.272 N 
HETATM    7  N   UNL     1      -6.292   2.277 -33.871  1.00  0.00    -0.174 NA
HETATM    8  H   UNL     1      -6.445   4.266 -33.466  1.00  0.00     0.189 HD
HETATM    9  C   UNL     1      -5.757   1.277 -33.154  1.00  0.00     0.089 A 
HETATM   10  C   UNL     1      -5.248   1.777 -31.920  1.00  0.00     0.071 A 
BRANCH   9  11
HETATM   11  C   UNL     1      -5.753  -0.106 -33.643  1.00  0.00    -0.006 A 
HETATM   12  C   UNL     1      -4.612  -0.912 -33.536  1.00  0.00     0.014 A 
HETATM   13  C   UNL     1      -4.624  -2.231 -34.003  1.00  0.00     0.008 A 
HETATM   14  C   UNL     1      -5.774  -2.770 -34.589  1.00  0.00    -0.059 A 
HETATM   15  C   UNL     1      -6.918  -1.970 -34.693  1.00  0.00     0.008 A 
HETATM   16  C   UNL     1      -6.904  -0.652 -34.230  1.00  0.00     0.014 A 
BRANCH  14  17
HETATM   17  C   UNL     1      -5.791  -4.195 -35.079  1.00  0.00     0.034 C 
HETATM   18  C   UNL     1      -4.817  -5.071 -34.306  1.00  0.00     0.010 C 
ENDBRANCH  14  17
ENDBRANCH   9  11
ENDBRANCH   1   5
BRANCH   2  19
HETATM   19  N   UNL     1      -3.514   5.834 -30.336  1.00  0.00    -0.183 NA
HETATM   20  C   UNL     1      -2.274   6.185 -30.466  1.00  0.00     0.153 C 
BRANCH  20  21
HETATM   21  C   UNL     1      -1.746   7.293 -29.684  1.00  0.00     0.018 A 
HETATM   22  C   UNL     1      -2.225   8.647 -29.724  1.00  0.00     0.004 A 
HETATM   23  C   UNL     1      -1.469   9.387 -28.818  1.00  0.00     0.043 A 
HETATM   24  C   UNL     1      -3.238   9.312 -30.449  1.00  0.00     0.014 A 
HETATM   25  C   UNL     1      -1.675  10.754 -28.592  1.00  0.00     0.030 A 
HETATM   26  N   UNL     1      -0.559   8.527 -28.255  1.00  0.00    -0.358 N 
HETATM   27  C   UNL     1      -2.684  11.387 -29.321  1.00  0.00     0.002 A 
HETATM   28  C   UNL     1      -3.456  10.680 -30.238  1.00  0.00     0.001 A 
HETATM   29  H   UNL     1       0.123   8.798 -27.559  1.00  0.00     0.166 HD
HETATM   30  C   UNL     1      -0.706   7.260 -28.763  1.00  0.00     0.018 A 
HETATM   31  C   UNL     1       0.168   6.146 -28.307  1.00  0.00     0.069 C 
ENDBRANCH  20  21
ENDBRANCH   2  19
TORSDOF 5
ENDMDL
MODEL 7
REMARK VINA RESULT:      -8.1      2.989      4.277
REMARK  5 active torsions:
REMARK  status: ('A' for Active; 'I' for Inactive)
REMARK    1  A    between atoms: C_2  and  C_3 
REMARK    2  A    between atoms: C_6  and  C_7 
REMARK    3  A    between atoms: C_11  and  C_12 
REMARK       I    between atoms: C_12  and  N_13 
REMARK    4  A    between atoms: N_13  and  N_14 
REMARK    5  A    between atoms: C_15  and  C_16 
ROOT
HETATM    1  C   UNL     1      -4.311   4.803 -33.724  1.00  0.00     0.289 C 
HETATM    2  N   UNL     1      -5.272   3.930 -33.229  1.00  0.00    -0.242 N 
HETATM    3  O   UNL     1      -4.349   5.338 -34.828  1.00  0.00    -0.264 OA
HETATM    4  H   UNL     1      -5.252   3.705 -32.242  1.00  0.00     0.192 HD
ENDROOT
BRANCH   1   5
HETATM    5  C   UNL     1      -3.219   5.065 -32.818  1.00  0.00     0.121 A 
HETATM    6  N   UNL     1      -2.181   4.186 -32.687  1.00  0.00    -0.272 N 
HETATM    7  N   UNL     1      -1.259   4.550 -31.786  1.00  0.00    -0.174 NA
HETATM    8  H   UNL     1      -2.059   3.310 -33.188  1.00  0.00     0.189 HD
HETATM    9  C   UNL     1      -1.693   5.728 -31.310  1.00  0.00     0.089 A 
HETATM   10  C   UNL     1      -2.924   6.084 -31.934  1.00  0.00     0.071 A 
BRANCH   9  11
HETATM   11  C   UNL     1      -0.949   6.465 -30.284  1.00  0.00    -0.006 A 
HETATM   12  C   UNL     1       0.159   5.895 -29.641  1.00  0.00     0.014 A 
HETATM   13  C   UNL     1       0.863   6.612 -28.666  1.00  0.00     0.008 A 
HETATM   14  C   UNL     1       0.474   7.909 -28.314  1.00  0.00    -0.059 A 
HETATM   15  C   UNL     1      -0.627   8.483 -28.958  1.00  0.00     0.008 A 
HETATM   16  C   UNL     1      -1.333   7.766 -29.928  1.00  0.00     0.014 A 
BRANCH  14  17
HETATM   17  C   UNL     1       1.241   8.685 -27.274  1.00  0.00     0.034 C 
HETATM   18  C   UNL     1       1.735   7.788 -26.148  1.00  0.00     0.010 C 
ENDBRANCH  14  17
ENDBRANCH   9  11
ENDBRANCH   1   5
BRANCH   2  19
HETATM   19  N   UNL     1      -6.437   3.540 -33.845  1.00  0.00    -0.183 NA
HETATM   20  C   UNL     1      -7.376   2.989 -33.143  1.00  0.00     0.153 C 
BRANCH  20  21
HETATM   21  C   UNL     1      -8.606   2.555 -33.788  1.00  0.00     0.018 A 
HETATM   22  C   UNL     1      -9.827   3.310 -33.852  1.00  0.00     0.004 A 
HETATM   23  C   UNL     1     -10.751   2.553 -34.568  1.00  0.00     0.043 A 
HETATM   24  C   UNL     1     -10.231   4.572 -33.365  1.00  0.00     0.014 A 
HETATM   25  C   UNL     1     -12.055   2.992 -34.831  1.00  0.00     0.030 A 
HETATM   26  N   UNL     1     -10.127   1.381 -34.920  1.00  0.00    -0.358 N 
HETATM   27  C   UNL     1     -12.428   4.245 -34.341  1.00  0.00     0.002 A 
HETATM   28  C   UNL     1     -11.532   5.026 -33.616  1.00  0.00     0.001 A 
HETATM   29  H   UNL     1     -10.567   0.640 -35.448  1.00  0.00     0.166 HD
HETATM   30  C   UNL     1      -8.834   1.360 -34.459  1.00  0.00     0.018 A 
HETATM   31  C   UNL     1      -7.950   0.191 -34.714  1.00  0.00     0.069 C 
ENDBRANCH  20  21
ENDBRANCH   2  19
TORSDOF 5
ENDMDL
MODEL 8
REMARK VINA RESULT:      -8.0      8.774     11.983
REMARK  5 active torsions:
REMARK  status: ('A' for Active; 'I' for Inactive)
REMARK    1  A    between atoms: C_2  and  C_3 
REMARK    2  A    between atoms: C_6  and  C_7 
REMARK    3  A    between atoms: C_11  and  C_12 
REMARK       I    between atoms: C_12  and  N_13 
REMARK    4  A    between atoms: N_13  and  N_14 
REMARK    5  A    between atoms: C_15  and  C_16 
ROOT
HETATM    1  C   UNL     1      -9.907   2.437 -32.787  1.00  0.00     0.289 C 
HETATM    2  N   UNL     1     -10.965   2.863 -33.579  1.00  0.00    -0.242 N 
HETATM    3  O   UNL     1      -9.687   2.822 -31.642  1.00  0.00    -0.264 OA
HETATM    4  H   UNL     1     -11.173   2.342 -34.423  1.00  0.00     0.192 HD
ENDROOT
BRANCH   1   5
HETATM    5  C   UNL     1      -9.046   1.463 -33.414  1.00  0.00     0.121 A 
HETATM    6  N   UNL     1      -8.959   1.366 -34.774  1.00  0.00    -0.272 N 
HETATM    7  N   UNL     1      -8.143   0.396 -35.207  1.00  0.00    -0.174 NA
HETATM    8  H   UNL     1      -9.447   1.939 -35.457  1.00  0.00     0.189 HD
HETATM    9  C   UNL     1      -7.656  -0.165 -34.090  1.00  0.00     0.089 A 
HETATM   10  C   UNL     1      -8.201   0.478 -32.941  1.00  0.00     0.071 A 
BRANCH   9  11
HETATM   11  C   UNL     1      -6.712  -1.285 -34.140  1.00  0.00    -0.006 A 
HETATM   12  C   UNL     1      -7.065  -2.507 -34.729  1.00  0.00     0.014 A 
HETATM   13  C   UNL     1      -6.152  -3.568 -34.774  1.00  0.00     0.008 A 
HETATM   14  C   UNL     1      -4.871  -3.429 -34.229  1.00  0.00    -0.059 A 
HETATM   15  C   UNL     1      -4.512  -2.209 -33.645  1.00  0.00     0.008 A 
HETATM   16  C   UNL     1      -5.425  -1.152 -33.597  1.00  0.00     0.014 A 
BRANCH  14  17
HETATM   17  C   UNL     1      -3.884  -4.566 -34.290  1.00  0.00     0.034 C 
HETATM   18  C   UNL     1      -3.071  -4.680 -33.008  1.00  0.00     0.010 C 
ENDBRANCH  14  17
ENDBRANCH   9  11
ENDBRANCH   1   5
BRANCH   2  19
HETATM   19  N   UNL     1     -11.965   3.739 -33.231  1.00  0.00    -0.183 NA
HETATM   20  C   UNL     1     -12.912   3.346 -32.440  1.00  0.00     0.153 C 
BRANCH  20  21
HETATM   21  C   UNL     1     -13.986   4.260 -32.080  1.00  0.00     0.018 A 
HETATM   22  C   UNL     1     -15.377   3.916 -31.979  1.00  0.00     0.004 A 
HETATM   23  C   UNL     1     -16.066   5.064 -31.594  1.00  0.00     0.043 A 
HETATM   24  C   UNL     1     -16.115   2.729 -32.179  1.00  0.00     0.014 A 
HETATM   25  C   UNL     1     -17.452   5.088 -31.391  1.00  0.00     0.030 A 
HETATM   26  N   UNL     1     -15.139   6.069 -31.475  1.00  0.00    -0.358 N 
HETATM   27  C   UNL     1     -18.157   3.900 -31.593  1.00  0.00     0.002 A 
HETATM   28  C   UNL     1     -17.502   2.735 -31.983  1.00  0.00     0.001 A 
HETATM   29  H   UNL     1     -15.363   7.019 -31.208  1.00  0.00     0.166 HD
HETATM   30  C   UNL     1     -13.879   5.608 -31.764  1.00  0.00     0.018 A 
HETATM   31  C   UNL     1     -12.700   6.514 -31.705  1.00  0.00     0.069 C 
ENDBRANCH  20  21
ENDBRANCH   2  19
TORSDOF 5
ENDMDL
MODEL 9
REMARK VINA RESULT:      -7.9      2.799     11.117
REMARK  5 active torsions:
REMARK  status: ('A' for Active; 'I' for Inactive)
REMARK    1  A    between atoms: C_2  and  C_3 
REMARK    2  A    between atoms: C_6  and  C_7 
REMARK    3  A    between atoms: C_11  and  C_12 
REMARK       I    between atoms: C_12  and  N_13 
REMARK    4  A    between atoms: N_13  and  N_14 
REMARK    5  A    between atoms: C_15  and  C_16 
ROOT
HETATM    1  C   UNL     1      -5.066   4.966 -31.937  1.00  0.00     0.289 C 
HETATM    2  N   UNL     1      -4.943   5.215 -30.576  1.00  0.00    -0.242 N 
HETATM    3  O   UNL     1      -4.822   5.779 -32.824  1.00  0.00    -0.264 OA
HETATM    4  H   UNL     1      -4.972   4.426 -29.940  1.00  0.00     0.192 HD
ENDROOT
BRANCH   1   5
HETATM    5  C   UNL     1      -5.506   3.632 -32.264  1.00  0.00     0.121 A 
HETATM    6  N   UNL     1      -6.774   3.213 -31.971  1.00  0.00    -0.272 N 
HETATM    7  N   UNL     1      -7.026   1.941 -32.306  1.00  0.00    -0.174 NA
HETATM    8  H   UNL     1      -7.508   3.760 -31.530  1.00  0.00     0.189 HD
HETATM    9  C   UNL     1      -5.885   1.500 -32.858  1.00  0.00     0.089 A 
HETATM   10  C   UNL     1      -4.905   2.535 -32.849  1.00  0.00     0.071 A 
BRANCH   9  11
HETATM   11  C   UNL     1      -5.752   0.129 -33.360  1.00  0.00    -0.006 A 
HETATM   12  C   UNL     1      -4.536  -0.562 -33.271  1.00  0.00     0.014 A 
HETATM   13  C   UNL     1      -4.424  -1.873 -33.751  1.00  0.00     0.008 A 
HETATM   14  C   UNL     1      -5.523  -2.516 -34.331  1.00  0.00    -0.059 A 
HETATM   15  C   UNL     1      -6.740  -1.831 -34.416  1.00  0.00     0.008 A 
HETATM   16  C   UNL     1      -6.850  -0.522 -33.940  1.00  0.00     0.014 A 
BRANCH  14  17
HETATM   17  C   UNL     1      -5.406  -3.932 -34.834  1.00  0.00     0.034 C 
HETATM   18  C   UNL     1      -6.733  -4.456 -35.364  1.00  0.00     0.010 C 
ENDBRANCH  14  17
ENDBRANCH   9  11
ENDBRANCH   1   5
BRANCH   2  19
HETATM   19  N   UNL     1      -4.500   6.369 -29.977  1.00  0.00    -0.183 NA
HETATM   20  C   UNL     1      -3.238   6.513 -29.723  1.00  0.00     0.153 C 
BRANCH  20  21
HETATM   21  C   UNL     1      -2.761   7.724 -29.072  1.00  0.00     0.018 A 
HETATM   22  C   UNL     1      -2.583   7.897 -27.657  1.00  0.00     0.004 A 
HETATM   23  C   UNL     1      -2.095   9.185 -27.450  1.00  0.00     0.043 A 
HETATM   24  C   UNL     1      -2.792   7.073 -26.530  1.00  0.00     0.014 A 
HETATM   25  C   UNL     1      -1.797   9.692 -26.179  1.00  0.00     0.030 A 
HETATM   26  N   UNL     1      -1.988   9.779 -28.683  1.00  0.00    -0.358 N 
HETATM   27  C   UNL     1      -2.010   8.855 -25.081  1.00  0.00     0.002 A 
HETATM   28  C   UNL     1      -2.502   7.564 -25.250  1.00  0.00     0.001 A 
HETATM   29  H   UNL     1      -1.659  10.724 -28.832  1.00  0.00     0.166 HD
HETATM   30  C   UNL     1      -2.385   8.917 -29.676  1.00  0.00     0.018 A 
HETATM   31  C   UNL     1      -2.360   9.331 -31.104  1.00  0.00     0.069 C 
ENDBRANCH  20  21
ENDBRANCH   2  19
TORSDOF 5
ENDMDL
MODEL 10
REMARK VINA RESULT:      -7.8      2.228     11.163
REMARK  5 active torsions:
REMARK  status: ('A' for Active; 'I' for Inactive)
REMARK    1  A    between atoms: C_2  and  C_3 
REMARK    2  A    between atoms: C_6  and  C_7 
REMARK    3  A    between atoms: C_11  and  C_12 
REMARK       I    between atoms: C_12  and  N_13 
REMARK    4  A    between atoms: N_13  and  N_14 
REMARK    5  A    between atoms: C_15  and  C_16 
ROOT
HETATM    1  C   UNL     1      -2.597   4.478 -31.450  1.00  0.00     0.289 C 
HETATM    2  N   UNL     1      -3.059   5.510 -30.644  1.00  0.00    -0.242 N 
HETATM    3  O   UNL     1      -1.464   4.402 -31.915  1.00  0.00    -0.264 OA
HETATM    4  H   UNL     1      -3.934   5.380 -30.151  1.00  0.00     0.192 HD
ENDROOT
BRANCH   1   5
HETATM    5  C   UNL     1      -3.571   3.445 -31.714  1.00  0.00     0.121 A 
HETATM    6  N   UNL     1      -3.185   2.168 -32.012  1.00  0.00    -0.272 N 
HETATM    7  N   UNL     1      -4.199   1.330 -32.262  1.00  0.00    -0.174 NA
HETATM    8  H   UNL     1      -2.233   1.818 -32.066  1.00  0.00     0.189 HD
HETATM    9  C   UNL     1      -5.305   2.075 -32.109  1.00  0.00     0.089 A 
HETATM   10  C   UNL     1      -4.950   3.412 -31.765  1.00  0.00     0.071 A 
BRANCH   9  11
HETATM   11  C   UNL     1      -6.645   1.513 -32.301  1.00  0.00    -0.006 A 
HETATM   12  C   UNL     1      -7.718   1.897 -31.485  1.00  0.00     0.014 A 
HETATM   13  C   UNL     1      -8.994   1.356 -31.683  1.00  0.00     0.008 A 
HETATM   14  C   UNL     1      -9.221   0.419 -32.697  1.00  0.00    -0.059 A 
HETATM   15  C   UNL     1      -8.154   0.037 -33.517  1.00  0.00     0.008 A 
HETATM   16  C   UNL     1      -6.880   0.575 -33.317  1.00  0.00     0.014 A 
BRANCH  14  17
HETATM   17  C   UNL     1     -10.598  -0.154 -32.918  1.00  0.00     0.034 C 
HETATM   18  C   UNL     1     -11.519   0.839 -33.613  1.00  0.00     0.010 C 
ENDBRANCH  14  17
ENDBRANCH   9  11
ENDBRANCH   1   5
BRANCH   2  19
HETATM   19  N   UNL     1      -2.345   6.593 -30.190  1.00  0.00    -0.183 NA
HETATM   20  C   UNL     1      -2.520   7.009 -28.975  1.00  0.00     0.153 C 
BRANCH  20  21
HETATM   21  C   UNL     1      -1.783   8.167 -28.491  1.00  0.00     0.018 A 
HETATM   22  C   UNL     1      -0.520   8.127 -27.809  1.00  0.00     0.004 A 
HETATM   23  C   UNL     1      -0.150   9.442 -27.533  1.00  0.00     0.043 A 
HETATM   24  C   UNL     1       0.348   7.091 -27.400  1.00  0.00     0.014 A 
HETATM   25  C   UNL     1       1.042   9.777 -26.878  1.00  0.00     0.030 A 
HETATM   26  N   UNL     1      -1.149  10.251 -28.016  1.00  0.00    -0.358 N 
HETATM   27  C   UNL     1       1.883   8.732 -26.488  1.00  0.00     0.002 A 
HETATM   28  C   UNL     1       1.543   7.407 -26.742  1.00  0.00     0.001 A 
HETATM   29  H   UNL     1      -1.143  11.260 -27.950  1.00  0.00     0.166 HD
HETATM   30  C   UNL     1      -2.144   9.505 -28.596  1.00  0.00     0.018 A 
HETATM   31  C   UNL     1      -3.340  10.156 -29.194  1.00  0.00     0.069 C 
ENDBRANCH  20  21
ENDBRANCH   2  19
TORSDOF 5
ENDMDL
