MODEL 1
REMARK VINA RESULT:      -8.7      0.000      0.000
REMARK  10 active torsions:
REMARK  status: ('A' for Active; 'I' for Inactive)
REMARK    1  A    between atoms: C_2  and  N_3 
REMARK    2  A    between atoms: N_3  and  N_4 
REMARK       I    between atoms: N_4  and  C_5 
REMARK    3  A    between atoms: C_5  and  C_6 
REMARK    4  A    between atoms: C_9  and  N_10 
REMARK    5  A    between atoms: C_14  and  C_15 
REMARK       I    between atoms: C_15  and  N_16 
REMARK    6  A    between atoms: N_16  and  C_17 
REMARK    7  A    between atoms: C_17  and  C_18 
REMARK    8  A    between atoms: C_18  and  C_19 
REMARK    9  A    between atoms: C_21  and  O_22 
REMARK   10  A    between atoms: C_24  and  O_25 
ROOT
HETATM    1  C   UNL     1      -1.595   5.485 -33.213  1.00  0.00     0.063 C 
HETATM    2  C   UNL     1      -2.111   4.384 -32.315  1.00  0.00     0.007 C 
HETATM    3  C   UNL     1      -3.118   3.596 -32.748  1.00  0.00     0.094 C 
ENDROOT
BRANCH   2   4
HETATM    4  N   UNL     1      -1.451   4.240 -31.101  1.00  0.00    -0.207 NA
HETATM    5  H   UNL     1      -1.950   3.589 -30.461  1.00  0.00     0.152 HD
BRANCH   4   6
HETATM    6  N   UNL     1      -1.045   5.391 -30.389  1.00  0.00    -0.283 N 
HETATM    7  C   UNL     1       0.162   5.298 -29.708  1.00  0.00     0.266 C 
HETATM    8  O   UNL     1       0.971   4.390 -29.878  1.00  0.00    -0.266 OA
HETATM    9  H   UNL     1      -1.794   5.958 -30.010  1.00  0.00     0.184 HD
BRANCH   7  10
HETATM   10  C   UNL     1       0.410   6.338 -28.671  1.00  0.00     0.033 A 
HETATM   11  C   UNL     1       0.957   7.589 -28.977  1.00  0.00     0.019 A 
HETATM   12  C   UNL     1       1.130   8.542 -27.966  1.00  0.00     0.024 A 
HETATM   13  C   UNL     1       0.811   8.246 -26.637  1.00  0.00     0.005 A 
HETATM   14  C   UNL     1       0.230   7.011 -26.347  1.00  0.00     0.024 A 
HETATM   15  C   UNL     1       0.053   6.051 -27.349  1.00  0.00     0.019 A 
BRANCH  13  16
HETATM   16  N   UNL     1       0.858   9.249 -25.663  1.00  0.00    -0.303 NA
HETATM   17  H   UNL     1       1.756   9.717 -25.593  1.00  0.00     0.124 HD
HETATM   18  H   UNL     1       0.512   8.951 -24.755  1.00  0.00     0.124 HD
ENDBRANCH  13  16
ENDBRANCH   7  10
ENDBRANCH   4   6
ENDBRANCH   2   4
BRANCH   3  19
HETATM   19  C   UNL     1      -3.665   2.498 -31.914  1.00  0.00     0.242 C 
HETATM   20  N   UNL     1      -5.038   2.444 -31.916  1.00  0.00    -0.357 N 
HETATM   21  H   UNL     1      -5.568   3.149 -32.408  1.00  0.00     0.162 HD
HETATM   22  O   UNL     1      -2.943   1.758 -31.260  1.00  0.00    -0.269 OA
BRANCH  20  23
HETATM   23  C   UNL     1      -5.755   1.570 -30.995  1.00  0.00     0.127 C 
BRANCH  23  24
HETATM   24  C   UNL     1      -6.899   0.814 -31.697  1.00  0.00     0.058 C 
BRANCH  24  25
HETATM   25  C   UNL     1      -6.473  -0.257 -32.676  1.00  0.00    -0.054 A 
HETATM   26  C   UNL     1      -5.278  -0.967 -32.491  1.00  0.00     0.046 A 
HETATM   27  C   UNL     1      -4.903  -2.008 -33.350  1.00  0.00     0.102 A 
HETATM   28  C   UNL     1      -5.743  -2.356 -34.423  1.00  0.00     0.101 A 
HETATM   29  C   UNL     1      -6.947  -1.666 -34.602  1.00  0.00     0.040 A 
HETATM   30  C   UNL     1      -7.309  -0.630 -33.733  1.00  0.00     0.010 A 
BRANCH  27  31
HETATM   31  O   UNL     1      -3.740  -2.728 -33.223  1.00  0.00    -0.353 OA
HETATM   32  C   UNL     1      -3.144  -2.769 -31.931  1.00  0.00     0.210 C 
ENDBRANCH  27  31
BRANCH  28  33
HETATM   33  O   UNL     1      -5.308  -3.387 -35.219  1.00  0.00    -0.353 OA
HETATM   34  C   UNL     1      -6.176  -4.495 -35.395  1.00  0.00     0.210 C 
ENDBRANCH  28  33
ENDBRANCH  24  25
ENDBRANCH  23  24
ENDBRANCH  20  23
ENDBRANCH   3  19
TORSDOF 10
ENDMDL
MODEL 2
REMARK VINA RESULT:      -8.6      1.202      2.190
REMARK  10 active torsions:
REMARK  status: ('A' for Active; 'I' for Inactive)
REMARK    1  A    between atoms: C_2  and  N_3 
REMARK    2  A    between atoms: N_3  and  N_4 
REMARK       I    between atoms: N_4  and  C_5 
REMARK    3  A    between atoms: C_5  and  C_6 
REMARK    4  A    between atoms: C_9  and  N_10 
REMARK    5  A    between atoms: C_14  and  C_15 
REMARK       I    between atoms: C_15  and  N_16 
REMARK    6  A    between atoms: N_16  and  C_17 
REMARK    7  A    between atoms: C_17  and  C_18 
REMARK    8  A    between atoms: C_18  and  C_19 
REMARK    9  A    between atoms: C_21  and  O_22 
REMARK   10  A    between atoms: C_24  and  O_25 
ROOT
HETATM    1  C   UNL     1      -1.230   5.394 -33.336  1.00  0.00     0.063 C 
HETATM    2  C   UNL     1      -2.104   4.549 -32.440  1.00  0.00     0.007 C 
HETATM    3  C   UNL     1      -3.236   4.010 -32.938  1.00  0.00     0.094 C 
ENDROOT
BRANCH   2   4
HETATM    4  N   UNL     1      -1.628   4.351 -31.149  1.00  0.00    -0.207 NA
HETATM    5  H   UNL     1      -2.270   3.761 -30.583  1.00  0.00     0.152 HD
BRANCH   4   6
HETATM    6  N   UNL     1      -1.204   5.463 -30.387  1.00  0.00    -0.283 N 
HETATM    7  C   UNL     1       0.023   5.337 -29.749  1.00  0.00     0.266 C 
HETATM    8  O   UNL     1       0.829   4.443 -29.993  1.00  0.00    -0.266 OA
HETATM    9  H   UNL     1      -1.943   6.004 -29.953  1.00  0.00     0.184 HD
BRANCH   7  10
HETATM   10  C   UNL     1       0.300   6.318 -28.663  1.00  0.00     0.033 A 
HETATM   11  C   UNL     1      -0.006   6.062 -27.322  1.00  0.00     0.019 A 
HETATM   12  C   UNL     1       0.313   7.007 -26.339  1.00  0.00     0.024 A 
HETATM   13  C   UNL     1       0.892   8.232 -26.682  1.00  0.00     0.005 A 
HETATM   14  C   UNL     1       1.229   8.464 -28.016  1.00  0.00     0.024 A 
HETATM   15  C   UNL     1       0.914   7.528 -29.006  1.00  0.00     0.019 A 
BRANCH  13  16
HETATM   16  N   UNL     1       1.332   9.106 -25.682  1.00  0.00    -0.303 NA
HETATM   17  H   UNL     1       0.664   9.246 -24.931  1.00  0.00     0.124 HD
HETATM   18  H   UNL     1       1.693   9.986 -26.039  1.00  0.00     0.124 HD
ENDBRANCH  13  16
ENDBRANCH   7  10
ENDBRANCH   4   6
ENDBRANCH   2   4
BRANCH   3  19
HETATM   19  C   UNL     1      -4.133   3.169 -32.109  1.00  0.00     0.242 C 
HETATM   20  N   UNL     1      -3.513   2.059 -31.588  1.00  0.00    -0.357 N 
HETATM   21  H   UNL     1      -2.553   1.859 -31.832  1.00  0.00     0.162 HD
HETATM   22  O   UNL     1      -5.319   3.434 -31.961  1.00  0.00    -0.269 OA
BRANCH  20  23
HETATM   23  C   UNL     1      -4.282   1.011 -30.927  1.00  0.00     0.127 C 
BRANCH  23  24
HETATM   24  C   UNL     1      -3.643  -0.377 -31.123  1.00  0.00     0.058 C 
BRANCH  24  25
HETATM   25  C   UNL     1      -4.209  -1.205 -32.255  1.00  0.00    -0.054 A 
HETATM   26  C   UNL     1      -5.294  -0.742 -33.013  1.00  0.00     0.046 A 
HETATM   27  C   UNL     1      -5.786  -1.465 -34.107  1.00  0.00     0.102 A 
HETATM   28  C   UNL     1      -5.179  -2.683 -34.461  1.00  0.00     0.101 A 
HETATM   29  C   UNL     1      -4.082  -3.141 -33.723  1.00  0.00     0.040 A 
HETATM   30  C   UNL     1      -3.600  -2.406 -32.633  1.00  0.00     0.010 A 
BRANCH  27  31
HETATM   31  O   UNL     1      -6.852  -1.065 -34.875  1.00  0.00    -0.353 OA
HETATM   32  C   UNL     1      -6.974   0.329 -35.134  1.00  0.00     0.210 C 
ENDBRANCH  27  31
BRANCH  28  33
HETATM   33  O   UNL     1      -5.716  -3.331 -35.545  1.00  0.00    -0.353 OA
HETATM   34  C   UNL     1      -6.325  -4.593 -35.324  1.00  0.00     0.210 C 
ENDBRANCH  28  33
ENDBRANCH  24  25
ENDBRANCH  23  24
ENDBRANCH  20  23
ENDBRANCH   3  19
TORSDOF 10
ENDMDL
MODEL 3
REMARK VINA RESULT:      -8.3      2.500     10.521
REMARK  10 active torsions:
REMARK  status: ('A' for Active; 'I' for Inactive)
REMARK    1  A    between atoms: C_2  and  N_3 
REMARK    2  A    between atoms: N_3  and  N_4 
REMARK       I    between atoms: N_4  and  C_5 
REMARK    3  A    between atoms: C_5  and  C_6 
REMARK    4  A    between atoms: C_9  and  N_10 
REMARK    5  A    between atoms: C_14  and  C_15 
REMARK       I    between atoms: C_15  and  N_16 
REMARK    6  A    between atoms: N_16  and  C_17 
REMARK    7  A    between atoms: C_17  and  C_18 
REMARK    8  A    between atoms: C_18  and  C_19 
REMARK    9  A    between atoms: C_21  and  O_22 
REMARK   10  A    between atoms: C_24  and  O_25 
ROOT
HETATM    1  C   UNL     1      -7.040   2.799 -31.177  1.00  0.00     0.063 C 
HETATM    2  C   UNL     1      -5.655   2.909 -31.769  1.00  0.00     0.007 C 
HETATM    3  C   UNL     1      -4.669   3.478 -31.044  1.00  0.00     0.094 C 
ENDROOT
BRANCH   2   4
HETATM    4  N   UNL     1      -5.495   2.352 -33.033  1.00  0.00    -0.207 NA
HETATM    5  H   UNL     1      -5.847   2.980 -33.782  1.00  0.00     0.152 HD
BRANCH   4   6
HETATM    6  N   UNL     1      -5.937   1.031 -33.270  1.00  0.00    -0.283 N 
HETATM    7  C   UNL     1      -4.977   0.033 -33.157  1.00  0.00     0.266 C 
HETATM    8  O   UNL     1      -3.870   0.208 -32.654  1.00  0.00    -0.266 OA
HETATM    9  H   UNL     1      -6.684   0.934 -33.947  1.00  0.00     0.184 HD
BRANCH   7  10
HETATM   10  C   UNL     1      -5.325  -1.282 -33.762  1.00  0.00     0.033 A 
HETATM   11  C   UNL     1      -4.369  -2.272 -34.012  1.00  0.00     0.019 A 
HETATM   12  C   UNL     1      -4.762  -3.505 -34.546  1.00  0.00     0.024 A 
HETATM   13  C   UNL     1      -6.097  -3.750 -34.882  1.00  0.00     0.005 A 
HETATM   14  C   UNL     1      -7.050  -2.772 -34.594  1.00  0.00     0.024 A 
HETATM   15  C   UNL     1      -6.669  -1.536 -34.062  1.00  0.00     0.019 A 
BRANCH  13  16
HETATM   16  N   UNL     1      -6.498  -5.028 -35.283  1.00  0.00    -0.303 NA
HETATM   17  H   UNL     1      -6.296  -5.757 -34.605  1.00  0.00     0.124 HD
HETATM   18  H   UNL     1      -6.186  -5.280 -36.217  1.00  0.00     0.124 HD
ENDBRANCH  13  16
ENDBRANCH   7  10
ENDBRANCH   4   6
ENDBRANCH   2   4
BRANCH   3  19
HETATM   19  C   UNL     1      -3.289   3.612 -31.570  1.00  0.00     0.242 C 
HETATM   20  N   UNL     1      -3.156   4.607 -32.509  1.00  0.00    -0.357 N 
HETATM   21  H   UNL     1      -3.970   5.122 -32.813  1.00  0.00     0.162 HD
HETATM   22  O   UNL     1      -2.386   2.863 -31.222  1.00  0.00    -0.269 OA
BRANCH  20  23
HETATM   23  C   UNL     1      -1.930   4.745 -33.286  1.00  0.00     0.127 C 
BRANCH  23  24
HETATM   24  C   UNL     1      -1.154   6.021 -32.906  1.00  0.00     0.058 C 
BRANCH  24  25
HETATM   25  C   UNL     1      -0.768   6.144 -31.449  1.00  0.00    -0.054 A 
HETATM   26  C   UNL     1      -1.469   7.001 -30.588  1.00  0.00     0.046 A 
HETATM   27  C   UNL     1      -1.167   7.075 -29.223  1.00  0.00     0.102 A 
HETATM   28  C   UNL     1      -0.140   6.271 -28.696  1.00  0.00     0.101 A 
HETATM   29  C   UNL     1       0.549   5.399 -29.545  1.00  0.00     0.040 A 
HETATM   30  C   UNL     1       0.235   5.334 -30.908  1.00  0.00     0.010 A 
BRANCH  27  31
HETATM   31  O   UNL     1      -1.812   7.904 -28.337  1.00  0.00    -0.353 OA
HETATM   32  C   UNL     1      -1.612   9.304 -28.500  1.00  0.00     0.210 C 
ENDBRANCH  27  31
BRANCH  28  33
HETATM   33  O   UNL     1       0.094   6.399 -27.350  1.00  0.00    -0.353 OA
HETATM   34  C   UNL     1       1.197   7.195 -26.945  1.00  0.00     0.210 C 
ENDBRANCH  28  33
ENDBRANCH  24  25
ENDBRANCH  23  24
ENDBRANCH  20  23
ENDBRANCH   3  19
TORSDOF 10
ENDMDL
MODEL 4
REMARK VINA RESULT:      -8.2      2.870     10.324
REMARK  10 active torsions:
REMARK  status: ('A' for Active; 'I' for Inactive)
REMARK    1  A    between atoms: C_2  and  N_3 
REMARK    2  A    between atoms: N_3  and  N_4 
REMARK       I    between atoms: N_4  and  C_5 
REMARK    3  A    between atoms: C_5  and  C_6 
REMARK    4  A    between atoms: C_9  and  N_10 
REMARK    5  A    between atoms: C_14  and  C_15 
REMARK       I    between atoms: C_15  and  N_16 
REMARK    6  A    between atoms: N_16  and  C_17 
REMARK    7  A    between atoms: C_17  and  C_18 
REMARK    8  A    between atoms: C_18  and  C_19 
REMARK    9  A    between atoms: C_21  and  O_22 
REMARK   10  A    between atoms: C_24  and  O_25 
ROOT
HETATM    1  C   UNL     1      -5.802   2.933 -30.918  1.00  0.00     0.063 C 
HETATM    2  C   UNL     1      -4.987   3.206 -32.160  1.00  0.00     0.007 C 
HETATM    3  C   UNL     1      -4.900   4.468 -32.630  1.00  0.00     0.094 C 
ENDROOT
BRANCH   2   4
HETATM    4  N   UNL     1      -4.335   2.106 -32.704  1.00  0.00    -0.207 NA
HETATM    5  H   UNL     1      -3.820   2.349 -33.574  1.00  0.00     0.152 HD
BRANCH   4   6
HETATM    6  N   UNL     1      -5.045   0.899 -32.891  1.00  0.00    -0.283 N 
HETATM    7  C   UNL     1      -4.276  -0.244 -33.073  1.00  0.00     0.266 C 
HETATM    8  O   UNL     1      -3.069  -0.294 -32.855  1.00  0.00    -0.266 OA
HETATM    9  H   UNL     1      -5.937   0.985 -33.362  1.00  0.00     0.184 HD
BRANCH   7  10
HETATM   10  C   UNL     1      -4.985  -1.426 -33.638  1.00  0.00     0.033 A 
HETATM   11  C   UNL     1      -6.352  -1.412 -33.935  1.00  0.00     0.019 A 
HETATM   12  C   UNL     1      -6.956  -2.541 -34.502  1.00  0.00     0.024 A 
HETATM   13  C   UNL     1      -6.223  -3.708 -34.732  1.00  0.00     0.005 A 
HETATM   14  C   UNL     1      -4.852  -3.701 -34.469  1.00  0.00     0.024 A 
HETATM   15  C   UNL     1      -4.239  -2.580 -33.902  1.00  0.00     0.019 A 
BRANCH  13  16
HETATM   16  N   UNL     1      -6.802  -4.777 -35.424  1.00  0.00    -0.303 NA
HETATM   17  H   UNL     1      -7.815  -4.735 -35.478  1.00  0.00     0.124 HD
HETATM   18  H   UNL     1      -6.474  -5.689 -35.115  1.00  0.00     0.124 HD
ENDBRANCH  13  16
ENDBRANCH   7  10
ENDBRANCH   4   6
ENDBRANCH   2   4
BRANCH   3  19
HETATM   19  C   UNL     1      -4.113   4.798 -33.842  1.00  0.00     0.242 C 
HETATM   20  N   UNL     1      -2.756   4.662 -33.666  1.00  0.00    -0.357 N 
HETATM   21  H   UNL     1      -2.390   4.415 -32.757  1.00  0.00     0.162 HD
HETATM   22  O   UNL     1      -4.641   5.200 -34.870  1.00  0.00    -0.269 OA
BRANCH  20  23
HETATM   23  C   UNL     1      -1.818   5.142 -34.674  1.00  0.00     0.127 C 
BRANCH  23  24
HETATM   24  C   UNL     1      -1.172   6.479 -34.262  1.00  0.00     0.058 C 
BRANCH  24  25
HETATM   25  C   UNL     1      -1.280   6.836 -32.796  1.00  0.00    -0.054 A 
HETATM   26  C   UNL     1      -0.382   6.306 -31.859  1.00  0.00     0.046 A 
HETATM   27  C   UNL     1      -0.426   6.678 -30.510  1.00  0.00     0.102 A 
HETATM   28  C   UNL     1      -1.389   7.609 -30.080  1.00  0.00     0.101 A 
HETATM   29  C   UNL     1      -2.275   8.158 -31.014  1.00  0.00     0.040 A 
HETATM   30  C   UNL     1      -2.217   7.777 -32.360  1.00  0.00     0.010 A 
BRANCH  27  31
HETATM   31  O   UNL     1       0.419   6.182 -29.547  1.00  0.00    -0.353 OA
HETATM   32  C   UNL     1       0.818   4.822 -29.677  1.00  0.00     0.210 C 
ENDBRANCH  27  31
BRANCH  28  33
HETATM   33  O   UNL     1      -1.368   7.926 -28.744  1.00  0.00    -0.353 OA
HETATM   34  C   UNL     1      -1.177   9.286 -28.392  1.00  0.00     0.210 C 
ENDBRANCH  28  33
ENDBRANCH  24  25
ENDBRANCH  23  24
ENDBRANCH  20  23
ENDBRANCH   3  19
TORSDOF 10
ENDMDL
MODEL 5
REMARK VINA RESULT:      -8.1      1.566      1.670
REMARK  10 active torsions:
REMARK  status: ('A' for Active; 'I' for Inactive)
REMARK    1  A    between atoms: C_2  and  N_3 
REMARK    2  A    between atoms: N_3  and  N_4 
REMARK       I    between atoms: N_4  and  C_5 
REMARK    3  A    between atoms: C_5  and  C_6 
REMARK    4  A    between atoms: C_9  and  N_10 
REMARK    5  A    between atoms: C_14  and  C_15 
REMARK       I    between atoms: C_15  and  N_16 
REMARK    6  A    between atoms: N_16  and  C_17 
REMARK    7  A    between atoms: C_17  and  C_18 
REMARK    8  A    between atoms: C_18  and  C_19 
REMARK    9  A    between atoms: C_21  and  O_22 
REMARK   10  A    between atoms: C_24  and  O_25 
ROOT
HETATM    1  C   UNL     1      -1.296   6.774 -32.493  1.00  0.00     0.063 C 
HETATM    2  C   UNL     1      -2.092   5.617 -31.936  1.00  0.00     0.007 C 
HETATM    3  C   UNL     1      -2.309   4.532 -32.708  1.00  0.00     0.094 C 
ENDROOT
BRANCH   2   4
HETATM    4  N   UNL     1      -2.504   5.752 -30.616  1.00  0.00    -0.207 NA
HETATM    5  H   UNL     1      -3.329   6.379 -30.527  1.00  0.00     0.152 HD
BRANCH   4   6
HETATM    6  N   UNL     1      -1.554   6.070 -29.620  1.00  0.00    -0.283 N 
HETATM    7  C   UNL     1      -1.768   7.252 -28.922  1.00  0.00     0.266 C 
HETATM    8  O   UNL     1      -2.819   7.885 -28.962  1.00  0.00    -0.266 OA
HETATM    9  H   UNL     1      -0.608   5.758 -29.802  1.00  0.00     0.184 HD
BRANCH   7  10
HETATM   10  C   UNL     1      -0.604   7.780 -28.157  1.00  0.00     0.033 A 
HETATM   11  C   UNL     1      -0.455   9.139 -27.859  1.00  0.00     0.019 A 
HETATM   12  C   UNL     1       0.640   9.572 -27.102  1.00  0.00     0.024 A 
HETATM   13  C   UNL     1       1.621   8.671 -26.677  1.00  0.00     0.005 A 
HETATM   14  C   UNL     1       1.445   7.313 -26.945  1.00  0.00     0.024 A 
HETATM   15  C   UNL     1       0.356   6.869 -27.701  1.00  0.00     0.019 A 
BRANCH  13  16
HETATM   16  N   UNL     1       2.633   9.092 -25.807  1.00  0.00    -0.303 NA
HETATM   17  H   UNL     1       3.551   8.719 -26.028  1.00  0.00     0.124 HD
HETATM   18  H   UNL     1       2.401   8.974 -24.824  1.00  0.00     0.124 HD
ENDBRANCH  13  16
ENDBRANCH   7  10
ENDBRANCH   4   6
ENDBRANCH   2   4
BRANCH   3  19
HETATM   19  C   UNL     1      -3.080   3.364 -32.216  1.00  0.00     0.242 C 
HETATM   20  N   UNL     1      -4.264   3.169 -32.887  1.00  0.00    -0.357 N 
HETATM   21  H   UNL     1      -4.553   3.828 -33.596  1.00  0.00     0.162 HD
HETATM   22  O   UNL     1      -2.700   2.686 -31.271  1.00  0.00    -0.269 OA
BRANCH  20  23
HETATM   23  C   UNL     1      -5.247   2.206 -32.408  1.00  0.00     0.127 C 
BRANCH  23  24
HETATM   24  C   UNL     1      -6.142   1.686 -33.550  1.00  0.00     0.058 C 
BRANCH  24  25
HETATM   25  C   UNL     1      -5.997   0.217 -33.880  1.00  0.00    -0.054 A 
HETATM   26  C   UNL     1      -4.910  -0.525 -33.397  1.00  0.00     0.046 A 
HETATM   27  C   UNL     1      -4.797  -1.900 -33.637  1.00  0.00     0.102 A 
HETATM   28  C   UNL     1      -5.798  -2.559 -34.374  1.00  0.00     0.101 A 
HETATM   29  C   UNL     1      -6.896  -1.828 -34.841  1.00  0.00     0.040 A 
HETATM   30  C   UNL     1      -6.996  -0.455 -34.591  1.00  0.00     0.010 A 
BRANCH  27  31
HETATM   31  O   UNL     1      -3.750  -2.673 -33.199  1.00  0.00    -0.353 OA
HETATM   32  C   UNL     1      -3.130  -2.288 -31.977  1.00  0.00     0.210 C 
ENDBRANCH  27  31
BRANCH  28  33
HETATM   33  O   UNL     1      -5.618  -3.906 -34.565  1.00  0.00    -0.353 OA
HETATM   34  C   UNL     1      -6.571  -4.592 -35.361  1.00  0.00     0.210 C 
ENDBRANCH  28  33
ENDBRANCH  24  25
ENDBRANCH  23  24
ENDBRANCH  20  23
ENDBRANCH   3  19
TORSDOF 10
ENDMDL
MODEL 6
REMARK VINA RESULT:      -7.9      2.005      2.115
REMARK  10 active torsions:
REMARK  status: ('A' for Active; 'I' for Inactive)
REMARK    1  A    between atoms: C_2  and  N_3 
REMARK    2  A    between atoms: N_3  and  N_4 
REMARK       I    between atoms: N_4  and  C_5 
REMARK    3  A    between atoms: C_5  and  C_6 
REMARK    4  A    between atoms: C_9  and  N_10 
REMARK    5  A    between atoms: C_14  and  C_15 
REMARK       I    between atoms: C_15  and  N_16 
REMARK    6  A    between atoms: N_16  and  C_17 
REMARK    7  A    between atoms: C_17  and  C_18 
REMARK    8  A    between atoms: C_18  and  C_19 
REMARK    9  A    between atoms: C_21  and  O_22 
REMARK   10  A    between atoms: C_24  and  O_25 
ROOT
HETATM    1  C   UNL     1      -1.696   5.844 -34.651  1.00  0.00     0.063 C 
HETATM    2  C   UNL     1      -2.936   5.320 -33.966  1.00  0.00     0.007 C 
HETATM    3  C   UNL     1      -4.014   4.993 -34.709  1.00  0.00     0.094 C 
ENDROOT
BRANCH   2   4
HETATM    4  N   UNL     1      -2.842   5.168 -32.588  1.00  0.00    -0.207 NA
HETATM    5  H   UNL     1      -3.750   4.895 -32.163  1.00  0.00     0.152 HD
BRANCH   4   6
HETATM    6  N   UNL     1      -2.240   6.186 -31.815  1.00  0.00    -0.283 N 
HETATM    7  C   UNL     1      -1.188   5.795 -30.996  1.00  0.00     0.266 C 
HETATM    8  O   UNL     1      -0.628   4.706 -31.081  1.00  0.00    -0.266 OA
HETATM    9  H   UNL     1      -2.856   6.933 -31.519  1.00  0.00     0.184 HD
BRANCH   7  10
HETATM   10  C   UNL     1      -0.805   6.752 -29.921  1.00  0.00     0.033 A 
HETATM   11  C   UNL     1       0.526   6.976 -29.553  1.00  0.00     0.019 A 
HETATM   12  C   UNL     1       0.828   7.918 -28.562  1.00  0.00     0.024 A 
HETATM   13  C   UNL     1      -0.187   8.609 -27.894  1.00  0.00     0.005 A 
HETATM   14  C   UNL     1      -1.509   8.408 -28.293  1.00  0.00     0.024 A 
HETATM   15  C   UNL     1      -1.823   7.469 -29.281  1.00  0.00     0.019 A 
BRANCH  13  16
HETATM   16  N   UNL     1       0.131   9.643 -27.008  1.00  0.00    -0.303 NA
HETATM   17  H   UNL     1      -0.669  10.186 -26.699  1.00  0.00     0.124 HD
HETATM   18  H   UNL     1       0.892  10.236 -27.330  1.00  0.00     0.124 HD
ENDBRANCH  13  16
ENDBRANCH   7  10
ENDBRANCH   4   6
ENDBRANCH   2   4
BRANCH   3  19
HETATM   19  C   UNL     1      -5.258   4.470 -34.094  1.00  0.00     0.242 C 
HETATM   20  N   UNL     1      -5.065   3.322 -33.363  1.00  0.00    -0.357 N 
HETATM   21  H   UNL     1      -4.151   2.892 -33.335  1.00  0.00     0.162 HD
HETATM   22  O   UNL     1      -6.345   5.000 -34.278  1.00  0.00    -0.269 OA
BRANCH  20  23
HETATM   23  C   UNL     1      -6.198   2.552 -32.864  1.00  0.00     0.127 C 
BRANCH  23  24
HETATM   24  C   UNL     1      -6.786   1.631 -33.951  1.00  0.00     0.058 C 
BRANCH  24  25
HETATM   25  C   UNL     1      -6.175   0.250 -34.041  1.00  0.00    -0.054 A 
HETATM   26  C   UNL     1      -5.083  -0.107 -33.236  1.00  0.00     0.046 A 
HETATM   27  C   UNL     1      -4.550  -1.402 -33.259  1.00  0.00     0.102 A 
HETATM   28  C   UNL     1      -5.121  -2.372 -34.103  1.00  0.00     0.101 A 
HETATM   29  C   UNL     1      -6.223  -2.027 -34.892  1.00  0.00     0.040 A 
HETATM   30  C   UNL     1      -6.747  -0.730 -34.858  1.00  0.00     0.010 A 
BRANCH  27  31
HETATM   31  O   UNL     1      -3.476  -1.804 -32.502  1.00  0.00    -0.353 OA
HETATM   32  C   UNL     1      -2.745  -0.785 -31.827  1.00  0.00     0.210 C 
ENDBRANCH  27  31
BRANCH  28  33
HETATM   33  O   UNL     1      -4.544  -3.617 -34.067  1.00  0.00    -0.353 OA
HETATM   34  C   UNL     1      -5.279  -4.700 -34.613  1.00  0.00     0.210 C 
ENDBRANCH  28  33
ENDBRANCH  24  25
ENDBRANCH  23  24
ENDBRANCH  20  23
ENDBRANCH   3  19
TORSDOF 10
ENDMDL
MODEL 7
REMARK VINA RESULT:      -7.9      4.820      9.397
REMARK  10 active torsions:
REMARK  status: ('A' for Active; 'I' for Inactive)
REMARK    1  A    between atoms: C_2  and  N_3 
REMARK    2  A    between atoms: N_3  and  N_4 
REMARK       I    between atoms: N_4  and  C_5 
REMARK    3  A    between atoms: C_5  and  C_6 
REMARK    4  A    between atoms: C_9  and  N_10 
REMARK    5  A    between atoms: C_14  and  C_15 
REMARK       I    between atoms: C_15  and  N_16 
REMARK    6  A    between atoms: N_16  and  C_17 
REMARK    7  A    between atoms: C_17  and  C_18 
REMARK    8  A    between atoms: C_18  and  C_19 
REMARK    9  A    between atoms: C_21  and  O_22 
REMARK   10  A    between atoms: C_24  and  O_25 
ROOT
HETATM    1  C   UNL     1     -11.534   1.391 -34.423  1.00  0.00     0.063 C 
HETATM    2  C   UNL     1     -10.223   1.843 -33.824  1.00  0.00     0.007 C 
HETATM    3  C   UNL     1     -10.226   2.486 -32.637  1.00  0.00     0.094 C 
ENDROOT
BRANCH   2   4
HETATM    4  N   UNL     1      -9.084   1.504 -34.544  1.00  0.00    -0.207 NA
HETATM    5  H   UNL     1      -9.255   1.513 -35.570  1.00  0.00     0.152 HD
BRANCH   4   6
HETATM    6  N   UNL     1      -8.357   0.346 -34.191  1.00  0.00    -0.283 N 
HETATM    7  C   UNL     1      -6.979   0.490 -34.099  1.00  0.00     0.266 C 
HETATM    8  O   UNL     1      -6.408   1.577 -34.079  1.00  0.00    -0.266 OA
HETATM    9  H   UNL     1      -8.751  -0.532 -34.509  1.00  0.00     0.184 HD
BRANCH   7  10
HETATM   10  C   UNL     1      -6.187  -0.772 -34.104  1.00  0.00     0.033 A 
HETATM   11  C   UNL     1      -6.633  -1.937 -34.739  1.00  0.00     0.019 A 
HETATM   12  C   UNL     1      -5.827  -3.082 -34.744  1.00  0.00     0.024 A 
HETATM   13  C   UNL     1      -4.597  -3.098 -34.080  1.00  0.00     0.005 A 
HETATM   14  C   UNL     1      -4.143  -1.921 -33.483  1.00  0.00     0.024 A 
HETATM   15  C   UNL     1      -4.940  -0.772 -33.470  1.00  0.00     0.019 A 
BRANCH  13  16
HETATM   16  N   UNL     1      -3.743  -4.198 -34.210  1.00  0.00    -0.303 NA
HETATM   17  H   UNL     1      -3.735  -4.609 -35.138  1.00  0.00     0.124 HD
HETATM   18  H   UNL     1      -3.866  -4.899 -33.484  1.00  0.00     0.124 HD
ENDBRANCH  13  16
ENDBRANCH   7  10
ENDBRANCH   4   6
ENDBRANCH   2   4
BRANCH   3  19
HETATM   19  C   UNL     1      -8.972   2.952 -31.997  1.00  0.00     0.242 C 
HETATM   20  N   UNL     1      -8.709   2.332 -30.798  1.00  0.00    -0.357 N 
HETATM   21  H   UNL     1      -9.376   1.676 -30.415  1.00  0.00     0.162 HD
HETATM   22  O   UNL     1      -8.283   3.837 -32.484  1.00  0.00    -0.269 OA
BRANCH  20  23
HETATM   23  C   UNL     1      -7.641   2.807 -29.928  1.00  0.00     0.127 C 
BRANCH  23  24
HETATM   24  C   UNL     1      -6.334   2.019 -30.144  1.00  0.00     0.058 C 
BRANCH  24  25
HETATM   25  C   UNL     1      -5.206   2.786 -30.797  1.00  0.00    -0.054 A 
HETATM   26  C   UNL     1      -5.129   4.182 -30.690  1.00  0.00     0.046 A 
HETATM   27  C   UNL     1      -4.055   4.901 -31.230  1.00  0.00     0.102 A 
HETATM   28  C   UNL     1      -3.024   4.211 -31.893  1.00  0.00     0.101 A 
HETATM   29  C   UNL     1      -3.084   2.816 -31.985  1.00  0.00     0.040 A 
HETATM   30  C   UNL     1      -4.163   2.111 -31.438  1.00  0.00     0.010 A 
BRANCH  27  31
HETATM   31  O   UNL     1      -3.935   6.268 -31.166  1.00  0.00    -0.353 OA
HETATM   32  C   UNL     1      -5.048   7.035 -31.611  1.00  0.00     0.210 C 
ENDBRANCH  27  31
BRANCH  28  33
HETATM   33  O   UNL     1      -2.006   4.983 -32.393  1.00  0.00    -0.353 OA
HETATM   34  C   UNL     1      -1.784   4.955 -33.794  1.00  0.00     0.210 C 
ENDBRANCH  28  33
ENDBRANCH  24  25
ENDBRANCH  23  24
ENDBRANCH  20  23
ENDBRANCH   3  19
TORSDOF 10
ENDMDL
MODEL 8
REMARK VINA RESULT:      -7.8      4.215      9.516
REMARK  10 active torsions:
REMARK  status: ('A' for Active; 'I' for Inactive)
REMARK    1  A    between atoms: C_2  and  N_3 
REMARK    2  A    between atoms: N_3  and  N_4 
REMARK       I    between atoms: N_4  and  C_5 
REMARK    3  A    between atoms: C_5  and  C_6 
REMARK    4  A    between atoms: C_9  and  N_10 
REMARK    5  A    between atoms: C_14  and  C_15 
REMARK       I    between atoms: C_15  and  N_16 
REMARK    6  A    between atoms: N_16  and  C_17 
REMARK    7  A    between atoms: C_17  and  C_18 
REMARK    8  A    between atoms: C_18  and  C_19 
REMARK    9  A    between atoms: C_21  and  O_22 
REMARK   10  A    between atoms: C_24  and  O_25 
ROOT
HETATM    1  C   UNL     1     -11.589   0.738 -33.664  1.00  0.00     0.063 C 
HETATM    2  C   UNL     1     -10.534   1.656 -33.094  1.00  0.00     0.007 C 
HETATM    3  C   UNL     1     -10.383   2.892 -33.613  1.00  0.00     0.094 C 
ENDROOT
BRANCH   2   4
HETATM    4  N   UNL     1      -9.818   1.151 -32.015  1.00  0.00    -0.207 NA
HETATM    5  H   UNL     1      -9.390   1.907 -31.443  1.00  0.00     0.152 HD
BRANCH   4   6
HETATM    6  N   UNL     1      -8.875   0.121 -32.227  1.00  0.00    -0.283 N 
HETATM    7  C   UNL     1      -7.543   0.511 -32.291  1.00  0.00     0.266 C 
HETATM    8  O   UNL     1      -7.142   1.622 -31.952  1.00  0.00    -0.266 OA
HETATM    9  H   UNL     1      -9.197  -0.659 -32.788  1.00  0.00     0.184 HD
BRANCH   7  10
HETATM   10  C   UNL     1      -6.598  -0.478 -32.880  1.00  0.00     0.033 A 
HETATM   11  C   UNL     1      -5.282  -0.623 -32.427  1.00  0.00     0.019 A 
HETATM   12  C   UNL     1      -4.452  -1.599 -32.993  1.00  0.00     0.024 A 
HETATM   13  C   UNL     1      -4.902  -2.403 -34.044  1.00  0.00     0.005 A 
HETATM   14  C   UNL     1      -6.227  -2.279 -34.463  1.00  0.00     0.024 A 
HETATM   15  C   UNL     1      -7.065  -1.307 -33.907  1.00  0.00     0.019 A 
BRANCH  13  16
HETATM   16  N   UNL     1      -4.114  -3.463 -34.505  1.00  0.00    -0.303 NA
HETATM   17  H   UNL     1      -3.115  -3.300 -34.428  1.00  0.00     0.124 HD
HETATM   18  H   UNL     1      -4.375  -3.793 -35.430  1.00  0.00     0.124 HD
ENDBRANCH  13  16
ENDBRANCH   7  10
ENDBRANCH   4   6
ENDBRANCH   2   4
BRANCH   3  19
HETATM   19  C   UNL     1      -9.367   3.840 -33.093  1.00  0.00     0.242 C 
HETATM   20  N   UNL     1      -8.256   3.943 -33.895  1.00  0.00    -0.357 N 
HETATM   21  H   UNL     1      -8.172   3.358 -34.715  1.00  0.00     0.162 HD
HETATM   22  O   UNL     1      -9.508   4.423 -32.026  1.00  0.00    -0.269 OA
BRANCH  20  23
HETATM   23  C   UNL     1      -7.070   4.660 -33.444  1.00  0.00     0.127 C 
BRANCH  23  24
HETATM   24  C   UNL     1      -5.817   4.256 -34.246  1.00  0.00     0.058 C 
BRANCH  24  25
HETATM   25  C   UNL     1      -4.521   4.228 -33.467  1.00  0.00    -0.054 A 
HETATM   26  C   UNL     1      -3.401   4.948 -33.908  1.00  0.00     0.046 A 
HETATM   27  C   UNL     1      -2.216   4.987 -33.163  1.00  0.00     0.102 A 
HETATM   28  C   UNL     1      -2.142   4.293 -31.942  1.00  0.00     0.101 A 
HETATM   29  C   UNL     1      -3.262   3.589 -31.486  1.00  0.00     0.040 A 
HETATM   30  C   UNL     1      -4.441   3.562 -32.240  1.00  0.00     0.010 A 
BRANCH  27  31
HETATM   31  O   UNL     1      -1.086   5.665 -33.552  1.00  0.00    -0.353 OA
HETATM   32  C   UNL     1      -1.213   7.068 -33.753  1.00  0.00     0.210 C 
ENDBRANCH  27  31
BRANCH  28  33
HETATM   33  O   UNL     1      -0.948   4.381 -31.270  1.00  0.00    -0.353 OA
HETATM   34  C   UNL     1      -0.785   5.451 -30.353  1.00  0.00     0.210 C 
ENDBRANCH  28  33
ENDBRANCH  24  25
ENDBRANCH  23  24
ENDBRANCH  20  23
ENDBRANCH   3  19
TORSDOF 10
ENDMDL
MODEL 9
REMARK VINA RESULT:      -7.8      4.909      9.603
REMARK  10 active torsions:
REMARK  status: ('A' for Active; 'I' for Inactive)
REMARK    1  A    between atoms: C_2  and  N_3 
REMARK    2  A    between atoms: N_3  and  N_4 
REMARK       I    between atoms: N_4  and  C_5 
REMARK    3  A    between atoms: C_5  and  C_6 
REMARK    4  A    between atoms: C_9  and  N_10 
REMARK    5  A    between atoms: C_14  and  C_15 
REMARK       I    between atoms: C_15  and  N_16 
REMARK    6  A    between atoms: N_16  and  C_17 
REMARK    7  A    between atoms: C_17  and  C_18 
REMARK    8  A    between atoms: C_18  and  C_19 
REMARK    9  A    between atoms: C_21  and  O_22 
REMARK   10  A    between atoms: C_24  and  O_25 
ROOT
HETATM    1  C   UNL     1     -10.155  -0.077 -32.743  1.00  0.00     0.063 C 
HETATM    2  C   UNL     1      -9.382   1.215 -32.869  1.00  0.00     0.007 C 
HETATM    3  C   UNL     1     -10.050   2.367 -33.085  1.00  0.00     0.094 C 
ENDROOT
BRANCH   2   4
HETATM    4  N   UNL     1      -8.006   1.111 -32.698  1.00  0.00    -0.207 NA
HETATM    5  H   UNL     1      -7.487   1.779 -33.301  1.00  0.00     0.152 HD
BRANCH   4   6
HETATM    6  N   UNL     1      -7.393  -0.161 -32.756  1.00  0.00    -0.283 N 
HETATM    7  C   UNL     1      -6.300  -0.277 -33.605  1.00  0.00     0.266 C 
HETATM    8  O   UNL     1      -5.722   0.684 -34.105  1.00  0.00    -0.266 OA
HETATM    9  H   UNL     1      -8.012  -0.952 -32.621  1.00  0.00     0.184 HD
BRANCH   7  10
HETATM   10  C   UNL     1      -5.891  -1.665 -33.959  1.00  0.00     0.033 A 
HETATM   11  C   UNL     1      -4.577  -2.122 -33.814  1.00  0.00     0.019 A 
HETATM   12  C   UNL     1      -4.260  -3.449 -34.126  1.00  0.00     0.024 A 
HETATM   13  C   UNL     1      -5.230  -4.320 -34.632  1.00  0.00     0.005 A 
HETATM   14  C   UNL     1      -6.546  -3.868 -34.737  1.00  0.00     0.024 A 
HETATM   15  C   UNL     1      -6.874  -2.543 -34.430  1.00  0.00     0.019 A 
BRANCH  13  16
HETATM   16  N   UNL     1      -4.935  -5.676 -34.808  1.00  0.00    -0.303 NA
HETATM   17  H   UNL     1      -4.309  -6.058 -34.106  1.00  0.00     0.124 HD
HETATM   18  H   UNL     1      -4.637  -5.909 -35.751  1.00  0.00     0.124 HD
ENDBRANCH  13  16
ENDBRANCH   7  10
ENDBRANCH   4   6
ENDBRANCH   2   4
BRANCH   3  19
HETATM   19  C   UNL     1      -9.347   3.667 -33.213  1.00  0.00     0.242 C 
HETATM   20  N   UNL     1      -8.785   4.102 -32.037  1.00  0.00    -0.357 N 
HETATM   21  H   UNL     1      -8.925   3.573 -31.187  1.00  0.00     0.162 HD
HETATM   22  O   UNL     1      -9.327   4.293 -34.264  1.00  0.00    -0.269 OA
BRANCH  20  23
HETATM   23  C   UNL     1      -8.240   5.449 -31.920  1.00  0.00     0.127 C 
BRANCH  23  24
HETATM   24  C   UNL     1      -7.003   5.487 -31.001  1.00  0.00     0.058 C 
BRANCH  24  25
HETATM   25  C   UNL     1      -5.672   5.258 -31.682  1.00  0.00    -0.054 A 
HETATM   26  C   UNL     1      -4.863   4.169 -31.331  1.00  0.00     0.046 A 
HETATM   27  C   UNL     1      -3.660   3.904 -31.998  1.00  0.00     0.102 A 
HETATM   28  C   UNL     1      -3.252   4.745 -33.049  1.00  0.00     0.101 A 
HETATM   29  C   UNL     1      -4.066   5.822 -33.419  1.00  0.00     0.040 A 
HETATM   30  C   UNL     1      -5.266   6.072 -32.744  1.00  0.00     0.010 A 
BRANCH  27  31
HETATM   31  O   UNL     1      -2.823   2.860 -31.689  1.00  0.00    -0.353 OA
HETATM   32  C   UNL     1      -3.433   1.607 -31.403  1.00  0.00     0.210 C 
ENDBRANCH  27  31
BRANCH  28  33
HETATM   33  O   UNL     1      -2.065   4.420 -33.655  1.00  0.00    -0.353 OA
HETATM   34  C   UNL     1      -1.744   5.075 -34.872  1.00  0.00     0.210 C 
ENDBRANCH  28  33
ENDBRANCH  24  25
ENDBRANCH  23  24
ENDBRANCH  20  23
ENDBRANCH   3  19
TORSDOF 10
ENDMDL
MODEL 10
REMARK VINA RESULT:      -7.7      2.568     11.101
REMARK  10 active torsions:
REMARK  status: ('A' for Active; 'I' for Inactive)
REMARK    1  A    between atoms: C_2  and  N_3 
REMARK    2  A    between atoms: N_3  and  N_4 
REMARK       I    between atoms: N_4  and  C_5 
REMARK    3  A    between atoms: C_5  and  C_6 
REMARK    4  A    between atoms: C_9  and  N_10 
REMARK    5  A    between atoms: C_14  and  C_15 
REMARK       I    between atoms: C_15  and  N_16 
REMARK    6  A    between atoms: N_16  and  C_17 
REMARK    7  A    between atoms: C_17  and  C_18 
REMARK    8  A    between atoms: C_18  and  C_19 
REMARK    9  A    between atoms: C_21  and  O_22 
REMARK   10  A    between atoms: C_24  and  O_25 
ROOT
HETATM    1  C   UNL     1      -5.456   4.136 -34.180  1.00  0.00     0.063 C 
HETATM    2  C   UNL     1      -4.505   3.813 -33.052  1.00  0.00     0.007 C 
HETATM    3  C   UNL     1      -3.396   4.563 -32.886  1.00  0.00     0.094 C 
ENDROOT
BRANCH   2   4
HETATM    4  N   UNL     1      -4.890   2.766 -32.223  1.00  0.00    -0.207 NA
HETATM    5  H   UNL     1      -4.138   2.499 -31.557  1.00  0.00     0.152 HD
BRANCH   4   6
HETATM    6  N   UNL     1      -5.461   1.604 -32.789  1.00  0.00    -0.283 N 
HETATM    7  C   UNL     1      -4.942   0.391 -32.356  1.00  0.00     0.266 C 
HETATM    8  O   UNL     1      -4.209   0.275 -31.376  1.00  0.00    -0.266 OA
HETATM    9  H   UNL     1      -5.789   1.698 -33.743  1.00  0.00     0.184 HD
BRANCH   7  10
HETATM   10  C   UNL     1      -5.256  -0.795 -33.200  1.00  0.00     0.033 A 
HETATM   11  C   UNL     1      -4.280  -1.716 -33.596  1.00  0.00     0.019 A 
HETATM   12  C   UNL     1      -4.642  -2.834 -34.357  1.00  0.00     0.024 A 
HETATM   13  C   UNL     1      -5.963  -3.022 -34.774  1.00  0.00     0.005 A 
HETATM   14  C   UNL     1      -6.936  -2.120 -34.343  1.00  0.00     0.024 A 
HETATM   15  C   UNL     1      -6.586  -0.999 -33.584  1.00  0.00     0.019 A 
BRANCH  13  16
HETATM   16  N   UNL     1      -6.336  -4.209 -35.413  1.00  0.00    -0.303 NA
HETATM   17  H   UNL     1      -6.261  -4.176 -36.425  1.00  0.00     0.124 HD
HETATM   18  H   UNL     1      -7.237  -4.570 -35.109  1.00  0.00     0.124 HD
ENDBRANCH  13  16
ENDBRANCH   7  10
ENDBRANCH   4   6
ENDBRANCH   2   4
BRANCH   3  19
HETATM   19  C   UNL     1      -2.427   4.297 -31.795  1.00  0.00     0.242 C 
HETATM   20  N   UNL     1      -1.683   5.399 -31.445  1.00  0.00    -0.357 N 
HETATM   21  H   UNL     1      -1.791   6.262 -31.960  1.00  0.00     0.162 HD
HETATM   22  O   UNL     1      -2.288   3.184 -31.307  1.00  0.00    -0.269 OA
BRANCH  20  23
HETATM   23  C   UNL     1      -0.542   5.278 -30.546  1.00  0.00     0.127 C 
BRANCH  23  24
HETATM   24  C   UNL     1       0.223   6.609 -30.411  1.00  0.00     0.058 C 
BRANCH  24  25
HETATM   25  C   UNL     1       0.114   7.295 -29.068  1.00  0.00    -0.054 A 
HETATM   26  C   UNL     1      -0.973   7.043 -28.218  1.00  0.00     0.046 A 
HETATM   27  C   UNL     1      -1.055   7.618 -26.944  1.00  0.00     0.102 A 
HETATM   28  C   UNL     1      -0.024   8.465 -26.499  1.00  0.00     0.101 A 
HETATM   29  C   UNL     1       1.073   8.704 -27.333  1.00  0.00     0.040 A 
HETATM   30  C   UNL     1       1.142   8.120 -28.604  1.00  0.00     0.010 A 
BRANCH  27  31
HETATM   31  O   UNL     1      -2.100   7.417 -26.075  1.00  0.00    -0.353 OA
HETATM   32  C   UNL     1      -3.284   6.838 -26.614  1.00  0.00     0.210 C 
ENDBRANCH  27  31
BRANCH  28  33
HETATM   33  O   UNL     1      -0.175   8.988 -25.238  1.00  0.00    -0.353 OA
HETATM   34  C   UNL     1       0.967   9.558 -24.620  1.00  0.00     0.210 C 
ENDBRANCH  28  33
ENDBRANCH  24  25
ENDBRANCH  23  24
ENDBRANCH  20  23
ENDBRANCH   3  19
TORSDOF 10
ENDMDL
