MODEL 1
REMARK VINA RESULT:      -9.0      0.000      0.000
REMARK  11 active torsions:
REMARK  status: ('A' for Active; 'I' for Inactive)
REMARK    1  A    between atoms: C_2  and  O_3 
REMARK    2  A    between atoms: O_3  and  C_4 
REMARK    3  A    between atoms: C_7  and  N_8 
REMARK    4  A    between atoms: C_9  and  S_10 
REMARK    5  A    between atoms: S_10  and  C_11 
REMARK    6  A    between atoms: C_11  and  C_12 
REMARK       I    between atoms: C_12  and  N_13 
REMARK    7  A    between atoms: N_13  and  C_14 
REMARK    8  A    between atoms: C_15  and  C_16 
REMARK    9  A    between atoms: C_16  and  O_17 
REMARK   10  A    between atoms: O_17  and  C_18 
REMARK   11  A    between atoms: C_29  and  N_30 
ROOT
HETATM    1  N   UNL     1      -7.061   0.399 -33.023  1.00  0.00    -0.276 N 
HETATM    2  C   UNL     1      -6.378   0.748 -31.828  1.00  0.00     0.177 C 
HETATM    3  N   UNL     1      -5.358   0.111 -31.320  1.00  0.00    -0.204 NA
HETATM    4  C   UNL     1      -4.916  -0.922 -32.067  1.00  0.00     0.162 A 
HETATM    5  C   UNL     1      -5.343  -1.336 -33.297  1.00  0.00     0.081 A 
HETATM    6  C   UNL     1      -6.474  -0.655 -33.849  1.00  0.00     0.124 C 
HETATM    7  N   UNL     1      -3.857  -1.724 -31.757  1.00  0.00    -0.260 N 
HETATM    8  H   UNL     1      -3.279  -1.699 -30.923  1.00  0.00     0.191 HD
HETATM    9  N   UNL     1      -3.566  -2.604 -32.743  1.00  0.00    -0.177 NA
HETATM   10  C   UNL     1      -4.483  -2.368 -33.695  1.00  0.00     0.068 A 
HETATM   11  C   UNL     1      -4.452  -3.155 -34.949  1.00  0.00     0.073 C 
ENDROOT
BRANCH   2  12
HETATM   12  S   UNL     1      -6.764   2.271 -31.002  1.00  0.00    -0.082 SA
BRANCH  12  13
HETATM   13  C   UNL     1      -5.208   2.730 -30.184  1.00  0.00     0.185 C 
BRANCH  13  14
HETATM   14  C   UNL     1      -4.042   3.188 -31.059  1.00  0.00     0.231 C 
HETATM   15  N   UNL     1      -4.111   4.471 -31.584  1.00  0.00    -0.326 N 
HETATM   16  H   UNL     1      -5.052   4.839 -31.612  1.00  0.00     0.169 HD
HETATM   17  O   UNL     1      -3.122   2.402 -31.295  1.00  0.00    -0.272 OA
BRANCH  15  18
HETATM   18  C   UNL     1      -3.236   4.902 -32.612  1.00  0.00     0.051 A 
HETATM   19  C   UNL     1      -1.864   5.155 -32.444  1.00  0.00     0.066 A 
HETATM   20  C   UNL     1      -1.063   5.399 -33.576  1.00  0.00     0.020 A 
HETATM   21  C   UNL     1      -1.623   5.422 -34.854  1.00  0.00     0.001 A 
HETATM   22  C   UNL     1      -2.995   5.254 -35.010  1.00  0.00     0.002 A 
HETATM   23  C   UNL     1      -3.799   5.017 -33.895  1.00  0.00     0.030 A 
BRANCH  19  24
HETATM   24  C   UNL     1      -1.280   5.379 -31.094  1.00  0.00     0.295 C 
HETATM   25  O   UNL     1      -0.384   4.697 -30.622  1.00  0.00    -0.259 OA
BRANCH  24  26
HETATM   26  O   UNL     1      -1.964   6.360 -30.450  1.00  0.00    -0.318 OA
BRANCH  26  27
HETATM   27  C   UNL     1      -1.368   7.663 -30.499  1.00  0.00     0.174 C 
HETATM   28  C   UNL     1      -2.096   8.563 -31.479  1.00  0.00     0.034 C 
ENDBRANCH  26  27
ENDBRANCH  24  26
ENDBRANCH  19  24
ENDBRANCH  15  18
ENDBRANCH  13  14
ENDBRANCH  12  13
ENDBRANCH   2  12
BRANCH   1  29
HETATM   29  C   UNL     1      -8.437   0.736 -33.223  1.00  0.00     0.043 A 
HETATM   30  C   UNL     1      -8.840   1.794 -34.043  1.00  0.00     0.033 A 
HETATM   31  C   UNL     1     -10.199   2.001 -34.310  1.00  0.00     0.039 A 
HETATM   32  C   UNL     1     -11.168   1.136 -33.797  1.00  0.00     0.068 A 
HETATM   33  C   UNL     1     -10.782   0.099 -32.952  1.00  0.00     0.039 A 
HETATM   34  C   UNL     1      -9.429  -0.097 -32.669  1.00  0.00     0.033 A 
BRANCH  32  35
HETATM   35  O   UNL     1     -12.459   1.405 -34.154  1.00  0.00    -0.352 OA
BRANCH  35  36
HETATM   36  C   UNL     1     -13.392   0.349 -33.907  1.00  0.00     0.171 C 
HETATM   37  C   UNL     1     -14.775   0.836 -34.299  1.00  0.00     0.034 C 
ENDBRANCH  35  36
ENDBRANCH  32  35
ENDBRANCH   1  29
BRANCH   6  38
HETATM   38  N   UNL     1      -6.949  -0.963 -35.040  1.00  0.00    -0.384 N 
HETATM   39  H   UNL     1      -6.615  -0.520 -35.883  1.00  0.00     0.157 HD
HETATM   40  H   UNL     1      -7.693  -1.647 -35.119  1.00  0.00     0.157 HD
ENDBRANCH   6  38
TORSDOF 11
ENDMDL
MODEL 2
REMARK VINA RESULT:      -8.9      1.422      2.379
REMARK  11 active torsions:
REMARK  status: ('A' for Active; 'I' for Inactive)
REMARK    1  A    between atoms: C_2  and  O_3 
REMARK    2  A    between atoms: O_3  and  C_4 
REMARK    3  A    between atoms: C_7  and  N_8 
REMARK    4  A    between atoms: C_9  and  S_10 
REMARK    5  A    between atoms: S_10  and  C_11 
REMARK    6  A    between atoms: C_11  and  C_12 
REMARK       I    between atoms: C_12  and  N_13 
REMARK    7  A    between atoms: N_13  and  C_14 
REMARK    8  A    between atoms: C_15  and  C_16 
REMARK    9  A    between atoms: C_16  and  O_17 
REMARK   10  A    between atoms: O_17  and  C_18 
REMARK   11  A    between atoms: C_29  and  N_30 
ROOT
HETATM    1  N   UNL     1      -6.956   0.663 -33.107  1.00  0.00    -0.276 N 
HETATM    2  C   UNL     1      -6.249   1.069 -31.944  1.00  0.00     0.177 C 
HETATM    3  N   UNL     1      -5.248   0.431 -31.400  1.00  0.00    -0.204 NA
HETATM    4  C   UNL     1      -4.852  -0.667 -32.076  1.00  0.00     0.162 A 
HETATM    5  C   UNL     1      -5.305  -1.149 -33.271  1.00  0.00     0.081 A 
HETATM    6  C   UNL     1      -6.415  -0.467 -33.861  1.00  0.00     0.124 C 
HETATM    7  N   UNL     1      -3.820  -1.485 -31.719  1.00  0.00    -0.260 N 
HETATM    8  H   UNL     1      -3.233  -1.423 -30.893  1.00  0.00     0.191 HD
HETATM    9  N   UNL     1      -3.570  -2.441 -32.643  1.00  0.00    -0.177 NA
HETATM   10  C   UNL     1      -4.487  -2.238 -33.602  1.00  0.00     0.068 A 
HETATM   11  C   UNL     1      -4.497  -3.111 -34.799  1.00  0.00     0.073 C 
ENDROOT
BRANCH   2  12
HETATM   12  S   UNL     1      -6.571   2.659 -31.224  1.00  0.00    -0.082 SA
BRANCH  12  13
HETATM   13  C   UNL     1      -5.039   3.051 -30.331  1.00  0.00     0.185 C 
BRANCH  13  14
HETATM   14  C   UNL     1      -4.197   4.227 -30.826  1.00  0.00     0.231 C 
HETATM   15  N   UNL     1      -3.028   3.925 -31.511  1.00  0.00    -0.326 N 
HETATM   16  H   UNL     1      -2.689   2.991 -31.324  1.00  0.00     0.169 HD
HETATM   17  O   UNL     1      -4.559   5.377 -30.567  1.00  0.00    -0.272 OA
BRANCH  15  18
HETATM   18  C   UNL     1      -2.045   4.911 -31.775  1.00  0.00     0.051 A 
HETATM   19  C   UNL     1      -2.046   5.765 -32.892  1.00  0.00     0.066 A 
HETATM   20  C   UNL     1      -1.121   6.825 -32.951  1.00  0.00     0.020 A 
HETATM   21  C   UNL     1      -0.189   7.016 -31.931  1.00  0.00     0.001 A 
HETATM   22  C   UNL     1      -0.136   6.120 -30.868  1.00  0.00     0.002 A 
HETATM   23  C   UNL     1      -1.044   5.063 -30.801  1.00  0.00     0.030 A 
BRANCH  19  24
HETATM   24  C   UNL     1      -2.852   5.452 -34.102  1.00  0.00     0.295 C 
HETATM   25  O   UNL     1      -2.379   4.997 -35.132  1.00  0.00    -0.259 OA
BRANCH  24  26
HETATM   26  O   UNL     1      -4.138   5.853 -33.920  1.00  0.00    -0.318 OA
BRANCH  26  27
HETATM   27  C   UNL     1      -5.141   4.909 -34.316  1.00  0.00     0.174 C 
HETATM   28  C   UNL     1      -6.482   5.239 -33.691  1.00  0.00     0.034 C 
ENDBRANCH  26  27
ENDBRANCH  24  26
ENDBRANCH  19  24
ENDBRANCH  15  18
ENDBRANCH  13  14
ENDBRANCH  12  13
ENDBRANCH   2  12
BRANCH   1  29
HETATM   29  C   UNL     1      -8.321   1.036 -33.321  1.00  0.00     0.043 A 
HETATM   30  C   UNL     1      -8.684   2.150 -34.083  1.00  0.00     0.033 A 
HETATM   31  C   UNL     1     -10.033   2.397 -34.370  1.00  0.00     0.039 A 
HETATM   32  C   UNL     1     -11.028   1.519 -33.937  1.00  0.00     0.068 A 
HETATM   33  C   UNL     1     -10.682   0.425 -33.150  1.00  0.00     0.039 A 
HETATM   34  C   UNL     1      -9.340   0.188 -32.844  1.00  0.00     0.033 A 
BRANCH  32  35
HETATM   35  O   UNL     1     -12.305   1.833 -34.309  1.00  0.00    -0.352 OA
BRANCH  35  36
HETATM   36  C   UNL     1     -13.330   1.355 -33.433  1.00  0.00     0.171 C 
HETATM   37  C   UNL     1     -14.347   0.593 -34.262  1.00  0.00     0.034 C 
ENDBRANCH  35  36
ENDBRANCH  32  35
ENDBRANCH   1  29
BRANCH   6  38
HETATM   38  N   UNL     1      -6.913  -0.839 -35.025  1.00  0.00    -0.384 N 
HETATM   39  H   UNL     1      -7.632  -0.310 -35.495  1.00  0.00     0.157 HD
HETATM   40  H   UNL     1      -6.586  -1.695 -35.457  1.00  0.00     0.157 HD
ENDBRANCH   6  38
TORSDOF 11
ENDMDL
MODEL 3
REMARK VINA RESULT:      -8.7      2.831      5.929
REMARK  11 active torsions:
REMARK  status: ('A' for Active; 'I' for Inactive)
REMARK    1  A    between atoms: C_2  and  O_3 
REMARK    2  A    between atoms: O_3  and  C_4 
REMARK    3  A    between atoms: C_7  and  N_8 
REMARK    4  A    between atoms: C_9  and  S_10 
REMARK    5  A    between atoms: S_10  and  C_11 
REMARK    6  A    between atoms: C_11  and  C_12 
REMARK       I    between atoms: C_12  and  N_13 
REMARK    7  A    between atoms: N_13  and  C_14 
REMARK    8  A    between atoms: C_15  and  C_16 
REMARK    9  A    between atoms: C_16  and  O_17 
REMARK   10  A    between atoms: O_17  and  C_18 
REMARK   11  A    between atoms: C_29  and  N_30 
ROOT
HETATM    1  N   UNL     1      -9.374   1.364 -32.871  1.00  0.00    -0.276 N 
HETATM    2  C   UNL     1      -9.429   2.782 -32.952  1.00  0.00     0.177 C 
HETATM    3  N   UNL     1     -10.467   3.482 -33.325  1.00  0.00    -0.204 NA
HETATM    4  C   UNL     1     -11.571   2.752 -33.583  1.00  0.00     0.162 A 
HETATM    5  C   UNL     1     -11.764   1.407 -33.439  1.00  0.00     0.081 A 
HETATM    6  C   UNL     1     -10.626   0.631 -33.052  1.00  0.00     0.124 C 
HETATM    7  N   UNL     1     -12.778   3.256 -33.969  1.00  0.00    -0.260 N 
HETATM    8  H   UNL     1     -13.018   4.225 -34.157  1.00  0.00     0.191 HD
HETATM    9  N   UNL     1     -13.739   2.306 -34.043  1.00  0.00    -0.177 NA
HETATM   10  C   UNL     1     -13.115   1.162 -33.719  1.00  0.00     0.068 A 
HETATM   11  C   UNL     1     -13.883  -0.103 -33.681  1.00  0.00     0.073 C 
ENDROOT
BRANCH   2  12
HETATM   12  S   UNL     1      -8.082   3.756 -32.333  1.00  0.00    -0.082 SA
BRANCH  12  13
HETATM   13  C   UNL     1      -7.330   4.461 -33.829  1.00  0.00     0.185 C 
BRANCH  13  14
HETATM   14  C   UNL     1      -5.976   5.157 -33.695  1.00  0.00     0.231 C 
HETATM   15  N   UNL     1      -4.851   4.427 -34.055  1.00  0.00    -0.326 N 
HETATM   16  H   UNL     1      -5.007   3.428 -34.047  1.00  0.00     0.169 HD
HETATM   17  O   UNL     1      -5.931   6.303 -33.242  1.00  0.00    -0.272 OA
BRANCH  15  18
HETATM   18  C   UNL     1      -3.544   4.863 -33.722  1.00  0.00     0.051 A 
HETATM   19  C   UNL     1      -2.802   4.407 -32.619  1.00  0.00     0.066 A 
HETATM   20  C   UNL     1      -1.449   4.775 -32.497  1.00  0.00     0.020 A 
HETATM   21  C   UNL     1      -0.849   5.609 -33.440  1.00  0.00     0.001 A 
HETATM   22  C   UNL     1      -1.607   6.126 -34.485  1.00  0.00     0.002 A 
HETATM   23  C   UNL     1      -2.951   5.773 -34.614  1.00  0.00     0.030 A 
BRANCH  19  24
HETATM   24  C   UNL     1      -3.463   3.723 -31.474  1.00  0.00     0.295 C 
HETATM   25  O   UNL     1      -4.366   4.219 -30.818  1.00  0.00    -0.259 OA
BRANCH  24  26
HETATM   26  O   UNL     1      -2.837   2.545 -31.214  1.00  0.00    -0.318 OA
BRANCH  26  27
HETATM   27  C   UNL     1      -3.680   1.385 -31.218  1.00  0.00     0.174 C 
HETATM   28  C   UNL     1      -2.858   0.111 -31.175  1.00  0.00     0.034 C 
ENDBRANCH  26  27
ENDBRANCH  24  26
ENDBRANCH  19  24
ENDBRANCH  15  18
ENDBRANCH  13  14
ENDBRANCH  12  13
ENDBRANCH   2  12
BRANCH   1  29
HETATM   29  C   UNL     1      -8.140   0.655 -33.021  1.00  0.00     0.043 A 
HETATM   30  C   UNL     1      -7.427   0.150 -31.930  1.00  0.00     0.033 A 
HETATM   31  C   UNL     1      -6.295  -0.648 -32.136  1.00  0.00     0.039 A 
HETATM   32  C   UNL     1      -5.884  -0.984 -33.428  1.00  0.00     0.068 A 
HETATM   33  C   UNL     1      -6.566  -0.461 -34.522  1.00  0.00     0.039 A 
HETATM   34  C   UNL     1      -7.683   0.353 -34.318  1.00  0.00     0.033 A 
BRANCH  32  35
HETATM   35  O   UNL     1      -4.793  -1.802 -33.513  1.00  0.00    -0.352 OA
BRANCH  35  36
HETATM   36  C   UNL     1      -4.873  -2.822 -34.513  1.00  0.00     0.171 C 
HETATM   37  C   UNL     1      -4.046  -4.008 -34.050  1.00  0.00     0.034 C 
ENDBRANCH  35  36
ENDBRANCH  32  35
ENDBRANCH   1  29
BRANCH   6  38
HETATM   38  N   UNL     1     -10.712  -0.672 -32.863  1.00  0.00    -0.384 N 
HETATM   39  H   UNL     1     -11.439  -1.229 -33.285  1.00  0.00     0.157 HD
HETATM   40  H   UNL     1     -10.045  -1.132 -32.254  1.00  0.00     0.157 HD
ENDBRANCH   6  38
TORSDOF 11
ENDMDL
MODEL 4
REMARK VINA RESULT:      -8.7      1.745      2.592
REMARK  11 active torsions:
REMARK  status: ('A' for Active; 'I' for Inactive)
REMARK    1  A    between atoms: C_2  and  O_3 
REMARK    2  A    between atoms: O_3  and  C_4 
REMARK    3  A    between atoms: C_7  and  N_8 
REMARK    4  A    between atoms: C_9  and  S_10 
REMARK    5  A    between atoms: S_10  and  C_11 
REMARK    6  A    between atoms: C_11  and  C_12 
REMARK       I    between atoms: C_12  and  N_13 
REMARK    7  A    between atoms: N_13  and  C_14 
REMARK    8  A    between atoms: C_15  and  C_16 
REMARK    9  A    between atoms: C_16  and  O_17 
REMARK   10  A    between atoms: O_17  and  C_18 
REMARK   11  A    between atoms: C_29  and  N_30 
ROOT
HETATM    1  N   UNL     1      -6.040   0.222 -33.042  1.00  0.00    -0.276 N 
HETATM    2  C   UNL     1      -5.199   1.060 -32.261  1.00  0.00     0.177 C 
HETATM    3  N   UNL     1      -4.107   0.685 -31.650  1.00  0.00    -0.204 NA
HETATM    4  C   UNL     1      -3.761  -0.600 -31.864  1.00  0.00     0.162 A 
HETATM    5  C   UNL     1      -4.351  -1.525 -32.678  1.00  0.00     0.081 A 
HETATM    6  C   UNL     1      -5.560  -1.128 -33.333  1.00  0.00     0.124 C 
HETATM    7  N   UNL     1      -2.655  -1.216 -31.353  1.00  0.00    -0.260 N 
HETATM    8  H   UNL     1      -1.965  -0.828 -30.717  1.00  0.00     0.191 HD
HETATM    9  N   UNL     1      -2.493  -2.472 -31.827  1.00  0.00    -0.177 NA
HETATM   10  C   UNL     1      -3.541  -2.668 -32.645  1.00  0.00     0.068 A 
HETATM   11  C   UNL     1      -3.676  -3.956 -33.362  1.00  0.00     0.073 C 
ENDROOT
BRANCH   2  12
HETATM   12  S   UNL     1      -5.488   2.810 -32.220  1.00  0.00    -0.082 SA
BRANCH  12  13
HETATM   13  C   UNL     1      -3.948   3.521 -32.872  1.00  0.00     0.185 C 
BRANCH  13  14
HETATM   14  C   UNL     1      -3.212   4.553 -32.017  1.00  0.00     0.231 C 
HETATM   15  N   UNL     1      -1.911   4.865 -32.385  1.00  0.00    -0.326 N 
HETATM   16  H   UNL     1      -1.478   4.154 -32.958  1.00  0.00     0.169 HD
HETATM   17  O   UNL     1      -3.776   5.027 -31.029  1.00  0.00    -0.272 OA
BRANCH  15  18
HETATM   18  C   UNL     1      -1.049   5.591 -31.524  1.00  0.00     0.051 A 
HETATM   19  C   UNL     1      -0.967   6.993 -31.467  1.00  0.00     0.066 A 
HETATM   20  C   UNL     1      -0.211   7.599 -30.447  1.00  0.00     0.020 A 
HETATM   21  C   UNL     1       0.478   6.825 -29.513  1.00  0.00     0.001 A 
HETATM   22  C   UNL     1       0.463   5.438 -29.622  1.00  0.00     0.002 A 
HETATM   23  C   UNL     1      -0.279   4.826 -30.633  1.00  0.00     0.030 A 
BRANCH  19  24
HETATM   24  C   UNL     1      -1.481   7.842 -32.576  1.00  0.00     0.295 C 
HETATM   25  O   UNL     1      -1.274   7.612 -33.758  1.00  0.00    -0.259 OA
BRANCH  24  26
HETATM   26  O   UNL     1      -2.098   8.942 -32.070  1.00  0.00    -0.318 OA
BRANCH  26  27
HETATM   27  C   UNL     1      -3.326   8.695 -31.372  1.00  0.00     0.174 C 
HETATM   28  C   UNL     1      -3.417   9.532 -30.111  1.00  0.00     0.034 C 
ENDBRANCH  26  27
ENDBRANCH  24  26
ENDBRANCH  19  24
ENDBRANCH  15  18
ENDBRANCH  13  14
ENDBRANCH  12  13
ENDBRANCH   2  12
BRANCH   1  29
HETATM   29  C   UNL     1      -7.436   0.497 -33.194  1.00  0.00     0.043 A 
HETATM   30  C   UNL     1      -7.989   0.924 -34.405  1.00  0.00     0.033 A 
HETATM   31  C   UNL     1      -9.377   1.055 -34.538  1.00  0.00     0.039 A 
HETATM   32  C   UNL     1     -10.230   0.724 -33.482  1.00  0.00     0.068 A 
HETATM   33  C   UNL     1      -9.690   0.330 -32.262  1.00  0.00     0.039 A 
HETATM   34  C   UNL     1      -8.305   0.219 -32.121  1.00  0.00     0.033 A 
BRANCH  32  35
HETATM   35  O   UNL     1     -11.568   0.848 -33.735  1.00  0.00    -0.352 OA
BRANCH  35  36
HETATM   36  C   UNL     1     -11.965   2.095 -34.312  1.00  0.00     0.171 C 
HETATM   37  C   UNL     1     -13.447   2.020 -34.632  1.00  0.00     0.034 C 
ENDBRANCH  35  36
ENDBRANCH  32  35
ENDBRANCH   1  29
BRANCH   6  38
HETATM   38  N   UNL     1      -6.195  -1.938 -34.158  1.00  0.00    -0.384 N 
HETATM   39  H   UNL     1      -6.616  -1.611 -35.014  1.00  0.00     0.157 HD
HETATM   40  H   UNL     1      -6.290  -2.918 -33.919  1.00  0.00     0.157 HD
ENDBRANCH   6  38
TORSDOF 11
ENDMDL
MODEL 5
REMARK VINA RESULT:      -8.7      2.750      7.401
REMARK  11 active torsions:
REMARK  status: ('A' for Active; 'I' for Inactive)
REMARK    1  A    between atoms: C_2  and  O_3 
REMARK    2  A    between atoms: O_3  and  C_4 
REMARK    3  A    between atoms: C_7  and  N_8 
REMARK    4  A    between atoms: C_9  and  S_10 
REMARK    5  A    between atoms: S_10  and  C_11 
REMARK    6  A    between atoms: C_11  and  C_12 
REMARK       I    between atoms: C_12  and  N_13 
REMARK    7  A    between atoms: N_13  and  C_14 
REMARK    8  A    between atoms: C_15  and  C_16 
REMARK    9  A    between atoms: C_16  and  O_17 
REMARK   10  A    between atoms: O_17  and  C_18 
REMARK   11  A    between atoms: C_29  and  N_30 
ROOT
HETATM    1  N   UNL     1      -4.687   4.642 -31.634  1.00  0.00    -0.276 N 
HETATM    2  C   UNL     1      -3.802   3.531 -31.648  1.00  0.00     0.177 C 
HETATM    3  N   UNL     1      -2.507   3.590 -31.809  1.00  0.00    -0.204 NA
HETATM    4  C   UNL     1      -2.013   4.842 -31.903  1.00  0.00     0.162 A 
HETATM    5  C   UNL     1      -2.668   6.035 -31.782  1.00  0.00     0.081 A 
HETATM    6  C   UNL     1      -4.089   5.977 -31.627  1.00  0.00     0.124 C 
HETATM    7  N   UNL     1      -0.696   5.161 -32.056  1.00  0.00    -0.260 N 
HETATM    8  H   UNL     1       0.091   4.527 -32.161  1.00  0.00     0.191 HD
HETATM    9  N   UNL     1      -0.474   6.495 -32.002  1.00  0.00    -0.177 NA
HETATM   10  C   UNL     1      -1.691   7.038 -31.835  1.00  0.00     0.068 A 
HETATM   11  C   UNL     1      -1.824   8.508 -31.717  1.00  0.00     0.073 C 
ENDROOT
BRANCH   2  12
HETATM   12  S   UNL     1      -4.406   1.915 -31.230  1.00  0.00    -0.082 SA
BRANCH  12  13
HETATM   13  C   UNL     1      -3.401   0.797 -32.250  1.00  0.00     0.185 C 
BRANCH  13  14
HETATM   14  C   UNL     1      -3.900  -0.633 -32.458  1.00  0.00     0.231 C 
HETATM   15  N   UNL     1      -4.186  -1.019 -33.760  1.00  0.00    -0.326 N 
HETATM   16  H   UNL     1      -4.353  -0.238 -34.379  1.00  0.00     0.169 HD
HETATM   17  O   UNL     1      -4.067  -1.360 -31.476  1.00  0.00    -0.272 OA
BRANCH  15  18
HETATM   18  C   UNL     1      -4.901  -2.210 -34.041  1.00  0.00     0.051 A 
HETATM   19  C   UNL     1      -6.251  -2.262 -34.431  1.00  0.00     0.066 A 
HETATM   20  C   UNL     1      -6.799  -3.485 -34.861  1.00  0.00     0.020 A 
HETATM   21  C   UNL     1      -6.027  -4.647 -34.875  1.00  0.00     0.001 A 
HETATM   22  C   UNL     1      -4.716  -4.610 -34.411  1.00  0.00     0.002 A 
HETATM   23  C   UNL     1      -4.163  -3.404 -33.977  1.00  0.00     0.030 A 
BRANCH  19  24
HETATM   24  C   UNL     1      -7.165  -1.111 -34.200  1.00  0.00     0.295 C 
HETATM   25  O   UNL     1      -7.737  -0.510 -35.097  1.00  0.00    -0.259 OA
BRANCH  24  26
HETATM   26  O   UNL     1      -7.168  -0.777 -32.883  1.00  0.00    -0.318 OA
BRANCH  26  27
HETATM   27  C   UNL     1      -7.717   0.511 -32.574  1.00  0.00     0.174 C 
HETATM   28  C   UNL     1      -9.042   0.383 -31.850  1.00  0.00     0.034 C 
ENDBRANCH  26  27
ENDBRANCH  24  26
ENDBRANCH  19  24
ENDBRANCH  15  18
ENDBRANCH  13  14
ENDBRANCH  12  13
ENDBRANCH   2  12
BRANCH   1  29
HETATM   29  C   UNL     1      -6.058   4.510 -32.022  1.00  0.00     0.043 A 
HETATM   30  C   UNL     1      -6.451   4.371 -33.356  1.00  0.00     0.033 A 
HETATM   31  C   UNL     1      -7.791   4.114 -33.672  1.00  0.00     0.039 A 
HETATM   32  C   UNL     1      -8.745   3.954 -32.665  1.00  0.00     0.068 A 
HETATM   33  C   UNL     1      -8.372   4.124 -31.335  1.00  0.00     0.039 A 
HETATM   34  C   UNL     1      -7.040   4.400 -31.019  1.00  0.00     0.033 A 
BRANCH  32  35
HETATM   35  O   UNL     1     -10.013   3.665 -33.084  1.00  0.00    -0.352 OA
BRANCH  35  36
HETATM   36  C   UNL     1     -10.120   3.228 -34.442  1.00  0.00     0.171 C 
HETATM   37  C   UNL     1     -11.007   1.997 -34.477  1.00  0.00     0.034 C 
ENDBRANCH  35  36
ENDBRANCH  32  35
ENDBRANCH   1  29
BRANCH   6  38
HETATM   38  N   UNL     1      -4.812   7.070 -31.478  1.00  0.00    -0.384 N 
HETATM   39  H   UNL     1      -4.882   7.552 -30.594  1.00  0.00     0.157 HD
HETATM   40  H   UNL     1      -5.337   7.431 -32.266  1.00  0.00     0.157 HD
ENDBRANCH   6  38
TORSDOF 11
ENDMDL
MODEL 6
REMARK VINA RESULT:      -8.6      1.758      2.433
REMARK  11 active torsions:
REMARK  status: ('A' for Active; 'I' for Inactive)
REMARK    1  A    between atoms: C_2  and  O_3 
REMARK    2  A    between atoms: O_3  and  C_4 
REMARK    3  A    between atoms: C_7  and  N_8 
REMARK    4  A    between atoms: C_9  and  S_10 
REMARK    5  A    between atoms: S_10  and  C_11 
REMARK    6  A    between atoms: C_11  and  C_12 
REMARK       I    between atoms: C_12  and  N_13 
REMARK    7  A    between atoms: N_13  and  C_14 
REMARK    8  A    between atoms: C_15  and  C_16 
REMARK    9  A    between atoms: C_16  and  O_17 
REMARK   10  A    between atoms: O_17  and  C_18 
REMARK   11  A    between atoms: C_29  and  N_30 
ROOT
HETATM    1  N   UNL     1      -5.791  -0.591 -33.367  1.00  0.00    -0.276 N 
HETATM    2  C   UNL     1      -4.927   0.063 -32.448  1.00  0.00     0.177 C 
HETATM    3  N   UNL     1      -3.939  -0.495 -31.803  1.00  0.00    -0.204 NA
HETATM    4  C   UNL     1      -3.724  -1.788 -32.121  1.00  0.00     0.162 A 
HETATM    5  C   UNL     1      -4.347  -2.555 -33.064  1.00  0.00     0.081 A 
HETATM    6  C   UNL     1      -5.444  -1.956 -33.759  1.00  0.00     0.124 C 
HETATM    7  N   UNL     1      -2.742  -2.577 -31.598  1.00  0.00    -0.260 N 
HETATM    8  H   UNL     1      -2.066  -2.337 -30.879  1.00  0.00     0.191 HD
HETATM    9  N   UNL     1      -2.685  -3.795 -32.185  1.00  0.00    -0.177 NA
HETATM   10  C   UNL     1      -3.676  -3.786 -33.090  1.00  0.00     0.068 A 
HETATM   11  C   UNL     1      -3.898  -4.976 -33.942  1.00  0.00     0.073 C 
ENDROOT
BRANCH   2  12
HETATM   12  S   UNL     1      -5.018   1.824 -32.250  1.00  0.00    -0.082 SA
BRANCH  12  13
HETATM   13  C   UNL     1      -3.403   2.267 -31.545  1.00  0.00     0.185 C 
BRANCH  13  14
HETATM   14  C   UNL     1      -2.826   3.644 -31.874  1.00  0.00     0.231 C 
HETATM   15  N   UNL     1      -2.652   4.526 -30.816  1.00  0.00    -0.326 N 
HETATM   16  H   UNL     1      -3.220   4.299 -30.012  1.00  0.00     0.169 HD
HETATM   17  O   UNL     1      -2.582   3.929 -33.048  1.00  0.00    -0.272 OA
BRANCH  15  18
HETATM   18  C   UNL     1      -2.385   5.901 -31.031  1.00  0.00     0.051 A 
HETATM   19  C   UNL     1      -1.103   6.454 -31.191  1.00  0.00     0.066 A 
HETATM   20  C   UNL     1      -0.976   7.801 -31.581  1.00  0.00     0.020 A 
HETATM   21  C   UNL     1      -2.105   8.595 -31.781  1.00  0.00     0.001 A 
HETATM   22  C   UNL     1      -3.370   8.069 -31.541  1.00  0.00     0.002 A 
HETATM   23  C   UNL     1      -3.508   6.737 -31.149  1.00  0.00     0.030 A 
BRANCH  19  24
HETATM   24  C   UNL     1       0.115   5.719 -30.756  1.00  0.00     0.295 C 
HETATM   25  O   UNL     1       0.421   4.610 -31.169  1.00  0.00    -0.259 OA
BRANCH  24  26
HETATM   26  O   UNL     1       0.746   6.408 -29.769  1.00  0.00    -0.318 OA
BRANCH  26  27
HETATM   27  C   UNL     1       0.436   5.995 -28.432  1.00  0.00     0.174 C 
HETATM   28  C   UNL     1       0.894   7.027 -27.419  1.00  0.00     0.034 C 
ENDBRANCH  26  27
ENDBRANCH  24  26
ENDBRANCH  19  24
ENDBRANCH  15  18
ENDBRANCH  13  14
ENDBRANCH  12  13
ENDBRANCH   2  12
BRANCH   1  29
HETATM   29  C   UNL     1      -7.129  -0.135 -33.589  1.00  0.00     0.043 A 
HETATM   30  C   UNL     1      -8.145  -0.303 -32.643  1.00  0.00     0.033 A 
HETATM   31  C   UNL     1      -9.404   0.275 -32.852  1.00  0.00     0.039 A 
HETATM   32  C   UNL     1      -9.652   1.058 -33.982  1.00  0.00     0.068 A 
HETATM   33  C   UNL     1      -8.659   1.204 -34.945  1.00  0.00     0.039 A 
HETATM   34  C   UNL     1      -7.410   0.611 -34.749  1.00  0.00     0.033 A 
BRANCH  32  35
HETATM   35  O   UNL     1     -10.900   1.608 -34.064  1.00  0.00    -0.352 OA
BRANCH  35  36
HETATM   36  C   UNL     1     -11.972   0.746 -33.671  1.00  0.00     0.171 C 
HETATM   37  C   UNL     1     -13.153   1.007 -34.588  1.00  0.00     0.034 C 
ENDBRANCH  35  36
ENDBRANCH  32  35
ENDBRANCH   1  29
BRANCH   6  38
HETATM   38  N   UNL     1      -6.098  -2.603 -34.705  1.00  0.00    -0.384 N 
HETATM   39  H   UNL     1      -6.347  -3.577 -34.616  1.00  0.00     0.157 HD
HETATM   40  H   UNL     1      -6.339  -2.121 -35.563  1.00  0.00     0.157 HD
ENDBRANCH   6  38
TORSDOF 11
ENDMDL
MODEL 7
REMARK VINA RESULT:      -8.6      2.898      6.015
REMARK  11 active torsions:
REMARK  status: ('A' for Active; 'I' for Inactive)
REMARK    1  A    between atoms: C_2  and  O_3 
REMARK    2  A    between atoms: O_3  and  C_4 
REMARK    3  A    between atoms: C_7  and  N_8 
REMARK    4  A    between atoms: C_9  and  S_10 
REMARK    5  A    between atoms: S_10  and  C_11 
REMARK    6  A    between atoms: C_11  and  C_12 
REMARK       I    between atoms: C_12  and  N_13 
REMARK    7  A    between atoms: N_13  and  C_14 
REMARK    8  A    between atoms: C_15  and  C_16 
REMARK    9  A    between atoms: C_16  and  O_17 
REMARK   10  A    between atoms: O_17  and  C_18 
REMARK   11  A    between atoms: C_29  and  N_30 
ROOT
HETATM    1  N   UNL     1      -9.143   1.328 -33.567  1.00  0.00    -0.276 N 
HETATM    2  C   UNL     1      -9.179   2.622 -34.152  1.00  0.00     0.177 C 
HETATM    3  N   UNL     1     -10.226   3.182 -34.698  1.00  0.00    -0.204 NA
HETATM    4  C   UNL     1     -11.356   2.451 -34.615  1.00  0.00     0.162 A 
HETATM    5  C   UNL     1     -11.563   1.258 -33.984  1.00  0.00     0.081 A 
HETATM    6  C   UNL     1     -10.417   0.630 -33.402  1.00  0.00     0.124 C 
HETATM    7  N   UNL     1     -12.577   2.830 -35.092  1.00  0.00    -0.260 N 
HETATM    8  H   UNL     1     -12.811   3.674 -35.606  1.00  0.00     0.191 HD
HETATM    9  N   UNL     1     -13.557   1.955 -34.766  1.00  0.00    -0.177 NA
HETATM   10  C   UNL     1     -12.933   0.982 -34.083  1.00  0.00     0.068 A 
HETATM   11  C   UNL     1     -13.720  -0.154 -33.549  1.00  0.00     0.073 C 
ENDROOT
BRANCH   2  12
HETATM   12  S   UNL     1      -7.778   3.701 -34.000  1.00  0.00    -0.082 SA
BRANCH  12  13
HETATM   13  C   UNL     1      -7.770   4.160 -32.243  1.00  0.00     0.185 C 
BRANCH  13  14
HETATM   14  C   UNL     1      -6.558   4.917 -31.701  1.00  0.00     0.231 C 
HETATM   15  N   UNL     1      -6.115   6.009 -32.434  1.00  0.00    -0.326 N 
HETATM   16  H   UNL     1      -6.419   5.992 -33.397  1.00  0.00     0.169 HD
HETATM   17  O   UNL     1      -6.004   4.511 -30.677  1.00  0.00    -0.272 OA
BRANCH  15  18
HETATM   18  C   UNL     1      -4.857   6.613 -32.182  1.00  0.00     0.051 A 
HETATM   19  C   UNL     1      -3.682   6.350 -32.905  1.00  0.00     0.066 A 
HETATM   20  C   UNL     1      -2.541   7.144 -32.683  1.00  0.00     0.020 A 
HETATM   21  C   UNL     1      -2.558   8.166 -31.734  1.00  0.00     0.001 A 
HETATM   22  C   UNL     1      -3.696   8.371 -30.961  1.00  0.00     0.002 A 
HETATM   23  C   UNL     1      -4.831   7.587 -31.169  1.00  0.00     0.030 A 
BRANCH  19  24
HETATM   24  C   UNL     1      -3.548   5.126 -33.741  1.00  0.00     0.295 C 
HETATM   25  O   UNL     1      -4.296   4.853 -34.668  1.00  0.00    -0.259 OA
BRANCH  24  26
HETATM   26  O   UNL     1      -2.562   4.332 -33.247  1.00  0.00    -0.318 OA
BRANCH  26  27
HETATM   27  C   UNL     1      -2.889   3.616 -32.048  1.00  0.00     0.174 C 
HETATM   28  C   UNL     1      -3.602   2.316 -32.363  1.00  0.00     0.034 C 
ENDBRANCH  26  27
ENDBRANCH  24  26
ENDBRANCH  19  24
ENDBRANCH  15  18
ENDBRANCH  13  14
ENDBRANCH  12  13
ENDBRANCH   2  12
BRANCH   1  29
HETATM   29  C   UNL     1      -7.934   0.565 -33.515  1.00  0.00     0.043 A 
HETATM   30  C   UNL     1      -7.227   0.358 -32.326  1.00  0.00     0.033 A 
HETATM   31  C   UNL     1      -6.123  -0.503 -32.304  1.00  0.00     0.039 A 
HETATM   32  C   UNL     1      -5.735  -1.197 -33.453  1.00  0.00     0.068 A 
HETATM   33  C   UNL     1      -6.410  -0.973 -34.649  1.00  0.00     0.039 A 
HETATM   34  C   UNL     1      -7.499  -0.099 -34.678  1.00  0.00     0.033 A 
BRANCH  32  35
HETATM   35  O   UNL     1      -4.671  -2.042 -33.309  1.00  0.00    -0.352 OA
BRANCH  35  36
HETATM   36  C   UNL     1      -3.805  -1.748 -32.209  1.00  0.00     0.171 C 
HETATM   37  C   UNL     1      -3.032  -3.008 -31.863  1.00  0.00     0.034 C 
ENDBRANCH  35  36
ENDBRANCH  32  35
ENDBRANCH   1  29
BRANCH   6  38
HETATM   38  N   UNL     1     -10.513  -0.513 -32.750  1.00  0.00    -0.384 N 
HETATM   39  H   UNL     1     -10.162  -1.379 -33.129  1.00  0.00     0.157 HD
HETATM   40  H   UNL     1     -10.976  -0.535 -31.849  1.00  0.00     0.157 HD
ENDBRANCH   6  38
TORSDOF 11
ENDMDL
MODEL 8
REMARK VINA RESULT:      -8.3      3.194      5.809
REMARK  11 active torsions:
REMARK  status: ('A' for Active; 'I' for Inactive)
REMARK    1  A    between atoms: C_2  and  O_3 
REMARK    2  A    between atoms: O_3  and  C_4 
REMARK    3  A    between atoms: C_7  and  N_8 
REMARK    4  A    between atoms: C_9  and  S_10 
REMARK    5  A    between atoms: S_10  and  C_11 
REMARK    6  A    between atoms: C_11  and  C_12 
REMARK       I    between atoms: C_12  and  N_13 
REMARK    7  A    between atoms: N_13  and  C_14 
REMARK    8  A    between atoms: C_15  and  C_16 
REMARK    9  A    between atoms: C_16  and  O_17 
REMARK   10  A    between atoms: O_17  and  C_18 
REMARK   11  A    between atoms: C_29  and  N_30 
ROOT
HETATM    1  N   UNL     1      -7.982   2.621 -33.621  1.00  0.00    -0.276 N 
HETATM    2  C   UNL     1      -7.224   3.816 -33.748  1.00  0.00     0.177 C 
HETATM    3  N   UNL     1      -7.686   4.972 -34.144  1.00  0.00    -0.204 NA
HETATM    4  C   UNL     1      -9.014   4.991 -34.378  1.00  0.00     0.162 A 
HETATM    5  C   UNL     1      -9.934   3.999 -34.191  1.00  0.00     0.081 A 
HETATM    6  C   UNL     1      -9.432   2.725 -33.778  1.00  0.00     0.124 C 
HETATM    7  N   UNL     1      -9.729   6.082 -34.781  1.00  0.00    -0.260 N 
HETATM    8  H   UNL     1      -9.379   7.010 -35.000  1.00  0.00     0.191 HD
HETATM    9  N   UNL     1     -11.060   5.844 -34.824  1.00  0.00    -0.177 NA
HETATM   10  C   UNL     1     -11.190   4.558 -34.463  1.00  0.00     0.068 A 
HETATM   11  C   UNL     1     -12.541   3.955 -34.385  1.00  0.00     0.073 C 
ENDROOT
BRANCH   2  12
HETATM   12  S   UNL     1      -5.551   3.868 -33.159  1.00  0.00    -0.082 SA
BRANCH  12  13
HETATM   13  C   UNL     1      -4.789   5.201 -34.131  1.00  0.00     0.185 C 
BRANCH  13  14
HETATM   14  C   UNL     1      -3.432   5.738 -33.678  1.00  0.00     0.231 C 
HETATM   15  N   UNL     1      -2.992   5.362 -32.416  1.00  0.00    -0.326 N 
HETATM   16  H   UNL     1      -3.741   5.057 -31.809  1.00  0.00     0.169 HD
HETATM   17  O   UNL     1      -2.810   6.504 -34.418  1.00  0.00    -0.272 OA
BRANCH  15  18
HETATM   18  C   UNL     1      -1.896   6.005 -31.788  1.00  0.00     0.051 A 
HETATM   19  C   UNL     1      -1.984   7.186 -31.033  1.00  0.00     0.066 A 
HETATM   20  C   UNL     1      -0.861   7.627 -30.307  1.00  0.00     0.020 A 
HETATM   21  C   UNL     1       0.342   6.922 -30.355  1.00  0.00     0.001 A 
HETATM   22  C   UNL     1       0.450   5.799 -31.169  1.00  0.00     0.002 A 
HETATM   23  C   UNL     1      -0.654   5.356 -31.897  1.00  0.00     0.030 A 
BRANCH  19  24
HETATM   24  C   UNL     1      -3.160   8.091 -31.148  1.00  0.00     0.295 C 
HETATM   25  O   UNL     1      -3.099   9.228 -31.590  1.00  0.00    -0.259 OA
BRANCH  24  26
HETATM   26  O   UNL     1      -4.252   7.505 -30.591  1.00  0.00    -0.318 OA
BRANCH  26  27
HETATM   27  C   UNL     1      -5.492   8.198 -30.788  1.00  0.00     0.174 C 
HETATM   28  C   UNL     1      -6.371   7.474 -31.789  1.00  0.00     0.034 C 
ENDBRANCH  26  27
ENDBRANCH  24  26
ENDBRANCH  19  24
ENDBRANCH  15  18
ENDBRANCH  13  14
ENDBRANCH  12  13
ENDBRANCH   2  12
BRANCH   1  29
HETATM   29  C   UNL     1      -7.372   1.333 -33.747  1.00  0.00     0.043 A 
HETATM   30  C   UNL     1      -6.974   0.579 -32.639  1.00  0.00     0.033 A 
HETATM   31  C   UNL     1      -6.503  -0.729 -32.809  1.00  0.00     0.039 A 
HETATM   32  C   UNL     1      -6.460  -1.313 -34.077  1.00  0.00     0.068 A 
HETATM   33  C   UNL     1      -6.822  -0.562 -35.191  1.00  0.00     0.039 A 
HETATM   34  C   UNL     1      -7.272   0.750 -35.025  1.00  0.00     0.033 A 
BRANCH  32  35
HETATM   35  O   UNL     1      -6.023  -2.607 -34.123  1.00  0.00    -0.352 OA
BRANCH  35  36
HETATM   36  C   UNL     1      -6.929  -3.534 -34.729  1.00  0.00     0.171 C 
HETATM   37  C   UNL     1      -6.127  -4.714 -35.247  1.00  0.00     0.034 C 
ENDBRANCH  35  36
ENDBRANCH  32  35
ENDBRANCH   1  29
BRANCH   6  38
HETATM   38  N   UNL     1     -10.239   1.707 -33.547  1.00  0.00    -0.384 N 
HETATM   39  H   UNL     1      -9.910   0.840 -33.150  1.00  0.00     0.157 HD
HETATM   40  H   UNL     1     -11.218   1.781 -33.796  1.00  0.00     0.157 HD
ENDBRANCH   6  38
TORSDOF 11
ENDMDL
MODEL 9
REMARK VINA RESULT:      -8.3      3.702      7.730
REMARK  11 active torsions:
REMARK  status: ('A' for Active; 'I' for Inactive)
REMARK    1  A    between atoms: C_2  and  O_3 
REMARK    2  A    between atoms: O_3  and  C_4 
REMARK    3  A    between atoms: C_7  and  N_8 
REMARK    4  A    between atoms: C_9  and  S_10 
REMARK    5  A    between atoms: S_10  and  C_11 
REMARK    6  A    between atoms: C_11  and  C_12 
REMARK       I    between atoms: C_12  and  N_13 
REMARK    7  A    between atoms: N_13  and  C_14 
REMARK    8  A    between atoms: C_15  and  C_16 
REMARK    9  A    between atoms: C_16  and  O_17 
REMARK   10  A    between atoms: O_17  and  C_18 
REMARK   11  A    between atoms: C_29  and  N_30 
ROOT
HETATM    1  N   UNL     1      -5.920   5.071 -31.971  1.00  0.00    -0.276 N 
HETATM    2  C   UNL     1      -6.443   4.984 -33.289  1.00  0.00     0.177 C 
HETATM    3  N   UNL     1      -5.743   5.045 -34.390  1.00  0.00    -0.204 NA
HETATM    4  C   UNL     1      -4.411   5.136 -34.201  1.00  0.00     0.162 A 
HETATM    5  C   UNL     1      -3.705   5.100 -33.032  1.00  0.00     0.081 A 
HETATM    6  C   UNL     1      -4.466   5.055 -31.822  1.00  0.00     0.124 C 
HETATM    7  N   UNL     1      -3.475   5.193 -35.192  1.00  0.00    -0.260 N 
HETATM    8  H   UNL     1      -3.630   5.219 -36.195  1.00  0.00     0.191 HD
HETATM    9  N   UNL     1      -2.209   5.160 -34.715  1.00  0.00    -0.177 NA
HETATM   10  C   UNL     1      -2.348   5.105 -33.381  1.00  0.00     0.068 A 
HETATM   11  C   UNL     1      -1.141   5.039 -32.524  1.00  0.00     0.073 C 
ENDROOT
BRANCH   2  12
HETATM   12  S   UNL     1      -8.150   4.569 -33.538  1.00  0.00    -0.082 SA
BRANCH  12  13
HETATM   13  C   UNL     1      -8.140   2.760 -33.699  1.00  0.00     0.185 C 
BRANCH  13  14
HETATM   14  C   UNL     1      -7.139   1.967 -32.858  1.00  0.00     0.231 C 
HETATM   15  N   UNL     1      -5.903   1.702 -33.430  1.00  0.00    -0.326 N 
HETATM   16  H   UNL     1      -5.910   1.764 -34.439  1.00  0.00     0.169 HD
HETATM   17  O   UNL     1      -7.476   1.565 -31.743  1.00  0.00    -0.272 OA
BRANCH  15  18
HETATM   18  C   UNL     1      -5.009   0.759 -32.864  1.00  0.00     0.051 A 
HETATM   19  C   UNL     1      -4.790  -0.538 -33.361  1.00  0.00     0.066 A 
HETATM   20  C   UNL     1      -3.745  -1.315 -32.826  1.00  0.00     0.020 A 
HETATM   21  C   UNL     1      -2.949  -0.824 -31.792  1.00  0.00     0.001 A 
HETATM   22  C   UNL     1      -3.220   0.426 -31.246  1.00  0.00     0.002 A 
HETATM   23  C   UNL     1      -4.256   1.203 -31.765  1.00  0.00     0.030 A 
BRANCH  19  24
HETATM   24  C   UNL     1      -5.761  -1.185 -34.285  1.00  0.00     0.295 C 
HETATM   25  O   UNL     1      -6.562  -0.565 -34.968  1.00  0.00    -0.259 OA
BRANCH  24  26
HETATM   26  O   UNL     1      -5.692  -2.536 -34.158  1.00  0.00    -0.318 OA
BRANCH  26  27
HETATM   27  C   UNL     1      -6.826  -3.261 -34.652  1.00  0.00     0.174 C 
HETATM   28  C   UNL     1      -6.399  -4.531 -35.362  1.00  0.00     0.034 C 
ENDBRANCH  26  27
ENDBRANCH  24  26
ENDBRANCH  19  24
ENDBRANCH  15  18
ENDBRANCH  13  14
ENDBRANCH  12  13
ENDBRANCH   2  12
BRANCH   1  29
HETATM   29  C   UNL     1      -6.713   5.561 -30.884  1.00  0.00     0.043 A 
HETATM   30  C   UNL     1      -7.194   4.727 -29.871  1.00  0.00     0.033 A 
HETATM   31  C   UNL     1      -7.853   5.274 -28.763  1.00  0.00     0.039 A 
HETATM   32  C   UNL     1      -8.004   6.656 -28.631  1.00  0.00     0.068 A 
HETATM   33  C   UNL     1      -7.558   7.493 -29.649  1.00  0.00     0.039 A 
HETATM   34  C   UNL     1      -6.919   6.949 -30.765  1.00  0.00     0.033 A 
BRANCH  32  35
HETATM   35  O   UNL     1      -8.624   7.083 -27.491  1.00  0.00    -0.352 OA
BRANCH  35  36
HETATM   36  C   UNL     1      -9.052   8.448 -27.505  1.00  0.00     0.171 C 
HETATM   37  C   UNL     1     -10.128   8.620 -26.449  1.00  0.00     0.034 C 
ENDBRANCH  35  36
ENDBRANCH  32  35
ENDBRANCH   1  29
BRANCH   6  38
HETATM   38  N   UNL     1      -3.881   4.994 -30.641  1.00  0.00    -0.384 N 
HETATM   39  H   UNL     1      -4.396   5.100 -29.780  1.00  0.00     0.157 HD
HETATM   40  H   UNL     1      -2.877   4.862 -30.588  1.00  0.00     0.157 HD
ENDBRANCH   6  38
TORSDOF 11
ENDMDL
MODEL 10
REMARK VINA RESULT:      -8.3      3.027      5.806
REMARK  11 active torsions:
REMARK  status: ('A' for Active; 'I' for Inactive)
REMARK    1  A    between atoms: C_2  and  O_3 
REMARK    2  A    between atoms: O_3  and  C_4 
REMARK    3  A    between atoms: C_7  and  N_8 
REMARK    4  A    between atoms: C_9  and  S_10 
REMARK    5  A    between atoms: S_10  and  C_11 
REMARK    6  A    between atoms: C_11  and  C_12 
REMARK       I    between atoms: C_12  and  N_13 
REMARK    7  A    between atoms: N_13  and  C_14 
REMARK    8  A    between atoms: C_15  and  C_16 
REMARK    9  A    between atoms: C_16  and  O_17 
REMARK   10  A    between atoms: O_17  and  C_18 
REMARK   11  A    between atoms: C_29  and  N_30 
ROOT
HETATM    1  N   UNL     1      -8.371   2.659 -33.753  1.00  0.00    -0.276 N 
HETATM    2  C   UNL     1      -7.576   3.835 -33.675  1.00  0.00     0.177 C 
HETATM    3  N   UNL     1      -7.928   5.020 -34.095  1.00  0.00    -0.204 NA
HETATM    4  C   UNL     1      -9.186   5.091 -34.576  1.00  0.00     0.162 A 
HETATM    5  C   UNL     1     -10.147   4.121 -34.615  1.00  0.00     0.081 A 
HETATM    6  C   UNL     1      -9.761   2.815 -34.177  1.00  0.00     0.124 C 
HETATM    7  N   UNL     1      -9.786   6.220 -35.054  1.00  0.00    -0.260 N 
HETATM    8  H   UNL     1      -9.380   7.145 -35.158  1.00  0.00     0.191 HD
HETATM    9  N   UNL     1     -11.089   6.026 -35.361  1.00  0.00    -0.177 NA
HETATM   10  C   UNL     1     -11.315   4.730 -35.094  1.00  0.00     0.068 A 
HETATM   11  C   UNL     1     -12.669   4.166 -35.303  1.00  0.00     0.073 C 
ENDROOT
BRANCH   2  12
HETATM   12  S   UNL     1      -6.045   3.809 -32.778  1.00  0.00    -0.082 SA
BRANCH  12  13
HETATM   13  C   UNL     1      -5.949   5.464 -32.034  1.00  0.00     0.185 C 
BRANCH  13  14
HETATM   14  C   UNL     1      -4.807   5.750 -31.059  1.00  0.00     0.231 C 
HETATM   15  N   UNL     1      -3.879   6.711 -31.437  1.00  0.00    -0.326 N 
HETATM   16  H   UNL     1      -3.863   6.877 -32.434  1.00  0.00     0.169 HD
HETATM   17  O   UNL     1      -4.730   5.100 -30.015  1.00  0.00    -0.272 OA
BRANCH  15  18
HETATM   18  C   UNL     1      -2.648   6.866 -30.752  1.00  0.00     0.051 A 
HETATM   19  C   UNL     1      -1.458   6.192 -31.079  1.00  0.00     0.066 A 
HETATM   20  C   UNL     1      -0.257   6.564 -30.446  1.00  0.00     0.020 A 
HETATM   21  C   UNL     1      -0.243   7.570 -29.479  1.00  0.00     0.001 A 
HETATM   22  C   UNL     1      -1.435   8.178 -29.098  1.00  0.00     0.002 A 
HETATM   23  C   UNL     1      -2.632   7.814 -29.716  1.00  0.00     0.030 A 
BRANCH  19  24
HETATM   24  C   UNL     1      -1.473   4.962 -31.916  1.00  0.00     0.295 C 
HETATM   25  O   UNL     1      -1.998   3.914 -31.571  1.00  0.00    -0.259 OA
BRANCH  24  26
HETATM   26  O   UNL     1      -0.730   5.154 -33.037  1.00  0.00    -0.318 OA
BRANCH  26  27
HETATM   27  C   UNL     1      -1.338   5.969 -34.048  1.00  0.00     0.174 C 
HETATM   28  C   UNL     1      -2.269   5.153 -34.923  1.00  0.00     0.034 C 
ENDBRANCH  26  27
ENDBRANCH  24  26
ENDBRANCH  19  24
ENDBRANCH  15  18
ENDBRANCH  13  14
ENDBRANCH  12  13
ENDBRANCH   2  12
BRANCH   1  29
HETATM   29  C   UNL     1      -7.776   1.360 -33.823  1.00  0.00     0.043 A 
HETATM   30  C   UNL     1      -7.331   0.802 -35.025  1.00  0.00     0.033 A 
HETATM   31  C   UNL     1      -6.639  -0.416 -35.023  1.00  0.00     0.039 A 
HETATM   32  C   UNL     1      -6.349  -1.070 -33.824  1.00  0.00     0.068 A 
HETATM   33  C   UNL     1      -6.815  -0.542 -32.625  1.00  0.00     0.039 A 
HETATM   34  C   UNL     1      -7.524   0.662 -32.626  1.00  0.00     0.033 A 
BRANCH  32  35
HETATM   35  O   UNL     1      -5.632  -2.229 -33.935  1.00  0.00    -0.352 OA
BRANCH  35  36
HETATM   36  C   UNL     1      -5.811  -2.940 -35.163  1.00  0.00     0.171 C 
HETATM   37  C   UNL     1      -6.349  -4.322 -34.839  1.00  0.00     0.034 C 
ENDBRANCH  35  36
ENDBRANCH  32  35
ENDBRANCH   1  29
BRANCH   6  38
HETATM   38  N   UNL     1     -10.620   1.814 -34.153  1.00  0.00    -0.384 N 
HETATM   39  H   UNL     1     -11.359   1.756 -33.469  1.00  0.00     0.157 HD
HETATM   40  H   UNL     1     -10.526   1.061 -34.824  1.00  0.00     0.157 HD
ENDBRANCH   6  38
TORSDOF 11
ENDMDL
