MODEL 1
REMARK VINA RESULT:      -8.9      0.000      0.000
REMARK  5 active torsions:
REMARK  status: ('A' for Active; 'I' for Inactive)
REMARK    1  A    between atoms: C_6  and  O_7 
REMARK    2  A    between atoms: O_7  and  C_8 
REMARK    3  A    between atoms: C_8  and  C_9 
REMARK       I    between atoms: C_9  and  N_10 
REMARK    4  A    between atoms: N_10  and  N_11 
REMARK    5  A    between atoms: C_12  and  C_13 
ROOT
HETATM    1  C   UNL     1      -9.829   1.107 -32.890  1.00  0.00     0.261 C 
HETATM    2  N   UNL     1      -8.494   1.460 -32.777  1.00  0.00    -0.246 N 
HETATM    3  O   UNL     1     -10.243  -0.041 -33.058  1.00  0.00    -0.269 OA
HETATM    4  H   UNL     1      -8.226   2.435 -32.679  1.00  0.00     0.192 HD
ENDROOT
BRANCH   2   5
HETATM    5  N   UNL     1      -7.570   0.463 -32.754  1.00  0.00    -0.184 NA
HETATM    6  C   UNL     1      -6.702   0.406 -33.707  1.00  0.00     0.153 C 
BRANCH   6   7
HETATM    7  C   UNL     1      -5.685  -0.633 -33.653  1.00  0.00     0.018 A 
HETATM    8  C   UNL     1      -5.787  -1.998 -34.097  1.00  0.00     0.004 A 
HETATM    9  C   UNL     1      -4.571  -2.622 -33.821  1.00  0.00     0.043 A 
HETATM   10  C   UNL     1      -6.804  -2.769 -34.704  1.00  0.00     0.014 A 
HETATM   11  C   UNL     1      -4.321  -3.969 -34.115  1.00  0.00     0.030 A 
HETATM   12  N   UNL     1      -3.758  -1.679 -33.244  1.00  0.00    -0.358 N 
HETATM   13  C   UNL     1      -5.348  -4.706 -34.714  1.00  0.00     0.002 A 
HETATM   14  C   UNL     1      -6.574  -4.116 -35.006  1.00  0.00     0.001 A 
HETATM   15  H   UNL     1      -2.811  -1.862 -32.942  1.00  0.00     0.166 HD
HETATM   16  C   UNL     1      -4.409  -0.474 -33.128  1.00  0.00     0.018 A 
HETATM   17  C   UNL     1      -3.736   0.703 -32.520  1.00  0.00     0.069 C 
ENDBRANCH   6   7
ENDBRANCH   2   5
BRANCH   1  18
HETATM   18  C   UNL     1     -10.807   2.256 -32.683  1.00  0.00     0.280 C 
BRANCH  18  19
HETATM   19  O   UNL     1     -11.745   2.435 -33.747  1.00  0.00    -0.340 OA
BRANCH  19  20
HETATM   20  C   UNL     1     -13.024   2.463 -33.236  1.00  0.00     0.092 A 
HETATM   21  C   UNL     1     -13.487   3.633 -32.620  1.00  0.00     0.045 A 
HETATM   22  C   UNL     1     -14.806   3.717 -32.165  1.00  0.00     0.028 A 
HETATM   23 BR   UNL     1     -12.367   5.152 -32.417  1.00  0.00    -0.048 Br
HETATM   24  C   UNL     1     -15.669   2.623 -32.302  1.00  0.00    -0.060 A 
HETATM   25  C   UNL     1     -17.109   2.733 -31.895  1.00  0.00     0.048 C 
HETATM   26  C   UNL     1     -15.189   1.443 -32.885  1.00  0.00     0.016 A 
HETATM   27  C   UNL     1     -13.859   1.336 -33.327  1.00  0.00    -0.027 A 
HETATM   28  C   UNL     1     -13.402   0.040 -33.934  1.00  0.00     0.051 C 
ENDBRANCH  19  20
ENDBRANCH  18  19
ENDBRANCH   1  18
TORSDOF 5
ENDMDL
MODEL 2
REMARK VINA RESULT:      -8.9      3.065      8.525
REMARK  5 active torsions:
REMARK  status: ('A' for Active; 'I' for Inactive)
REMARK    1  A    between atoms: C_6  and  O_7 
REMARK    2  A    between atoms: O_7  and  C_8 
REMARK    3  A    between atoms: C_8  and  C_9 
REMARK       I    between atoms: C_9  and  N_10 
REMARK    4  A    between atoms: N_10  and  N_11 
REMARK    5  A    between atoms: C_12  and  C_13 
ROOT
HETATM    1  C   UNL     1      -7.437   1.273 -31.991  1.00  0.00     0.261 C 
HETATM    2  N   UNL     1      -7.932   2.390 -32.643  1.00  0.00    -0.246 N 
HETATM    3  O   UNL     1      -8.126   0.414 -31.440  1.00  0.00    -0.269 OA
HETATM    4  H   UNL     1      -7.298   3.077 -33.040  1.00  0.00     0.192 HD
ENDROOT
BRANCH   2   5
HETATM    5  N   UNL     1      -9.281   2.506 -32.774  1.00  0.00    -0.184 NA
HETATM    6  C   UNL     1      -9.773   2.660 -33.957  1.00  0.00     0.153 C 
BRANCH   6   7
HETATM    7  C   UNL     1     -11.219   2.735 -34.098  1.00  0.00     0.018 A 
HETATM    8  C   UNL     1     -12.182   1.676 -33.951  1.00  0.00     0.004 A 
HETATM    9  C   UNL     1     -13.442   2.215 -34.201  1.00  0.00     0.043 A 
HETATM   10  C   UNL     1     -12.101   0.301 -33.634  1.00  0.00     0.014 A 
HETATM   11  C   UNL     1     -14.619   1.456 -34.155  1.00  0.00     0.030 A 
HETATM   12  N   UNL     1     -13.261   3.547 -34.479  1.00  0.00    -0.358 N 
HETATM   13  C   UNL     1     -14.507   0.098 -33.840  1.00  0.00     0.002 A 
HETATM   14  C   UNL     1     -13.265  -0.474 -33.582  1.00  0.00     0.001 A 
HETATM   15  H   UNL     1     -14.015   4.184 -34.699  1.00  0.00     0.166 HD
HETATM   16  C   UNL     1     -11.929   3.883 -34.428  1.00  0.00     0.018 A 
HETATM   17  C   UNL     1     -11.480   5.272 -34.704  1.00  0.00     0.069 C 
ENDBRANCH   6   7
ENDBRANCH   2   5
BRANCH   1  18
HETATM   18  C   UNL     1      -5.926   1.105 -32.083  1.00  0.00     0.280 C 
BRANCH  18  19
HETATM   19  O   UNL     1      -5.420   1.003 -33.417  1.00  0.00    -0.340 OA
BRANCH  19  20
HETATM   20  C   UNL     1      -5.441  -0.315 -33.819  1.00  0.00     0.092 A 
HETATM   21  C   UNL     1      -4.453  -1.188 -33.344  1.00  0.00     0.045 A 
HETATM   22  C   UNL     1      -4.496  -2.546 -33.669  1.00  0.00     0.028 A 
HETATM   23 BR   UNL     1      -3.054  -0.577 -32.216  1.00  0.00    -0.048 Br
HETATM   24  C   UNL     1      -5.515  -3.042 -34.491  1.00  0.00    -0.060 A 
HETATM   25  C   UNL     1      -5.619  -4.512 -34.775  1.00  0.00     0.048 C 
HETATM   26  C   UNL     1      -6.479  -2.157 -34.993  1.00  0.00     0.016 A 
HETATM   27  C   UNL     1      -6.436  -0.784 -34.693  1.00  0.00    -0.027 A 
HETATM   28  C   UNL     1      -7.492   0.115 -35.271  1.00  0.00     0.051 C 
ENDBRANCH  19  20
ENDBRANCH  18  19
ENDBRANCH   1  18
TORSDOF 5
ENDMDL
MODEL 3
REMARK VINA RESULT:      -8.7      6.329     10.178
REMARK  5 active torsions:
REMARK  status: ('A' for Active; 'I' for Inactive)
REMARK    1  A    between atoms: C_6  and  O_7 
REMARK    2  A    between atoms: O_7  and  C_8 
REMARK    3  A    between atoms: C_8  and  C_9 
REMARK       I    between atoms: C_9  and  N_10 
REMARK    4  A    between atoms: N_10  and  N_11 
REMARK    5  A    between atoms: C_12  and  C_13 
ROOT
HETATM    1  C   UNL     1      -3.184   4.954 -31.731  1.00  0.00     0.261 C 
HETATM    2  N   UNL     1      -2.811   3.707 -31.257  1.00  0.00    -0.246 N 
HETATM    3  O   UNL     1      -3.705   5.164 -32.828  1.00  0.00    -0.269 OA
HETATM    4  H   UNL     1      -2.350   3.616 -30.357  1.00  0.00     0.192 HD
ENDROOT
BRANCH   2   5
HETATM    5  N   UNL     1      -3.126   2.619 -32.009  1.00  0.00    -0.184 NA
HETATM    6  C   UNL     1      -4.105   1.870 -31.627  1.00  0.00     0.153 C 
BRANCH   6   7
HETATM    7  C   UNL     1      -4.471   0.734 -32.459  1.00  0.00     0.018 A 
HETATM    8  C   UNL     1      -5.583   0.618 -33.365  1.00  0.00     0.004 A 
HETATM    9  C   UNL     1      -5.540  -0.659 -33.922  1.00  0.00     0.043 A 
HETATM   10  C   UNL     1      -6.631   1.479 -33.762  1.00  0.00     0.014 A 
HETATM   11  C   UNL     1      -6.487  -1.119 -34.847  1.00  0.00     0.030 A 
HETATM   12  N   UNL     1      -4.446  -1.293 -33.390  1.00  0.00    -0.358 N 
HETATM   13  C   UNL     1      -7.513  -0.244 -35.218  1.00  0.00     0.002 A 
HETATM   14  C   UNL     1      -7.586   1.039 -34.684  1.00  0.00     0.001 A 
HETATM   15  H   UNL     1      -4.175  -2.239 -33.622  1.00  0.00     0.166 HD
HETATM   16  C   UNL     1      -3.788  -0.475 -32.502  1.00  0.00     0.018 A 
HETATM   17  C   UNL     1      -2.574  -0.945 -31.785  1.00  0.00     0.069 C 
ENDBRANCH   6   7
ENDBRANCH   2   5
BRANCH   1  18
HETATM   18  C   UNL     1      -2.999   6.091 -30.735  1.00  0.00     0.280 C 
BRANCH  18  19
HETATM   19  O   UNL     1      -2.233   7.194 -31.229  1.00  0.00    -0.340 OA
BRANCH  19  20
HETATM   20  C   UNL     1      -1.293   7.560 -30.290  1.00  0.00     0.092 A 
HETATM   21  C   UNL     1      -1.608   8.568 -29.369  1.00  0.00     0.045 A 
HETATM   22  C   UNL     1      -0.707   8.903 -28.355  1.00  0.00     0.028 A 
HETATM   23 BR   UNL     1      -3.270   9.481 -29.433  1.00  0.00    -0.048 Br
HETATM   24  C   UNL     1       0.528   8.249 -28.265  1.00  0.00    -0.060 A 
HETATM   25  C   UNL     1       1.465   8.542 -27.130  1.00  0.00     0.048 C 
HETATM   26  C   UNL     1       0.851   7.268 -29.211  1.00  0.00     0.016 A 
HETATM   27  C   UNL     1      -0.035   6.936 -30.250  1.00  0.00    -0.027 A 
HETATM   28  C   UNL     1       0.375   5.883 -31.241  1.00  0.00     0.051 C 
ENDBRANCH  19  20
ENDBRANCH  18  19
ENDBRANCH   1  18
TORSDOF 5
ENDMDL
MODEL 4
REMARK VINA RESULT:      -8.5      5.238      8.374
REMARK  5 active torsions:
REMARK  status: ('A' for Active; 'I' for Inactive)
REMARK    1  A    between atoms: C_6  and  O_7 
REMARK    2  A    between atoms: O_7  and  C_8 
REMARK    3  A    between atoms: C_8  and  C_9 
REMARK       I    between atoms: C_9  and  N_10 
REMARK    4  A    between atoms: N_10  and  N_11 
REMARK    5  A    between atoms: C_12  and  C_13 
ROOT
HETATM    1  C   UNL     1      -5.396   2.938 -32.014  1.00  0.00     0.261 C 
HETATM    2  N   UNL     1      -4.880   1.678 -31.761  1.00  0.00    -0.246 N 
HETATM    3  O   UNL     1      -6.292   3.184 -32.823  1.00  0.00    -0.269 OA
HETATM    4  H   UNL     1      -4.113   1.558 -31.106  1.00  0.00     0.192 HD
ENDROOT
BRANCH   2   5
HETATM    5  N   UNL     1      -5.464   0.615 -32.376  1.00  0.00    -0.184 NA
HETATM    6  C   UNL     1      -4.826   0.034 -33.336  1.00  0.00     0.153 C 
BRANCH   6   7
HETATM    7  C   UNL     1      -5.431  -1.133 -33.959  1.00  0.00     0.018 A 
HETATM    8  C   UNL     1      -4.965  -2.495 -33.937  1.00  0.00     0.004 A 
HETATM    9  C   UNL     1      -5.856  -3.257 -34.690  1.00  0.00     0.043 A 
HETATM   10  C   UNL     1      -3.861  -3.153 -33.350  1.00  0.00     0.014 A 
HETATM   11  C   UNL     1      -5.700  -4.635 -34.890  1.00  0.00     0.030 A 
HETATM   12  N   UNL     1      -6.830  -2.403 -35.145  1.00  0.00    -0.358 N 
HETATM   13  C   UNL     1      -4.597  -5.259 -34.298  1.00  0.00     0.002 A 
HETATM   14  C   UNL     1      -3.688  -4.529 -33.537  1.00  0.00     0.001 A 
HETATM   15  H   UNL     1      -7.608  -2.694 -35.721  1.00  0.00     0.166 HD
HETATM   16  C   UNL     1      -6.593  -1.117 -34.722  1.00  0.00     0.018 A 
HETATM   17  C   UNL     1      -7.507  -0.008 -35.098  1.00  0.00     0.069 C 
ENDBRANCH   6   7
ENDBRANCH   2   5
BRANCH   1  18
HETATM   18  C   UNL     1      -4.840   4.040 -31.122  1.00  0.00     0.280 C 
BRANCH  18  19
HETATM   19  O   UNL     1      -4.654   5.298 -31.778  1.00  0.00    -0.340 OA
BRANCH  19  20
HETATM   20  C   UNL     1      -3.347   5.706 -31.634  1.00  0.00     0.092 A 
HETATM   21  C   UNL     1      -2.986   6.448 -30.502  1.00  0.00     0.045 A 
HETATM   22  C   UNL     1      -1.652   6.805 -30.288  1.00  0.00     0.028 A 
HETATM   23 BR   UNL     1      -4.273   6.959 -29.204  1.00  0.00    -0.048 Br
HETATM   24  C   UNL     1      -0.668   6.442 -31.215  1.00  0.00    -0.060 A 
HETATM   25  C   UNL     1       0.778   6.747 -30.952  1.00  0.00     0.048 C 
HETATM   26  C   UNL     1      -1.041   5.732 -32.364  1.00  0.00     0.016 A 
HETATM   27  C   UNL     1      -2.382   5.385 -32.604  1.00  0.00    -0.027 A 
HETATM   28  C   UNL     1      -2.720   4.632 -33.859  1.00  0.00     0.051 C 
ENDBRANCH  19  20
ENDBRANCH  18  19
ENDBRANCH   1  18
TORSDOF 5
ENDMDL
MODEL 5
REMARK VINA RESULT:      -8.5      5.074      8.598
REMARK  5 active torsions:
REMARK  status: ('A' for Active; 'I' for Inactive)
REMARK    1  A    between atoms: C_6  and  O_7 
REMARK    2  A    between atoms: O_7  and  C_8 
REMARK    3  A    between atoms: C_8  and  C_9 
REMARK       I    between atoms: C_9  and  N_10 
REMARK    4  A    between atoms: N_10  and  N_11 
REMARK    5  A    between atoms: C_12  and  C_13 
ROOT
HETATM    1  C   UNL     1      -3.119   0.467 -31.968  1.00  0.00     0.261 C 
HETATM    2  N   UNL     1      -3.419   1.733 -32.444  1.00  0.00    -0.246 N 
HETATM    3  O   UNL     1      -2.473   0.233 -30.946  1.00  0.00    -0.269 OA
HETATM    4  H   UNL     1      -3.923   1.848 -33.318  1.00  0.00     0.192 HD
ENDROOT
BRANCH   2   5
HETATM    5  N   UNL     1      -3.060   2.802 -31.683  1.00  0.00    -0.184 NA
HETATM    6  C   UNL     1      -3.366   3.984 -32.100  1.00  0.00     0.153 C 
BRANCH   6   7
HETATM    7  C   UNL     1      -3.025   5.122 -31.261  1.00  0.00     0.018 A 
HETATM    8  C   UNL     1      -1.723   5.685 -31.013  1.00  0.00     0.004 A 
HETATM    9  C   UNL     1      -1.885   6.747 -30.127  1.00  0.00     0.043 A 
HETATM   10  C   UNL     1      -0.415   5.385 -31.456  1.00  0.00     0.014 A 
HETATM   11  C   UNL     1      -0.814   7.520 -29.659  1.00  0.00     0.030 A 
HETATM   12  N   UNL     1      -3.227   6.839 -29.851  1.00  0.00    -0.358 N 
HETATM   13  C   UNL     1       0.469   7.199 -30.114  1.00  0.00     0.002 A 
HETATM   14  C   UNL     1       0.668   6.146 -31.001  1.00  0.00     0.001 A 
HETATM   15  H   UNL     1      -3.628   7.529 -29.231  1.00  0.00     0.166 HD
HETATM   16  C   UNL     1      -3.933   5.867 -30.519  1.00  0.00     0.018 A 
HETATM   17  C   UNL     1      -5.407   5.755 -30.370  1.00  0.00     0.069 C 
ENDBRANCH   6   7
ENDBRANCH   2   5
BRANCH   1  18
HETATM   18  C   UNL     1      -3.747  -0.672 -32.760  1.00  0.00     0.280 C 
BRANCH  18  19
HETATM   19  O   UNL     1      -4.819  -1.340 -32.091  1.00  0.00    -0.340 OA
BRANCH  19  20
HETATM   20  C   UNL     1      -6.024  -0.857 -32.551  1.00  0.00     0.092 A 
HETATM   21  C   UNL     1      -6.744   0.045 -31.757  1.00  0.00     0.045 A 
HETATM   22  C   UNL     1      -7.929   0.614 -32.233  1.00  0.00     0.028 A 
HETATM   23 BR   UNL     1      -6.127   0.559 -30.038  1.00  0.00    -0.048 Br
HETATM   24  C   UNL     1      -8.417   0.270 -33.499  1.00  0.00    -0.060 A 
HETATM   25  C   UNL     1      -9.640   0.940 -34.053  1.00  0.00     0.048 C 
HETATM   26  C   UNL     1      -7.711  -0.661 -34.273  1.00  0.00     0.016 A 
HETATM   27  C   UNL     1      -6.531  -1.259 -33.799  1.00  0.00    -0.027 A 
HETATM   28  C   UNL     1      -5.826  -2.259 -34.671  1.00  0.00     0.051 C 
ENDBRANCH  19  20
ENDBRANCH  18  19
ENDBRANCH   1  18
TORSDOF 5
ENDMDL
MODEL 6
REMARK VINA RESULT:      -8.5      5.880      9.652
REMARK  5 active torsions:
REMARK  status: ('A' for Active; 'I' for Inactive)
REMARK    1  A    between atoms: C_6  and  O_7 
REMARK    2  A    between atoms: O_7  and  C_8 
REMARK    3  A    between atoms: C_8  and  C_9 
REMARK       I    between atoms: C_9  and  N_10 
REMARK    4  A    between atoms: N_10  and  N_11 
REMARK    5  A    between atoms: C_12  and  C_13 
ROOT
HETATM    1  C   UNL     1      -3.055   3.974 -32.094  1.00  0.00     0.261 C 
HETATM    2  N   UNL     1      -4.081   3.097 -31.782  1.00  0.00    -0.246 N 
HETATM    3  O   UNL     1      -2.239   3.809 -33.002  1.00  0.00    -0.269 OA
HETATM    4  H   UNL     1      -4.692   3.281 -30.992  1.00  0.00     0.192 HD
ENDROOT
BRANCH   2   5
HETATM    5  N   UNL     1      -4.267   2.020 -32.590  1.00  0.00    -0.184 NA
HETATM    6  C   UNL     1      -4.857   0.980 -32.103  1.00  0.00     0.153 C 
BRANCH   6   7
HETATM    7  C   UNL     1      -5.098  -0.152 -32.984  1.00  0.00     0.018 A 
HETATM    8  C   UNL     1      -4.496  -1.459 -32.936  1.00  0.00     0.004 A 
HETATM    9  C   UNL     1      -5.017  -2.202 -33.993  1.00  0.00     0.043 A 
HETATM   10  C   UNL     1      -3.548  -2.082 -32.093  1.00  0.00     0.014 A 
HETATM   11  C   UNL     1      -4.640  -3.526 -34.254  1.00  0.00     0.030 A 
HETATM   12  N   UNL     1      -5.907  -1.391 -34.654  1.00  0.00    -0.358 N 
HETATM   13  C   UNL     1      -3.698  -4.114 -33.404  1.00  0.00     0.002 A 
HETATM   14  C   UNL     1      -3.158  -3.403 -32.336  1.00  0.00     0.001 A 
HETATM   15  H   UNL     1      -6.433  -1.678 -35.467  1.00  0.00     0.166 HD
HETATM   16  C   UNL     1      -5.968  -0.149 -34.067  1.00  0.00     0.018 A 
HETATM   17  C   UNL     1      -6.856   0.910 -34.612  1.00  0.00     0.069 C 
ENDBRANCH   6   7
ENDBRANCH   2   5
BRANCH   1  18
HETATM   18  C   UNL     1      -3.055   5.262 -31.282  1.00  0.00     0.280 C 
BRANCH  18  19
HETATM   19  O   UNL     1      -2.276   6.321 -31.847  1.00  0.00    -0.340 OA
BRANCH  19  20
HETATM   20  C   UNL     1      -1.547   6.939 -30.855  1.00  0.00     0.092 A 
HETATM   21  C   UNL     1      -2.084   8.064 -30.216  1.00  0.00     0.045 A 
HETATM   22  C   UNL     1      -1.404   8.662 -29.151  1.00  0.00     0.028 A 
HETATM   23 BR   UNL     1      -3.758   8.792 -30.736  1.00  0.00    -0.048 Br
HETATM   24  C   UNL     1      -0.170   8.154 -28.728  1.00  0.00    -0.060 A 
HETATM   25  C   UNL     1       0.525   8.735 -27.533  1.00  0.00     0.048 C 
HETATM   26  C   UNL     1       0.378   7.050 -29.396  1.00  0.00     0.016 A 
HETATM   27  C   UNL     1      -0.283   6.452 -30.482  1.00  0.00    -0.027 A 
HETATM   28  C   UNL     1       0.362   5.278 -31.163  1.00  0.00     0.051 C 
ENDBRANCH  19  20
ENDBRANCH  18  19
ENDBRANCH   1  18
TORSDOF 5
ENDMDL
MODEL 7
REMARK VINA RESULT:      -8.4      5.511      9.417
REMARK  5 active torsions:
REMARK  status: ('A' for Active; 'I' for Inactive)
REMARK    1  A    between atoms: C_6  and  O_7 
REMARK    2  A    between atoms: O_7  and  C_8 
REMARK    3  A    between atoms: C_8  and  C_9 
REMARK       I    between atoms: C_9  and  N_10 
REMARK    4  A    between atoms: N_10  and  N_11 
REMARK    5  A    between atoms: C_12  and  C_13 
ROOT
HETATM    1  C   UNL     1      -5.419   1.946 -31.218  1.00  0.00     0.261 C 
HETATM    2  N   UNL     1      -4.484   2.761 -31.835  1.00  0.00    -0.246 N 
HETATM    3  O   UNL     1      -5.698   1.975 -30.019  1.00  0.00    -0.269 OA
HETATM    4  H   UNL     1      -4.279   2.652 -32.824  1.00  0.00     0.192 HD
ENDROOT
BRANCH   2   5
HETATM    5  N   UNL     1      -3.893   3.732 -31.089  1.00  0.00    -0.184 NA
HETATM    6  C   UNL     1      -3.967   4.953 -31.499  1.00  0.00     0.153 C 
BRANCH   6   7
HETATM    7  C   UNL     1      -3.376   5.995 -30.673  1.00  0.00     0.018 A 
HETATM    8  C   UNL     1      -1.980   6.290 -30.478  1.00  0.00     0.004 A 
HETATM    9  C   UNL     1      -1.896   7.356 -29.585  1.00  0.00     0.043 A 
HETATM   10  C   UNL     1      -0.775   5.743 -30.973  1.00  0.00     0.014 A 
HETATM   11  C   UNL     1      -0.677   7.900 -29.161  1.00  0.00     0.030 A 
HETATM   12  N   UNL     1      -3.182   7.707 -29.256  1.00  0.00    -0.358 N 
HETATM   13  C   UNL     1       0.499   7.338 -29.667  1.00  0.00     0.002 A 
HETATM   14  C   UNL     1       0.453   6.273 -30.562  1.00  0.00     0.001 A 
HETATM   15  H   UNL     1      -3.415   8.457 -28.620  1.00  0.00     0.166 HD
HETATM   16  C   UNL     1      -4.090   6.897 -29.895  1.00  0.00     0.018 A 
HETATM   17  C   UNL     1      -5.551   7.076 -29.688  1.00  0.00     0.069 C 
ENDBRANCH   6   7
ENDBRANCH   2   5
BRANCH   1  18
HETATM   18  C   UNL     1      -6.193   1.041 -32.167  1.00  0.00     0.280 C 
BRANCH  18  19
HETATM   19  O   UNL     1      -5.638   0.945 -33.482  1.00  0.00    -0.340 OA
BRANCH  19  20
HETATM   20  C   UNL     1      -5.699  -0.361 -33.915  1.00  0.00     0.092 A 
HETATM   21  C   UNL     1      -4.649  -1.233 -33.601  1.00  0.00     0.045 A 
HETATM   22  C   UNL     1      -4.722  -2.583 -33.957  1.00  0.00     0.028 A 
HETATM   23 BR   UNL     1      -3.118  -0.635 -32.653  1.00  0.00    -0.048 Br
HETATM   24  C   UNL     1      -5.837  -3.070 -34.650  1.00  0.00    -0.060 A 
HETATM   25  C   UNL     1      -5.963  -4.532 -34.960  1.00  0.00     0.048 C 
HETATM   26  C   UNL     1      -6.867  -2.184 -34.993  1.00  0.00     0.016 A 
HETATM   27  C   UNL     1      -6.798  -0.820 -34.662  1.00  0.00    -0.027 A 
HETATM   28  C   UNL     1      -7.929   0.081 -35.068  1.00  0.00     0.051 C 
ENDBRANCH  19  20
ENDBRANCH  18  19
ENDBRANCH   1  18
TORSDOF 5
ENDMDL
MODEL 8
REMARK VINA RESULT:      -8.3      3.507      9.222
REMARK  5 active torsions:
REMARK  status: ('A' for Active; 'I' for Inactive)
REMARK    1  A    between atoms: C_6  and  O_7 
REMARK    2  A    between atoms: O_7  and  C_8 
REMARK    3  A    between atoms: C_8  and  C_9 
REMARK       I    between atoms: C_9  and  N_10 
REMARK    4  A    between atoms: N_10  and  N_11 
REMARK    5  A    between atoms: C_12  and  C_13 
ROOT
HETATM    1  C   UNL     1      -7.645   1.805 -32.234  1.00  0.00     0.261 C 
HETATM    2  N   UNL     1      -7.770   2.633 -33.337  1.00  0.00    -0.246 N 
HETATM    3  O   UNL     1      -8.510   1.643 -31.372  1.00  0.00    -0.269 OA
HETATM    4  H   UNL     1      -6.996   2.747 -33.986  1.00  0.00     0.192 HD
ENDROOT
BRANCH   2   5
HETATM    5  N   UNL     1      -8.968   3.242 -33.544  1.00  0.00    -0.184 NA
HETATM    6  C   UNL     1      -9.726   2.801 -34.491  1.00  0.00     0.153 C 
BRANCH   6   7
HETATM    7  C   UNL     1     -11.028   3.424 -34.678  1.00  0.00     0.018 A 
HETATM    8  C   UNL     1     -11.317   4.784 -35.048  1.00  0.00     0.004 A 
HETATM    9  C   UNL     1     -12.703   4.926 -35.083  1.00  0.00     0.043 A 
HETATM   10  C   UNL     1     -10.528   5.916 -35.351  1.00  0.00     0.014 A 
HETATM   11  C   UNL     1     -13.338   6.134 -35.400  1.00  0.00     0.030 A 
HETATM   12  N   UNL     1     -13.239   3.704 -34.759  1.00  0.00    -0.358 N 
HETATM   13  C   UNL     1     -12.531   7.237 -35.694  1.00  0.00     0.002 A 
HETATM   14  C   UNL     1     -11.143   7.132 -35.671  1.00  0.00     0.001 A 
HETATM   15  H   UNL     1     -14.232   3.521 -34.709  1.00  0.00     0.166 HD
HETATM   16  C   UNL     1     -12.250   2.785 -34.506  1.00  0.00     0.018 A 
HETATM   17  C   UNL     1     -12.584   1.388 -34.123  1.00  0.00     0.069 C 
ENDBRANCH   6   7
ENDBRANCH   2   5
BRANCH   1  18
HETATM   18  C   UNL     1      -6.358   0.991 -32.197  1.00  0.00     0.280 C 
BRANCH  18  19
HETATM   19  O   UNL     1      -5.673   0.906 -33.449  1.00  0.00    -0.340 OA
BRANCH  19  20
HETATM   20  C   UNL     1      -5.583  -0.412 -33.838  1.00  0.00     0.092 A 
HETATM   21  C   UNL     1      -4.520  -1.192 -33.364  1.00  0.00     0.045 A 
HETATM   22  C   UNL     1      -4.448  -2.552 -33.676  1.00  0.00     0.028 A 
HETATM   23 BR   UNL     1      -3.169  -0.451 -32.256  1.00  0.00    -0.048 Br
HETATM   24  C   UNL     1      -5.428  -3.142 -34.484  1.00  0.00    -0.060 A 
HETATM   25  C   UNL     1      -5.406  -4.618 -34.753  1.00  0.00     0.048 C 
HETATM   26  C   UNL     1      -6.468  -2.349 -34.985  1.00  0.00     0.016 A 
HETATM   27  C   UNL     1      -6.542  -0.975 -34.699  1.00  0.00    -0.027 A 
HETATM   28  C   UNL     1      -7.676  -0.176 -35.275  1.00  0.00     0.051 C 
ENDBRANCH  19  20
ENDBRANCH  18  19
ENDBRANCH   1  18
TORSDOF 5
ENDMDL
MODEL 9
REMARK VINA RESULT:      -8.2      2.548      3.262
REMARK  5 active torsions:
REMARK  status: ('A' for Active; 'I' for Inactive)
REMARK    1  A    between atoms: C_6  and  O_7 
REMARK    2  A    between atoms: O_7  and  C_8 
REMARK    3  A    between atoms: C_8  and  C_9 
REMARK       I    between atoms: C_9  and  N_10 
REMARK    4  A    between atoms: N_10  and  N_11 
REMARK    5  A    between atoms: C_12  and  C_13 
ROOT
HETATM    1  C   UNL     1      -7.871   2.728 -30.498  1.00  0.00     0.261 C 
HETATM    2  N   UNL     1      -8.229   1.457 -30.915  1.00  0.00    -0.246 N 
HETATM    3  O   UNL     1      -6.714   3.141 -30.409  1.00  0.00    -0.269 OA
HETATM    4  H   UNL     1      -9.205   1.175 -30.925  1.00  0.00     0.192 HD
ENDROOT
BRANCH   2   5
HETATM    5  N   UNL     1      -7.244   0.627 -31.351  1.00  0.00    -0.184 NA
HETATM    6  C   UNL     1      -6.997   0.579 -32.617  1.00  0.00     0.153 C 
BRANCH   6   7
HETATM    7  C   UNL     1      -5.910  -0.273 -33.075  1.00  0.00     0.018 A 
HETATM    8  C   UNL     1      -5.999  -1.544 -33.744  1.00  0.00     0.004 A 
HETATM    9  C   UNL     1      -4.699  -1.995 -33.966  1.00  0.00     0.043 A 
HETATM   10  C   UNL     1      -7.066  -2.361 -34.179  1.00  0.00     0.014 A 
HETATM   11  C   UNL     1      -4.412  -3.215 -34.592  1.00  0.00     0.030 A 
HETATM   12  N   UNL     1      -3.851  -1.039 -33.464  1.00  0.00    -0.358 N 
HETATM   13  C   UNL     1      -5.489  -4.002 -35.010  1.00  0.00     0.002 A 
HETATM   14  C   UNL     1      -6.800  -3.583 -34.808  1.00  0.00     0.001 A 
HETATM   15  H   UNL     1      -2.843  -1.110 -33.492  1.00  0.00     0.166 HD
HETATM   16  C   UNL     1      -4.558   0.006 -32.918  1.00  0.00     0.018 A 
HETATM   17  C   UNL     1      -3.857   1.162 -32.299  1.00  0.00     0.069 C 
ENDBRANCH   6   7
ENDBRANCH   2   5
BRANCH   1  18
HETATM   18  C   UNL     1      -9.044   3.664 -30.241  1.00  0.00     0.280 C 
BRANCH  18  19
HETATM   19  O   UNL     1      -9.260   4.642 -31.263  1.00  0.00    -0.340 OA
BRANCH  19  20
HETATM   20  C   UNL     1     -10.031   4.099 -32.266  1.00  0.00     0.092 A 
HETATM   21  C   UNL     1      -9.430   3.780 -33.491  1.00  0.00     0.045 A 
HETATM   22  C   UNL     1     -10.169   3.153 -34.498  1.00  0.00     0.028 A 
HETATM   23 BR   UNL     1      -7.596   4.143 -33.816  1.00  0.00    -0.048 Br
HETATM   24  C   UNL     1     -11.523   2.859 -34.298  1.00  0.00    -0.060 A 
HETATM   25  C   UNL     1     -12.302   2.110 -35.340  1.00  0.00     0.048 C 
HETATM   26  C   UNL     1     -12.128   3.214 -33.085  1.00  0.00     0.016 A 
HETATM   27  C   UNL     1     -11.403   3.865 -32.072  1.00  0.00    -0.027 A 
HETATM   28  C   UNL     1     -12.111   4.230 -30.798  1.00  0.00     0.051 C 
ENDBRANCH  19  20
ENDBRANCH  18  19
ENDBRANCH   1  18
TORSDOF 5
ENDMDL
MODEL 10
REMARK VINA RESULT:      -8.0      1.820      2.557
REMARK  5 active torsions:
REMARK  status: ('A' for Active; 'I' for Inactive)
REMARK    1  A    between atoms: C_6  and  O_7 
REMARK    2  A    between atoms: O_7  and  C_8 
REMARK    3  A    between atoms: C_8  and  C_9 
REMARK       I    between atoms: C_9  and  N_10 
REMARK    4  A    between atoms: N_10  and  N_11 
REMARK    5  A    between atoms: C_12  and  C_13 
ROOT
HETATM    1  C   UNL     1     -10.111   3.009 -32.395  1.00  0.00     0.261 C 
HETATM    2  N   UNL     1      -9.496   2.319 -31.363  1.00  0.00    -0.246 N 
HETATM    3  O   UNL     1      -9.594   3.254 -33.486  1.00  0.00    -0.269 OA
HETATM    4  H   UNL     1      -9.971   2.190 -30.476  1.00  0.00     0.192 HD
ENDROOT
BRANCH   2   5
HETATM    5  N   UNL     1      -8.267   1.785 -31.598  1.00  0.00    -0.184 NA
HETATM    6  C   UNL     1      -8.120   0.508 -31.481  1.00  0.00     0.153 C 
BRANCH   6   7
HETATM    7  C   UNL     1      -6.817  -0.066 -31.779  1.00  0.00     0.018 A 
HETATM    8  C   UNL     1      -6.451  -0.915 -32.882  1.00  0.00     0.004 A 
HETATM    9  C   UNL     1      -5.102  -1.234 -32.739  1.00  0.00     0.043 A 
HETATM   10  C   UNL     1      -7.145  -1.451 -33.991  1.00  0.00     0.014 A 
HETATM   11  C   UNL     1      -4.415  -2.059 -33.639  1.00  0.00     0.030 A 
HETATM   12  N   UNL     1      -4.658  -0.601 -31.605  1.00  0.00    -0.358 N 
HETATM   13  C   UNL     1      -5.128  -2.575 -34.726  1.00  0.00     0.002 A 
HETATM   14  C   UNL     1      -6.475  -2.276 -34.902  1.00  0.00     0.001 A 
HETATM   15  H   UNL     1      -3.709  -0.662 -31.262  1.00  0.00     0.166 HD
HETATM   16  C   UNL     1      -5.675   0.104 -31.006  1.00  0.00     0.018 A 
HETATM   17  C   UNL     1      -5.440   0.867 -29.753  1.00  0.00     0.069 C 
ENDBRANCH   6   7
ENDBRANCH   2   5
BRANCH   1  18
HETATM   18  C   UNL     1     -11.564   3.379 -32.130  1.00  0.00     0.280 C 
BRANCH  18  19
HETATM   19  O   UNL     1     -12.373   3.487 -33.305  1.00  0.00    -0.340 OA
BRANCH  19  20
HETATM   20  C   UNL     1     -13.701   3.344 -32.967  1.00  0.00     0.092 A 
HETATM   21  C   UNL     1     -14.306   2.088 -33.101  1.00  0.00     0.045 A 
HETATM   22  C   UNL     1     -15.628   1.894 -32.689  1.00  0.00     0.028 A 
HETATM   23 BR   UNL     1     -13.356   0.602 -33.803  1.00  0.00    -0.048 Br
HETATM   24  C   UNL     1     -16.364   2.960 -32.158  1.00  0.00    -0.060 A 
HETATM   25  C   UNL     1     -17.753   2.741 -31.635  1.00  0.00     0.048 C 
HETATM   26  C   UNL     1     -15.764   4.222 -32.061  1.00  0.00     0.016 A 
HETATM   27  C   UNL     1     -14.443   4.438 -32.491  1.00  0.00    -0.027 A 
HETATM   28  C   UNL     1     -13.860   5.818 -32.371  1.00  0.00     0.051 C 
ENDBRANCH  19  20
ENDBRANCH  18  19
ENDBRANCH   1  18
TORSDOF 5
ENDMDL
