MODEL 1
REMARK VINA RESULT:      -7.5      0.000      0.000
REMARK  5 active torsions:
REMARK  status: ('A' for Active; 'I' for Inactive)
REMARK    1  A    between atoms: O_2  and  C_3 
REMARK    2  A    between atoms: C_4  and  C_5 
REMARK    3  A    between atoms: C_5  and  N_6 
REMARK    4  A    between atoms: N_6  and  N_7 
REMARK    5  A    between atoms: N_7  and  C_8 
ROOT
HETATM    1  C   UNL     1      -6.215   1.495 -32.598  1.00  0.00     0.169 C 
HETATM    2  S   UNL     1      -7.439   2.630 -32.960  1.00  0.00    -0.009 SA
HETATM    3  C   UNL     1      -6.514   3.962 -33.586  1.00  0.00     0.229 C 
HETATM    4  O   UNL     1      -7.061   4.818 -34.265  1.00  0.00    -0.279 OA
HETATM    5  C   UNL     1      -5.085   4.071 -33.261  1.00  0.00     0.048 A 
HETATM    6  C   UNL     1      -4.376   2.974 -32.767  1.00  0.00     0.049 A 
HETATM    7  C   UNL     1      -4.438   5.296 -33.488  1.00  0.00     0.018 A 
HETATM    8  C   UNL     1      -3.080   5.435 -33.206  1.00  0.00     0.001 A 
HETATM    9  C   UNL     1      -2.364   4.351 -32.709  1.00  0.00     0.002 A 
HETATM   10  C   UNL     1      -3.007   3.129 -32.499  1.00  0.00     0.030 A 
HETATM   11  N   UNL     1      -4.927   1.755 -32.541  1.00  0.00    -0.335 N 
HETATM   12  H   UNL     1      -4.346   0.966 -32.268  1.00  0.00     0.168 HD
ENDROOT
BRANCH   1  13
HETATM   13  N   UNL     1      -6.618   0.261 -32.319  1.00  0.00    -0.257 N 
HETATM   14  H   UNL     1      -6.358  -0.047 -31.380  1.00  0.00     0.191 HD
BRANCH  13  15
HETATM   15  N   UNL     1      -7.349  -0.575 -33.197  1.00  0.00    -0.184 NA
BRANCH  15  16
HETATM   16  C   UNL     1      -6.638  -0.925 -34.226  1.00  0.00     0.153 C 
BRANCH  16  17
HETATM   17  C   UNL     1      -6.007  -2.255 -34.319  1.00  0.00     0.016 A 
HETATM   18  C   UNL     1      -4.682  -2.422 -33.883  1.00  0.00     0.080 A 
HETATM   19  C   UNL     1      -4.110  -3.696 -33.951  1.00  0.00     0.037 A 
HETATM   20  C   UNL     1      -4.844  -4.776 -34.452  1.00  0.00     0.003 A 
HETATM   21  C   UNL     1      -6.155  -4.597 -34.891  1.00  0.00     0.001 A 
HETATM   22  C   UNL     1      -6.740  -3.334 -34.829  1.00  0.00     0.016 A 
BRANCH  18  23
HETATM   23  O   UNL     1      -4.038  -1.301 -33.430  1.00  0.00    -0.355 OA
HETATM   24  C   UNL     1      -3.348  -1.407 -32.187  1.00  0.00     0.210 C 
ENDBRANCH  18  23
ENDBRANCH  16  17
ENDBRANCH  15  16
ENDBRANCH  13  15
ENDBRANCH   1  13
TORSDOF 5
ENDMDL
MODEL 2
REMARK VINA RESULT:      -7.4      2.309      7.006
REMARK  5 active torsions:
REMARK  status: ('A' for Active; 'I' for Inactive)
REMARK    1  A    between atoms: O_2  and  C_3 
REMARK    2  A    between atoms: C_4  and  C_5 
REMARK    3  A    between atoms: C_5  and  N_6 
REMARK    4  A    between atoms: N_6  and  N_7 
REMARK    5  A    between atoms: N_7  and  C_8 
ROOT
HETATM    1  C   UNL     1      -4.902   0.482 -31.982  1.00  0.00     0.169 C 
HETATM    2  S   UNL     1      -6.408   1.108 -32.493  1.00  0.00    -0.009 SA
HETATM    3  C   UNL     1      -7.141  -0.287 -33.226  1.00  0.00     0.229 C 
HETATM    4  O   UNL     1      -8.350  -0.320 -33.397  1.00  0.00    -0.279 OA
HETATM    5  C   UNL     1      -6.295  -1.402 -33.672  1.00  0.00     0.048 A 
HETATM    6  C   UNL     1      -4.981  -1.534 -33.218  1.00  0.00     0.049 A 
HETATM    7  C   UNL     1      -6.847  -2.355 -34.545  1.00  0.00     0.018 A 
HETATM    8  C   UNL     1      -6.082  -3.434 -34.980  1.00  0.00     0.001 A 
HETATM    9  C   UNL     1      -4.770  -3.573 -34.538  1.00  0.00     0.002 A 
HETATM   10  C   UNL     1      -4.229  -2.633 -33.658  1.00  0.00     0.030 A 
HETATM   11  N   UNL     1      -4.386  -0.666 -32.362  1.00  0.00    -0.335 N 
HETATM   12  H   UNL     1      -3.459  -0.858 -31.990  1.00  0.00     0.168 HD
ENDROOT
BRANCH   1  13
HETATM   13  N   UNL     1      -4.192   1.249 -31.163  1.00  0.00    -0.257 N 
HETATM   14  H   UNL     1      -4.537   1.243 -30.201  1.00  0.00     0.191 HD
BRANCH  13  15
HETATM   15  N   UNL     1      -3.054   2.005 -31.537  1.00  0.00    -0.184 NA
BRANCH  15  16
HETATM   16  C   UNL     1      -3.285   3.281 -31.466  1.00  0.00     0.153 C 
BRANCH  16  17
HETATM   17  C   UNL     1      -2.809   4.215 -32.503  1.00  0.00     0.016 A 
HETATM   18  C   UNL     1      -1.548   4.819 -32.361  1.00  0.00     0.080 A 
HETATM   19  C   UNL     1      -1.100   5.680 -33.368  1.00  0.00     0.037 A 
HETATM   20  C   UNL     1      -1.899   5.936 -34.487  1.00  0.00     0.003 A 
HETATM   21  C   UNL     1      -3.153   5.340 -34.613  1.00  0.00     0.001 A 
HETATM   22  C   UNL     1      -3.613   4.479 -33.619  1.00  0.00     0.016 A 
BRANCH  18  23
HETATM   23  O   UNL     1      -0.850   4.522 -31.220  1.00  0.00    -0.355 OA
HETATM   24  C   UNL     1       0.264   5.354 -30.906  1.00  0.00     0.210 C 
ENDBRANCH  18  23
ENDBRANCH  16  17
ENDBRANCH  15  16
ENDBRANCH  13  15
ENDBRANCH   1  13
TORSDOF 5
ENDMDL
MODEL 3
REMARK VINA RESULT:      -7.4      2.412      6.957
REMARK  5 active torsions:
REMARK  status: ('A' for Active; 'I' for Inactive)
REMARK    1  A    between atoms: O_2  and  C_3 
REMARK    2  A    between atoms: C_4  and  C_5 
REMARK    3  A    between atoms: C_5  and  N_6 
REMARK    4  A    between atoms: N_6  and  N_7 
REMARK    5  A    between atoms: N_7  and  C_8 
ROOT
HETATM    1  C   UNL     1      -4.063   1.173 -31.907  1.00  0.00     0.169 C 
HETATM    2  S   UNL     1      -3.418  -0.270 -31.259  1.00  0.00    -0.009 SA
HETATM    3  C   UNL     1      -3.939  -1.446 -32.427  1.00  0.00     0.229 C 
HETATM    4  O   UNL     1      -3.382  -2.532 -32.487  1.00  0.00    -0.279 OA
HETATM    5  C   UNL     1      -5.074  -1.142 -33.308  1.00  0.00     0.048 A 
HETATM    6  C   UNL     1      -5.518   0.171 -33.480  1.00  0.00     0.049 A 
HETATM    7  C   UNL     1      -5.686  -2.199 -34.002  1.00  0.00     0.018 A 
HETATM    8  C   UNL     1      -6.757  -1.949 -34.858  1.00  0.00     0.001 A 
HETATM    9  C   UNL     1      -7.211  -0.647 -35.034  1.00  0.00     0.002 A 
HETATM   10  C   UNL     1      -6.590   0.404 -34.355  1.00  0.00     0.030 A 
HETATM   11  N   UNL     1      -4.966   1.244 -32.861  1.00  0.00    -0.335 N 
HETATM   12  H   UNL     1      -5.267   2.187 -33.092  1.00  0.00     0.168 HD
ENDROOT
BRANCH   1  13
HETATM   13  N   UNL     1      -3.634   2.307 -31.365  1.00  0.00    -0.257 N 
HETATM   14  H   UNL     1      -2.616   2.392 -31.357  1.00  0.00     0.191 HD
BRANCH  13  15
HETATM   15  N   UNL     1      -4.467   3.331 -30.852  1.00  0.00    -0.184 NA
BRANCH  15  16
HETATM   16  C   UNL     1      -4.026   4.510 -31.171  1.00  0.00     0.153 C 
BRANCH  16  17
HETATM   17  C   UNL     1      -3.422   4.783 -32.489  1.00  0.00     0.016 A 
HETATM   18  C   UNL     1      -2.026   4.715 -32.636  1.00  0.00     0.080 A 
HETATM   19  C   UNL     1      -1.474   4.947 -33.899  1.00  0.00     0.037 A 
HETATM   20  C   UNL     1      -2.298   5.250 -34.988  1.00  0.00     0.003 A 
HETATM   21  C   UNL     1      -3.681   5.325 -34.828  1.00  0.00     0.001 A 
HETATM   22  C   UNL     1      -4.247   5.094 -33.577  1.00  0.00     0.016 A 
BRANCH  18  23
HETATM   23  O   UNL     1      -1.303   4.433 -31.507  1.00  0.00    -0.355 OA
HETATM   24  C   UNL     1      -0.308   5.378 -31.121  1.00  0.00     0.210 C 
ENDBRANCH  18  23
ENDBRANCH  16  17
ENDBRANCH  15  16
ENDBRANCH  13  15
ENDBRANCH   1  13
TORSDOF 5
ENDMDL
MODEL 4
REMARK VINA RESULT:      -7.4      1.601      2.194
REMARK  5 active torsions:
REMARK  status: ('A' for Active; 'I' for Inactive)
REMARK    1  A    between atoms: O_2  and  C_3 
REMARK    2  A    between atoms: C_4  and  C_5 
REMARK    3  A    between atoms: C_5  and  N_6 
REMARK    4  A    between atoms: N_6  and  N_7 
REMARK    5  A    between atoms: N_7  and  C_8 
ROOT
HETATM    1  C   UNL     1      -5.232   3.353 -32.588  1.00  0.00     0.169 C 
HETATM    2  S   UNL     1      -5.731   4.234 -33.965  1.00  0.00    -0.009 SA
HETATM    3  C   UNL     1      -4.229   4.915 -34.512  1.00  0.00     0.229 C 
HETATM    4  O   UNL     1      -4.127   5.322 -35.660  1.00  0.00    -0.279 OA
HETATM    5  C   UNL     1      -3.102   5.035 -33.578  1.00  0.00     0.048 A 
HETATM    6  C   UNL     1      -3.079   4.311 -32.384  1.00  0.00     0.049 A 
HETATM    7  C   UNL     1      -2.028   5.872 -33.926  1.00  0.00     0.018 A 
HETATM    8  C   UNL     1      -0.935   6.002 -33.073  1.00  0.00     0.001 A 
HETATM    9  C   UNL     1      -0.903   5.290 -31.879  1.00  0.00     0.002 A 
HETATM   10  C   UNL     1      -1.964   4.446 -31.543  1.00  0.00     0.030 A 
HETATM   11  N   UNL     1      -4.067   3.470 -31.989  1.00  0.00    -0.335 N 
HETATM   12  H   UNL     1      -3.958   2.897 -31.156  1.00  0.00     0.168 HD
ENDROOT
BRANCH   1  13
HETATM   13  N   UNL     1      -6.120   2.512 -32.072  1.00  0.00    -0.257 N 
HETATM   14  H   UNL     1      -6.141   2.522 -31.050  1.00  0.00     0.191 HD
BRANCH  13  15
HETATM   15  N   UNL     1      -6.983   1.677 -32.821  1.00  0.00    -0.184 NA
BRANCH  15  16
HETATM   16  C   UNL     1      -6.955   0.452 -32.390  1.00  0.00     0.153 C 
BRANCH  16  17
HETATM   17  C   UNL     1      -6.302  -0.626 -33.156  1.00  0.00     0.016 A 
HETATM   18  C   UNL     1      -4.906  -0.774 -33.084  1.00  0.00     0.080 A 
HETATM   19  C   UNL     1      -4.307  -1.820 -33.793  1.00  0.00     0.037 A 
HETATM   20  C   UNL     1      -5.085  -2.692 -34.562  1.00  0.00     0.003 A 
HETATM   21  C   UNL     1      -6.467  -2.529 -34.634  1.00  0.00     0.001 A 
HETATM   22  C   UNL     1      -7.080  -1.493 -33.932  1.00  0.00     0.016 A 
BRANCH  18  23
HETATM   23  O   UNL     1      -4.229   0.141 -32.323  1.00  0.00    -0.355 OA
HETATM   24  C   UNL     1      -3.548  -0.350 -31.171  1.00  0.00     0.210 C 
ENDBRANCH  18  23
ENDBRANCH  16  17
ENDBRANCH  15  16
ENDBRANCH  13  15
ENDBRANCH   1  13
TORSDOF 5
ENDMDL
MODEL 5
REMARK VINA RESULT:      -7.3      2.286      3.493
REMARK  5 active torsions:
REMARK  status: ('A' for Active; 'I' for Inactive)
REMARK    1  A    between atoms: O_2  and  C_3 
REMARK    2  A    between atoms: C_4  and  C_5 
REMARK    3  A    between atoms: C_5  and  N_6 
REMARK    4  A    between atoms: N_6  and  N_7 
REMARK    5  A    between atoms: N_7  and  C_8 
ROOT
HETATM    1  C   UNL     1      -3.483   3.228 -31.740  1.00  0.00     0.169 C 
HETATM    2  S   UNL     1      -4.627   3.815 -32.865  1.00  0.00    -0.009 SA
HETATM    3  C   UNL     1      -3.745   5.104 -33.628  1.00  0.00     0.229 C 
HETATM    4  O   UNL     1      -4.108   5.530 -34.714  1.00  0.00    -0.279 OA
HETATM    5  C   UNL     1      -2.591   5.699 -32.942  1.00  0.00     0.048 A 
HETATM    6  C   UNL     1      -1.972   5.043 -31.875  1.00  0.00     0.049 A 
HETATM    7  C   UNL     1      -2.100   6.933 -33.403  1.00  0.00     0.018 A 
HETATM    8  C   UNL     1      -0.999   7.523 -32.787  1.00  0.00     0.001 A 
HETATM    9  C   UNL     1      -0.377   6.882 -31.721  1.00  0.00     0.002 A 
HETATM   10  C   UNL     1      -0.857   5.649 -31.275  1.00  0.00     0.030 A 
HETATM   11  N   UNL     1      -2.375   3.844 -31.387  1.00  0.00    -0.335 N 
HETATM   12  H   UNL     1      -1.834   3.367 -30.671  1.00  0.00     0.168 HD
ENDROOT
BRANCH   1  13
HETATM   13  N   UNL     1      -3.770   2.072 -31.154  1.00  0.00    -0.257 N 
HETATM   14  H   UNL     1      -4.582   2.121 -30.535  1.00  0.00     0.191 HD
BRANCH  13  15
HETATM   15  N   UNL     1      -3.061   0.862 -31.349  1.00  0.00    -0.184 NA
BRANCH  15  16
HETATM   16  C   UNL     1      -3.815  -0.173 -31.136  1.00  0.00     0.153 C 
BRANCH  16  17
HETATM   17  C   UNL     1      -4.653  -0.757 -32.200  1.00  0.00     0.016 A 
HETATM   18  C   UNL     1      -6.014  -0.416 -32.271  1.00  0.00     0.080 A 
HETATM   19  C   UNL     1      -6.786  -0.956 -33.304  1.00  0.00     0.037 A 
HETATM   20  C   UNL     1      -6.211  -1.823 -34.240  1.00  0.00     0.003 A 
HETATM   21  C   UNL     1      -4.862  -2.162 -34.154  1.00  0.00     0.001 A 
HETATM   22  C   UNL     1      -4.078  -1.632 -33.131  1.00  0.00     0.016 A 
BRANCH  18  23
HETATM   23  O   UNL     1      -6.489   0.422 -31.298  1.00  0.00    -0.355 OA
HETATM   24  C   UNL     1      -7.383   1.453 -31.710  1.00  0.00     0.210 C 
ENDBRANCH  18  23
ENDBRANCH  16  17
ENDBRANCH  15  16
ENDBRANCH  13  15
ENDBRANCH   1  13
TORSDOF 5
ENDMDL
MODEL 6
REMARK VINA RESULT:      -7.3      2.024      6.857
REMARK  5 active torsions:
REMARK  status: ('A' for Active; 'I' for Inactive)
REMARK    1  A    between atoms: O_2  and  C_3 
REMARK    2  A    between atoms: C_4  and  C_5 
REMARK    3  A    between atoms: C_5  and  N_6 
REMARK    4  A    between atoms: N_6  and  N_7 
REMARK    5  A    between atoms: N_7  and  C_8 
ROOT
HETATM    1  C   UNL     1      -4.281   1.023 -31.670  1.00  0.00     0.169 C 
HETATM    2  S   UNL     1      -3.670  -0.518 -31.255  1.00  0.00    -0.009 SA
HETATM    3  C   UNL     1      -4.199  -1.482 -32.601  1.00  0.00     0.229 C 
HETATM    4  O   UNL     1      -3.661  -2.556 -32.828  1.00  0.00    -0.279 OA
HETATM    5  C   UNL     1      -5.317  -1.019 -33.433  1.00  0.00     0.048 A 
HETATM    6  C   UNL     1      -5.734   0.314 -33.397  1.00  0.00     0.049 A 
HETATM    7  C   UNL     1      -5.940  -1.939 -34.292  1.00  0.00     0.018 A 
HETATM    8  C   UNL     1      -6.995  -1.534 -35.107  1.00  0.00     0.001 A 
HETATM    9  C   UNL     1      -7.422  -0.211 -35.076  1.00  0.00     0.002 A 
HETATM   10  C   UNL     1      -6.791   0.705 -34.233  1.00  0.00     0.030 A 
HETATM   11  N   UNL     1      -5.170   1.263 -32.609  1.00  0.00    -0.335 N 
HETATM   12  H   UNL     1      -5.450   2.237 -32.689  1.00  0.00     0.168 HD
ENDROOT
BRANCH   1  13
HETATM   13  N   UNL     1      -3.837   2.047 -30.951  1.00  0.00    -0.257 N 
HETATM   14  H   UNL     1      -4.475   2.322 -30.201  1.00  0.00     0.191 HD
BRANCH  13  15
HETATM   15  N   UNL     1      -2.605   2.714 -31.156  1.00  0.00    -0.184 NA
BRANCH  15  16
HETATM   16  C   UNL     1      -2.783   3.970 -31.435  1.00  0.00     0.153 C 
BRANCH  16  17
HETATM   17  C   UNL     1      -3.078   4.427 -32.806  1.00  0.00     0.016 A 
HETATM   18  C   UNL     1      -4.415   4.605 -33.201  1.00  0.00     0.080 A 
HETATM   19  C   UNL     1      -4.675   5.067 -34.495  1.00  0.00     0.037 A 
HETATM   20  C   UNL     1      -3.622   5.336 -35.376  1.00  0.00     0.003 A 
HETATM   21  C   UNL     1      -2.300   5.146 -34.976  1.00  0.00     0.001 A 
HETATM   22  C   UNL     1      -2.024   4.688 -33.690  1.00  0.00     0.016 A 
BRANCH  18  23
HETATM   23  O   UNL     1      -5.376   4.294 -32.276  1.00  0.00    -0.355 OA
HETATM   24  C   UNL     1      -6.710   4.703 -32.563  1.00  0.00     0.210 C 
ENDBRANCH  18  23
ENDBRANCH  16  17
ENDBRANCH  15  16
ENDBRANCH  13  15
ENDBRANCH   1  13
TORSDOF 5
ENDMDL
MODEL 7
REMARK VINA RESULT:      -7.2      4.059      7.430
REMARK  5 active torsions:
REMARK  status: ('A' for Active; 'I' for Inactive)
REMARK    1  A    between atoms: O_2  and  C_3 
REMARK    2  A    between atoms: C_4  and  C_5 
REMARK    3  A    between atoms: C_5  and  N_6 
REMARK    4  A    between atoms: N_6  and  N_7 
REMARK    5  A    between atoms: N_7  and  C_8 
ROOT
HETATM    1  C   UNL     1      -6.891   0.074 -33.998  1.00  0.00     0.169 C 
HETATM    2  S   UNL     1      -5.506   0.505 -33.097  1.00  0.00    -0.009 SA
HETATM    3  C   UNL     1      -4.433  -0.818 -33.442  1.00  0.00     0.229 C 
HETATM    4  O   UNL     1      -3.232  -0.693 -33.254  1.00  0.00    -0.279 OA
HETATM    5  C   UNL     1      -4.982  -2.093 -33.921  1.00  0.00     0.048 A 
HETATM    6  C   UNL     1      -6.278  -2.169 -34.436  1.00  0.00     0.049 A 
HETATM    7  C   UNL     1      -4.163  -3.234 -33.879  1.00  0.00     0.018 A 
HETATM    8  C   UNL     1      -4.643  -4.459 -34.338  1.00  0.00     0.001 A 
HETATM    9  C   UNL     1      -5.933  -4.547 -34.848  1.00  0.00     0.002 A 
HETATM   10  C   UNL     1      -6.740  -3.409 -34.903  1.00  0.00     0.030 A 
HETATM   11  N   UNL     1      -7.120  -1.109 -34.526  1.00  0.00    -0.335 N 
HETATM   12  H   UNL     1      -8.018  -1.199 -34.994  1.00  0.00     0.168 HD
ENDROOT
BRANCH   1  13
HETATM   13  N   UNL     1      -7.821   1.012 -34.137  1.00  0.00    -0.257 N 
HETATM   14  H   UNL     1      -7.486   1.951 -33.912  1.00  0.00     0.191 HD
BRANCH  13  15
HETATM   15  N   UNL     1      -9.151   0.783 -34.564  1.00  0.00    -0.184 NA
BRANCH  15  16
HETATM   16  C   UNL     1     -10.010   1.356 -33.777  1.00  0.00     0.153 C 
BRANCH  16  17
HETATM   17  C   UNL     1     -11.462   1.129 -33.912  1.00  0.00     0.016 A 
HETATM   18  C   UNL     1     -12.259   2.109 -34.527  1.00  0.00     0.080 A 
HETATM   19  C   UNL     1     -13.627   1.863 -34.674  1.00  0.00     0.037 A 
HETATM   20  C   UNL     1     -14.186   0.668 -34.208  1.00  0.00     0.003 A 
HETATM   21  C   UNL     1     -13.388  -0.293 -33.590  1.00  0.00     0.001 A 
HETATM   22  C   UNL     1     -12.022  -0.064 -33.438  1.00  0.00     0.016 A 
BRANCH  18  23
HETATM   23  O   UNL     1     -11.624   3.253 -34.931  1.00  0.00    -0.355 OA
HETATM   24  C   UNL     1     -12.400   4.205 -35.654  1.00  0.00     0.210 C 
ENDBRANCH  18  23
ENDBRANCH  16  17
ENDBRANCH  15  16
ENDBRANCH  13  15
ENDBRANCH   1  13
TORSDOF 5
ENDMDL
MODEL 8
REMARK VINA RESULT:      -7.0      1.861      7.356
REMARK  5 active torsions:
REMARK  status: ('A' for Active; 'I' for Inactive)
REMARK    1  A    between atoms: O_2  and  C_3 
REMARK    2  A    between atoms: C_4  and  C_5 
REMARK    3  A    between atoms: C_5  and  N_6 
REMARK    4  A    between atoms: N_6  and  N_7 
REMARK    5  A    between atoms: N_7  and  C_8 
ROOT
HETATM    1  C   UNL     1      -4.999   1.335 -32.689  1.00  0.00     0.169 C 
HETATM    2  S   UNL     1      -6.408   1.839 -33.514  1.00  0.00    -0.009 SA
HETATM    3  C   UNL     1      -7.081   0.319 -34.024  1.00  0.00     0.229 C 
HETATM    4  O   UNL     1      -8.259   0.252 -34.342  1.00  0.00    -0.279 OA
HETATM    5  C   UNL     1      -6.218  -0.866 -34.109  1.00  0.00     0.048 A 
HETATM    6  C   UNL     1      -4.977  -0.898 -33.468  1.00  0.00     0.049 A 
HETATM    7  C   UNL     1      -6.681  -1.983 -34.824  1.00  0.00     0.018 A 
HETATM    8  C   UNL     1      -5.898  -3.131 -34.915  1.00  0.00     0.001 A 
HETATM    9  C   UNL     1      -4.659  -3.174 -34.285  1.00  0.00     0.002 A 
HETATM   10  C   UNL     1      -4.207  -2.067 -33.562  1.00  0.00     0.030 A 
HETATM   11  N   UNL     1      -4.472   0.132 -32.744  1.00  0.00    -0.335 N 
HETATM   12  H   UNL     1      -3.606   0.023 -32.222  1.00  0.00     0.168 HD
ENDROOT
BRANCH   1  13
HETATM   13  N   UNL     1      -4.377   2.259 -31.965  1.00  0.00    -0.257 N 
HETATM   14  H   UNL     1      -4.968   2.669 -31.239  1.00  0.00     0.191 HD
BRANCH  13  15
HETATM   15  N   UNL     1      -3.029   2.657 -32.137  1.00  0.00    -0.184 NA
BRANCH  15  16
HETATM   16  C   UNL     1      -2.759   3.730 -31.458  1.00  0.00     0.153 C 
BRANCH  16  17
HETATM   17  C   UNL     1      -2.183   4.929 -32.096  1.00  0.00     0.016 A 
HETATM   18  C   UNL     1      -2.938   5.633 -33.049  1.00  0.00     0.080 A 
HETATM   19  C   UNL     1      -2.388   6.784 -33.622  1.00  0.00     0.037 A 
HETATM   20  C   UNL     1      -1.108   7.215 -33.256  1.00  0.00     0.003 A 
HETATM   21  C   UNL     1      -0.364   6.503 -32.316  1.00  0.00     0.001 A 
HETATM   22  C   UNL     1      -0.899   5.356 -31.735  1.00  0.00     0.016 A 
BRANCH  18  23
HETATM   23  O   UNL     1      -4.170   5.121 -33.357  1.00  0.00    -0.355 OA
HETATM   24  C   UNL     1      -4.481   4.964 -34.739  1.00  0.00     0.210 C 
ENDBRANCH  18  23
ENDBRANCH  16  17
ENDBRANCH  15  16
ENDBRANCH  13  15
ENDBRANCH   1  13
TORSDOF 5
ENDMDL
MODEL 9
REMARK VINA RESULT:      -6.9      2.959      8.165
REMARK  5 active torsions:
REMARK  status: ('A' for Active; 'I' for Inactive)
REMARK    1  A    between atoms: O_2  and  C_3 
REMARK    2  A    between atoms: C_4  and  C_5 
REMARK    3  A    between atoms: C_5  and  N_6 
REMARK    4  A    between atoms: N_6  and  N_7 
REMARK    5  A    between atoms: N_7  and  C_8 
ROOT
HETATM    1  C   UNL     1      -4.081   1.451 -31.827  1.00  0.00     0.169 C 
HETATM    2  S   UNL     1      -3.465  -0.002 -31.173  1.00  0.00    -0.009 SA
HETATM    3  C   UNL     1      -3.995  -1.170 -32.346  1.00  0.00     0.229 C 
HETATM    4  O   UNL     1      -3.455  -2.265 -32.401  1.00  0.00    -0.279 OA
HETATM    5  C   UNL     1      -5.117  -0.848 -33.237  1.00  0.00     0.048 A 
HETATM    6  C   UNL     1      -5.538   0.472 -33.413  1.00  0.00     0.049 A 
HETATM    7  C   UNL     1      -5.741  -1.895 -33.936  1.00  0.00     0.018 A 
HETATM    8  C   UNL     1      -6.799  -1.628 -34.801  1.00  0.00     0.001 A 
HETATM    9  C   UNL     1      -7.230  -0.318 -34.981  1.00  0.00     0.002 A 
HETATM   10  C   UNL     1      -6.598   0.723 -34.297  1.00  0.00     0.030 A 
HETATM   11  N   UNL     1      -4.974   1.536 -32.789  1.00  0.00    -0.335 N 
HETATM   12  H   UNL     1      -5.257   2.484 -33.022  1.00  0.00     0.168 HD
ENDROOT
BRANCH   1  13
HETATM   13  N   UNL     1      -3.638   2.578 -31.282  1.00  0.00    -0.257 N 
HETATM   14  H   UNL     1      -4.156   2.854 -30.445  1.00  0.00     0.191 HD
BRANCH  13  15
HETATM   15  N   UNL     1      -2.552   3.346 -31.768  1.00  0.00    -0.184 NA
BRANCH  15  16
HETATM   16  C   UNL     1      -2.757   4.618 -31.604  1.00  0.00     0.153 C 
BRANCH  16  17
HETATM   17  C   UNL     1      -1.699   5.518 -31.108  1.00  0.00     0.016 A 
HETATM   18  C   UNL     1      -2.025   6.517 -30.175  1.00  0.00     0.080 A 
HETATM   19  C   UNL     1      -1.003   7.342 -29.694  1.00  0.00     0.037 A 
HETATM   20  C   UNL     1       0.312   7.176 -30.141  1.00  0.00     0.003 A 
HETATM   21  C   UNL     1       0.621   6.187 -31.073  1.00  0.00     0.001 A 
HETATM   22  C   UNL     1      -0.384   5.357 -31.562  1.00  0.00     0.016 A 
BRANCH  18  23
HETATM   23  O   UNL     1      -3.343   6.616 -29.815  1.00  0.00    -0.355 OA
HETATM   24  C   UNL     1      -3.826   7.911 -29.469  1.00  0.00     0.210 C 
ENDBRANCH  18  23
ENDBRANCH  16  17
ENDBRANCH  15  16
ENDBRANCH  13  15
ENDBRANCH   1  13
TORSDOF 5
ENDMDL
MODEL 10
REMARK VINA RESULT:      -6.7     14.572     16.209
REMARK  5 active torsions:
REMARK  status: ('A' for Active; 'I' for Inactive)
REMARK    1  A    between atoms: O_2  and  C_3 
REMARK    2  A    between atoms: C_4  and  C_5 
REMARK    3  A    between atoms: C_5  and  N_6 
REMARK    4  A    between atoms: N_6  and  N_7 
REMARK    5  A    between atoms: N_7  and  C_8 
ROOT
HETATM    1  C   UNL     1      -7.159 -13.725 -37.183  1.00  0.00     0.169 C 
HETATM    2  S   UNL     1      -7.569 -15.375 -37.019  1.00  0.00    -0.009 SA
HETATM    3  C   UNL     1      -8.578 -15.630 -38.411  1.00  0.00     0.229 C 
HETATM    4  O   UNL     1      -8.779 -16.764 -38.819  1.00  0.00    -0.279 OA
HETATM    5  C   UNL     1      -9.217 -14.480 -39.066  1.00  0.00     0.048 A 
HETATM    6  C   UNL     1      -8.768 -13.179 -38.829  1.00  0.00     0.049 A 
HETATM    7  C   UNL     1     -10.271 -14.720 -39.962  1.00  0.00     0.018 A 
HETATM    8  C   UNL     1     -10.893 -13.657 -40.613  1.00  0.00     0.001 A 
HETATM    9  C   UNL     1     -10.459 -12.356 -40.382  1.00  0.00     0.002 A 
HETATM   10  C   UNL     1      -9.400 -12.122 -39.502  1.00  0.00     0.030 A 
HETATM   11  N   UNL     1      -7.746 -12.871 -37.993  1.00  0.00    -0.335 N 
HETATM   12  H   UNL     1      -7.399 -11.917 -37.927  1.00  0.00     0.168 HD
ENDROOT
BRANCH   1  13
HETATM   13  N   UNL     1      -6.190 -13.277 -36.394  1.00  0.00    -0.257 N 
HETATM   14  H   UNL     1      -6.280 -12.284 -36.166  1.00  0.00     0.191 HD
BRANCH  13  15
HETATM   15  N   UNL     1      -5.127 -14.060 -35.883  1.00  0.00    -0.184 NA
BRANCH  15  16
HETATM   16  C   UNL     1      -4.042 -13.359 -35.744  1.00  0.00     0.153 C 
BRANCH  16  17
HETATM   17  C   UNL     1      -2.876 -13.549 -36.627  1.00  0.00     0.016 A 
HETATM   18  C   UNL     1      -2.758 -12.767 -37.789  1.00  0.00     0.080 A 
HETATM   19  C   UNL     1      -1.631 -12.940 -38.599  1.00  0.00     0.037 A 
HETATM   20  C   UNL     1      -0.651 -13.878 -38.259  1.00  0.00     0.003 A 
HETATM   21  C   UNL     1      -0.784 -14.654 -37.109  1.00  0.00     0.001 A 
HETATM   22  C   UNL     1      -1.900 -14.494 -36.291  1.00  0.00     0.016 A 
BRANCH  18  23
HETATM   23  O   UNL     1      -3.779 -11.892 -38.048  1.00  0.00    -0.355 OA
HETATM   24  C   UNL     1      -4.510 -12.087 -39.255  1.00  0.00     0.210 C 
ENDBRANCH  18  23
ENDBRANCH  16  17
ENDBRANCH  15  16
ENDBRANCH  13  15
ENDBRANCH   1  13
TORSDOF 5
ENDMDL
