MODEL 1
REMARK VINA RESULT:     -10.5      0.000      0.000
REMARK  5 active torsions:
REMARK  status: ('A' for Active; 'I' for Inactive)
REMARK    1  A    between atoms: C_4  and  C_5 
REMARK    2  A    between atoms: C_5  and  N_6 
REMARK    3  A    between atoms: C_7  and  N_8 
REMARK    4  A    between atoms: N_8  and  N_9 
REMARK       I    between atoms: N_9  and  C_10 
REMARK    5  A    between atoms: C_10  and  C_11 
ROOT
HETATM    1  N   UNL     1      -4.747   1.630 -32.529  1.00  0.00    -0.282 N 
HETATM    2  C   UNL     1      -5.715   1.309 -33.504  1.00  0.00     0.204 A 
HETATM    3  N   UNL     1      -5.883   0.104 -34.000  1.00  0.00    -0.217 NA
HETATM    4  C   UNL     1      -5.002  -0.868 -33.538  1.00  0.00     0.090 A 
HETATM    5  C   UNL     1      -4.026  -0.613 -32.613  1.00  0.00     0.103 A 
HETATM    6  S   UNL     1      -3.081  -1.992 -32.244  1.00  0.00    -0.086 SA
HETATM    7  C   UNL     1      -3.981  -2.900 -33.332  1.00  0.00    -0.008 A 
HETATM    8  C   UNL     1      -4.975  -2.200 -33.965  1.00  0.00    -0.015 A 
HETATM    9  C   UNL     1      -5.713  -3.057 -34.918  1.00  0.00     0.042 C 
HETATM   10  C   UNL     1      -5.232  -4.489 -34.517  1.00  0.00     0.010 C 
HETATM   11  C   UNL     1      -3.887  -4.319 -33.743  1.00  0.00     0.047 C 
HETATM   12  C   UNL     1      -3.841   0.679 -32.034  1.00  0.00     0.269 A 
HETATM   13  O   UNL     1      -2.979   0.941 -31.195  1.00  0.00    -0.266 OA
ENDROOT
BRANCH   2  14
HETATM   14  N   UNL     1      -6.537   2.329 -33.955  1.00  0.00    -0.170 NA
HETATM   15  H   UNL     1      -6.199   2.864 -34.756  1.00  0.00     0.156 HD
BRANCH  14  16
HETATM   16  N   UNL     1      -7.901   2.029 -34.089  1.00  0.00    -0.279 N 
HETATM   17  C   UNL     1      -8.762   2.464 -33.102  1.00  0.00     0.289 C 
HETATM   18  O   UNL     1      -8.373   3.213 -32.203  1.00  0.00    -0.264 OA
HETATM   19  H   UNL     1      -8.183   1.450 -34.877  1.00  0.00     0.184 HD
BRANCH  17  20
HETATM   20  C   UNL     1     -10.107   1.949 -33.200  1.00  0.00     0.145 A 
HETATM   21  O   UNL     1     -11.168   2.815 -33.139  1.00  0.00    -0.304 OA
HETATM   22  C   UNL     1     -12.297   2.083 -33.344  1.00  0.00     0.086 A 
HETATM   23  C   UNL     1     -11.981   0.739 -33.512  1.00  0.00     0.001 A 
HETATM   24  C   UNL     1     -13.593   2.591 -33.395  1.00  0.00     0.038 A 
HETATM   25  C   UNL     1     -10.569   0.663 -33.410  1.00  0.00     0.057 A 
HETATM   26  C   UNL     1     -13.024  -0.174 -33.742  1.00  0.00     0.014 A 
HETATM   27  C   UNL     1     -14.339   0.309 -33.802  1.00  0.00     0.001 A 
HETATM   28  C   UNL     1     -14.617   1.669 -33.633  1.00  0.00     0.003 A 
ENDBRANCH  17  20
ENDBRANCH  14  16
ENDBRANCH   2  14
BRANCH   1  29
HETATM   29  C   UNL     1      -4.702   2.945 -31.888  1.00  0.00     0.173 C 
BRANCH  29  30
HETATM   30  C   UNL     1      -3.621   3.834 -32.470  1.00  0.00    -0.040 A 
HETATM   31  C   UNL     1      -2.456   4.103 -31.737  1.00  0.00     0.009 A 
HETATM   32  C   UNL     1      -1.466   4.939 -32.256  1.00  0.00     0.001 A 
HETATM   33  C   UNL     1      -1.630   5.518 -33.512  1.00  0.00     0.000 A 
HETATM   34  C   UNL     1      -2.781   5.260 -34.251  1.00  0.00     0.001 A 
HETATM   35  C   UNL     1      -3.771   4.421 -33.735  1.00  0.00     0.009 A 
ENDBRANCH  29  30
ENDBRANCH   1  29
TORSDOF 5
ENDMDL
MODEL 2
REMARK VINA RESULT:      -9.9      3.084      7.595
REMARK  5 active torsions:
REMARK  status: ('A' for Active; 'I' for Inactive)
REMARK    1  A    between atoms: C_4  and  C_5 
REMARK    2  A    between atoms: C_5  and  N_6 
REMARK    3  A    between atoms: C_7  and  N_8 
REMARK    4  A    between atoms: N_8  and  N_9 
REMARK       I    between atoms: N_9  and  C_10 
REMARK    5  A    between atoms: C_10  and  C_11 
ROOT
HETATM    1  N   UNL     1      -9.651   4.022 -32.865  1.00  0.00    -0.282 N 
HETATM    2  C   UNL     1      -9.554   2.893 -33.705  1.00  0.00     0.204 A 
HETATM    3  N   UNL     1     -10.574   2.128 -34.024  1.00  0.00    -0.217 NA
HETATM    4  C   UNL     1     -11.789   2.467 -33.439  1.00  0.00     0.090 A 
HETATM    5  C   UNL     1     -11.942   3.534 -32.597  1.00  0.00     0.103 A 
HETATM    6  S   UNL     1     -13.543   3.700 -32.015  1.00  0.00    -0.086 SA
HETATM    7  C   UNL     1     -14.001   2.342 -32.886  1.00  0.00    -0.008 A 
HETATM    8  C   UNL     1     -12.987   1.765 -33.606  1.00  0.00    -0.015 A 
HETATM    9  C   UNL     1     -13.458   0.566 -34.333  1.00  0.00     0.042 C 
HETATM   10  C   UNL     1     -15.012   0.697 -34.215  1.00  0.00     0.010 C 
HETATM   11  C   UNL     1     -15.300   1.643 -33.008  1.00  0.00     0.047 C 
HETATM   12  C   UNL     1     -10.858   4.401 -32.257  1.00  0.00     0.269 A 
HETATM   13  O   UNL     1     -10.962   5.373 -31.508  1.00  0.00    -0.266 OA
ENDROOT
BRANCH   2  14
HETATM   14  N   UNL     1      -8.307   2.584 -34.225  1.00  0.00    -0.170 NA
HETATM   15  H   UNL     1      -7.522   3.138 -33.882  1.00  0.00     0.156 HD
BRANCH  14  16
HETATM   16  N   UNL     1      -7.971   1.223 -34.294  1.00  0.00    -0.279 N 
HETATM   17  C   UNL     1      -6.740   0.832 -33.806  1.00  0.00     0.289 C 
HETATM   18  O   UNL     1      -6.016   1.625 -33.200  1.00  0.00    -0.264 OA
HETATM   19  H   UNL     1      -8.625   0.597 -34.759  1.00  0.00     0.184 HD
BRANCH  17  20
HETATM   20  C   UNL     1      -6.381  -0.536 -34.092  1.00  0.00     0.145 A 
HETATM   21  O   UNL     1      -5.146  -1.001 -33.723  1.00  0.00    -0.304 OA
HETATM   22  C   UNL     1      -5.108  -2.327 -34.030  1.00  0.00     0.086 A 
HETATM   23  C   UNL     1      -6.302  -2.723 -34.622  1.00  0.00     0.001 A 
HETATM   24  C   UNL     1      -4.038  -3.185 -33.781  1.00  0.00     0.038 A 
HETATM   25  C   UNL     1      -7.112  -1.561 -34.665  1.00  0.00     0.057 A 
HETATM   26  C   UNL     1      -6.450  -4.067 -35.004  1.00  0.00     0.014 A 
HETATM   27  C   UNL     1      -5.392  -4.955 -34.763  1.00  0.00     0.001 A 
HETATM   28  C   UNL     1      -4.208  -4.520 -34.160  1.00  0.00     0.003 A 
ENDBRANCH  17  20
ENDBRANCH  14  16
ENDBRANCH   2  14
BRANCH   1  29
HETATM   29  C   UNL     1      -8.526   4.938 -32.667  1.00  0.00     0.173 C 
BRANCH  29  30
HETATM   30  C   UNL     1      -7.488   4.379 -31.714  1.00  0.00    -0.040 A 
HETATM   31  C   UNL     1      -7.864   3.473 -30.711  1.00  0.00     0.009 A 
HETATM   32  C   UNL     1      -6.919   2.971 -29.814  1.00  0.00     0.001 A 
HETATM   33  C   UNL     1      -5.588   3.371 -29.907  1.00  0.00     0.000 A 
HETATM   34  C   UNL     1      -5.201   4.269 -30.898  1.00  0.00     0.001 A 
HETATM   35  C   UNL     1      -6.144   4.770 -31.797  1.00  0.00     0.009 A 
ENDBRANCH  29  30
ENDBRANCH   1  29
TORSDOF 5
ENDMDL
MODEL 3
REMARK VINA RESULT:      -9.8      3.210      7.408
REMARK  5 active torsions:
REMARK  status: ('A' for Active; 'I' for Inactive)
REMARK    1  A    between atoms: C_4  and  C_5 
REMARK    2  A    between atoms: C_5  and  N_6 
REMARK    3  A    between atoms: C_7  and  N_8 
REMARK    4  A    between atoms: N_8  and  N_9 
REMARK       I    between atoms: N_9  and  C_10 
REMARK    5  A    between atoms: C_10  and  C_11 
ROOT
HETATM    1  N   UNL     1      -5.906   3.934 -30.980  1.00  0.00    -0.282 N 
HETATM    2  C   UNL     1      -5.747   3.375 -32.265  1.00  0.00     0.204 A 
HETATM    3  N   UNL     1      -4.787   3.712 -33.097  1.00  0.00    -0.217 NA
HETATM    4  C   UNL     1      -3.930   4.715 -32.656  1.00  0.00     0.090 A 
HETATM    5  C   UNL     1      -4.048   5.313 -31.431  1.00  0.00     0.103 A 
HETATM    6  S   UNL     1      -2.867   6.523 -31.164  1.00  0.00    -0.086 SA
HETATM    7  C   UNL     1      -2.227   6.236 -32.688  1.00  0.00    -0.008 A 
HETATM    8  C   UNL     1      -2.873   5.255 -33.395  1.00  0.00    -0.015 A 
HETATM    9  C   UNL     1      -2.267   5.068 -34.731  1.00  0.00     0.042 C 
HETATM   10  C   UNL     1      -0.926   5.860 -34.601  1.00  0.00     0.010 C 
HETATM   11  C   UNL     1      -1.100   6.860 -33.415  1.00  0.00     0.047 C 
HETATM   12  C   UNL     1      -5.063   4.945 -30.494  1.00  0.00     0.269 A 
HETATM   13  O   UNL     1      -5.192   5.458 -29.383  1.00  0.00    -0.266 OA
ENDROOT
BRANCH   2  14
HETATM   14  N   UNL     1      -6.657   2.409 -32.664  1.00  0.00    -0.170 NA
HETATM   15  H   UNL     1      -7.341   2.692 -33.366  1.00  0.00     0.156 HD
BRANCH  14  16
HETATM   16  N   UNL     1      -6.143   1.135 -32.948  1.00  0.00    -0.279 N 
HETATM   17  C   UNL     1      -6.494   0.545 -34.146  1.00  0.00     0.289 C 
HETATM   18  O   UNL     1      -7.121   1.171 -35.003  1.00  0.00    -0.264 OA
HETATM   19  H   UNL     1      -5.586   0.678 -32.230  1.00  0.00     0.184 HD
BRANCH  17  20
HETATM   20  C   UNL     1      -6.097  -0.837 -34.281  1.00  0.00     0.145 A 
HETATM   21  O   UNL     1      -4.897  -1.248 -33.762  1.00  0.00    -0.304 OA
HETATM   22  C   UNL     1      -4.818  -2.594 -33.950  1.00  0.00     0.086 A 
HETATM   23  C   UNL     1      -5.949  -3.058 -34.613  1.00  0.00     0.001 A 
HETATM   24  C   UNL     1      -3.768  -3.410 -33.534  1.00  0.00     0.038 A 
HETATM   25  C   UNL     1      -6.762  -1.918 -34.829  1.00  0.00     0.057 A 
HETATM   26  C   UNL     1      -6.048  -4.432 -34.892  1.00  0.00     0.014 A 
HETATM   27  C   UNL     1      -5.009  -5.279 -34.481  1.00  0.00     0.001 A 
HETATM   28  C   UNL     1      -3.889  -4.775 -33.812  1.00  0.00     0.003 A 
ENDBRANCH  17  20
ENDBRANCH  14  16
ENDBRANCH   2  14
BRANCH   1  29
HETATM   29  C   UNL     1      -6.888   3.414 -30.027  1.00  0.00     0.173 C 
BRANCH  29  30
HETATM   30  C   UNL     1      -8.274   3.982 -30.260  1.00  0.00    -0.040 A 
HETATM   31  C   UNL     1      -8.499   5.363 -30.164  1.00  0.00     0.009 A 
HETATM   32  C   UNL     1      -9.777   5.891 -30.355  1.00  0.00     0.001 A 
HETATM   33  C   UNL     1     -10.846   5.046 -30.641  1.00  0.00     0.000 A 
HETATM   34  C   UNL     1     -10.638   3.673 -30.740  1.00  0.00     0.001 A 
HETATM   35  C   UNL     1      -9.360   3.142 -30.553  1.00  0.00     0.009 A 
ENDBRANCH  29  30
ENDBRANCH   1  29
TORSDOF 5
ENDMDL
MODEL 4
REMARK VINA RESULT:      -9.7      3.689      7.114
REMARK  5 active torsions:
REMARK  status: ('A' for Active; 'I' for Inactive)
REMARK    1  A    between atoms: C_4  and  C_5 
REMARK    2  A    between atoms: C_5  and  N_6 
REMARK    3  A    between atoms: C_7  and  N_8 
REMARK    4  A    between atoms: N_8  and  N_9 
REMARK       I    between atoms: N_9  and  C_10 
REMARK    5  A    between atoms: C_10  and  C_11 
ROOT
HETATM    1  N   UNL     1      -3.952   4.473 -32.603  1.00  0.00    -0.282 N 
HETATM    2  C   UNL     1      -4.410   3.247 -32.078  1.00  0.00     0.204 A 
HETATM    3  N   UNL     1      -5.618   3.064 -31.593  1.00  0.00    -0.217 NA
HETATM    4  C   UNL     1      -6.440   4.187 -31.578  1.00  0.00     0.090 A 
HETATM    5  C   UNL     1      -6.043   5.409 -32.049  1.00  0.00     0.103 A 
HETATM    6  S   UNL     1      -7.254   6.609 -31.889  1.00  0.00    -0.086 SA
HETATM    7  C   UNL     1      -8.278   5.482 -31.185  1.00  0.00    -0.008 A 
HETATM    8  C   UNL     1      -7.741   4.227 -31.067  1.00  0.00    -0.015 A 
HETATM    9  C   UNL     1      -8.691   3.292 -30.425  1.00  0.00     0.042 C 
HETATM   10  C   UNL     1     -10.031   4.096 -30.477  1.00  0.00     0.010 C 
HETATM   11  C   UNL     1      -9.655   5.600 -30.654  1.00  0.00     0.047 C 
HETATM   12  C   UNL     1      -4.748   5.629 -32.610  1.00  0.00     0.269 A 
HETATM   13  O   UNL     1      -4.362   6.713 -33.048  1.00  0.00    -0.266 OA
ENDROOT
BRANCH   2  14
HETATM   14  N   UNL     1      -3.532   2.175 -32.084  1.00  0.00    -0.170 NA
HETATM   15  H   UNL     1      -2.937   2.072 -31.261  1.00  0.00     0.156 HD
BRANCH  14  16
HETATM   16  N   UNL     1      -4.049   0.936 -32.491  1.00  0.00    -0.279 N 
HETATM   17  C   UNL     1      -3.413  -0.208 -32.054  1.00  0.00     0.289 C 
HETATM   18  O   UNL     1      -2.507  -0.153 -31.219  1.00  0.00    -0.264 OA
HETATM   19  H   UNL     1      -4.832   0.940 -33.142  1.00  0.00     0.184 HD
BRANCH  17  20
HETATM   20  C   UNL     1      -3.872  -1.430 -32.671  1.00  0.00     0.145 A 
HETATM   21  O   UNL     1      -4.956  -1.398 -33.510  1.00  0.00    -0.304 OA
HETATM   22  C   UNL     1      -5.113  -2.653 -34.012  1.00  0.00     0.086 A 
HETATM   23  C   UNL     1      -4.154  -3.511 -33.484  1.00  0.00     0.001 A 
HETATM   24  C   UNL     1      -6.082  -3.040 -34.935  1.00  0.00     0.038 A 
HETATM   25  C   UNL     1      -3.365  -2.715 -32.616  1.00  0.00     0.057 A 
HETATM   26  C   UNL     1      -4.156  -4.855 -33.894  1.00  0.00     0.014 A 
HETATM   27  C   UNL     1      -5.117  -5.274 -34.824  1.00  0.00     0.001 A 
HETATM   28  C   UNL     1      -6.062  -4.380 -35.337  1.00  0.00     0.003 A 
ENDBRANCH  17  20
ENDBRANCH  14  16
ENDBRANCH   2  14
BRANCH   1  29
HETATM   29  C   UNL     1      -2.658   4.589 -33.279  1.00  0.00     0.173 C 
BRANCH  29  30
HETATM   30  C   UNL     1      -1.607   5.244 -32.406  1.00  0.00    -0.040 A 
HETATM   31  C   UNL     1      -1.021   6.459 -32.793  1.00  0.00     0.009 A 
HETATM   32  C   UNL     1      -0.036   7.057 -32.006  1.00  0.00     0.001 A 
HETATM   33  C   UNL     1       0.377   6.448 -30.824  1.00  0.00     0.000 A 
HETATM   34  C   UNL     1      -0.196   5.243 -30.426  1.00  0.00     0.001 A 
HETATM   35  C   UNL     1      -1.184   4.644 -31.211  1.00  0.00     0.009 A 
ENDBRANCH  29  30
ENDBRANCH   1  29
TORSDOF 5
ENDMDL
MODEL 5
REMARK VINA RESULT:      -9.6      2.624      6.652
REMARK  5 active torsions:
REMARK  status: ('A' for Active; 'I' for Inactive)
REMARK    1  A    between atoms: C_4  and  C_5 
REMARK    2  A    between atoms: C_5  and  N_6 
REMARK    3  A    between atoms: C_7  and  N_8 
REMARK    4  A    between atoms: N_8  and  N_9 
REMARK       I    between atoms: N_9  and  C_10 
REMARK    5  A    between atoms: C_10  and  C_11 
ROOT
HETATM    1  N   UNL     1      -6.711   4.493 -32.103  1.00  0.00    -0.282 N 
HETATM    2  C   UNL     1      -6.916   3.099 -32.058  1.00  0.00     0.204 A 
HETATM    3  N   UNL     1      -7.946   2.492 -32.602  1.00  0.00    -0.217 NA
HETATM    4  C   UNL     1      -8.884   3.321 -33.209  1.00  0.00     0.090 A 
HETATM    5  C   UNL     1      -8.755   4.682 -33.263  1.00  0.00     0.103 A 
HETATM    6  S   UNL     1     -10.067   5.445 -34.054  1.00  0.00    -0.086 SA
HETATM    7  C   UNL     1     -10.789   3.951 -34.300  1.00  0.00    -0.008 A 
HETATM    8  C   UNL     1     -10.073   2.891 -33.807  1.00  0.00    -0.015 A 
HETATM    9  C   UNL     1     -10.775   1.610 -34.044  1.00  0.00     0.042 C 
HETATM   10  C   UNL     1     -11.881   2.024 -35.069  1.00  0.00     0.010 C 
HETATM   11  C   UNL     1     -12.067   3.569 -34.941  1.00  0.00     0.047 C 
HETATM   12  C   UNL     1      -7.630   5.366 -32.707  1.00  0.00     0.269 A 
HETATM   13  O   UNL     1      -7.479   6.587 -32.744  1.00  0.00    -0.266 OA
ENDROOT
BRANCH   2  14
HETATM   14  N   UNL     1      -5.966   2.329 -31.405  1.00  0.00    -0.170 NA
HETATM   15  H   UNL     1      -5.909   2.442 -30.392  1.00  0.00     0.156 HD
BRANCH  14  16
HETATM   16  N   UNL     1      -5.892   0.975 -31.765  1.00  0.00    -0.279 N 
HETATM   17  C   UNL     1      -4.812   0.561 -32.518  1.00  0.00     0.289 C 
HETATM   18  O   UNL     1      -3.868   1.321 -32.749  1.00  0.00    -0.264 OA
HETATM   19  H   UNL     1      -6.672   0.374 -31.508  1.00  0.00     0.184 HD
BRANCH  17  20
HETATM   20  C   UNL     1      -4.904  -0.789 -33.020  1.00  0.00     0.145 A 
HETATM   21  O   UNL     1      -6.063  -1.208 -33.621  1.00  0.00    -0.304 OA
HETATM   22  C   UNL     1      -5.846  -2.474 -34.072  1.00  0.00     0.086 A 
HETATM   23  C   UNL     1      -4.561  -2.893 -33.745  1.00  0.00     0.001 A 
HETATM   24  C   UNL     1      -6.765  -3.251 -34.775  1.00  0.00     0.038 A 
HETATM   25  C   UNL     1      -3.966  -1.803 -33.061  1.00  0.00     0.057 A 
HETATM   26  C   UNL     1      -4.153  -4.179 -34.137  1.00  0.00     0.014 A 
HETATM   27  C   UNL     1      -5.054  -4.983 -34.849  1.00  0.00     0.001 A 
HETATM   28  C   UNL     1      -6.337  -4.524 -35.164  1.00  0.00     0.003 A 
ENDBRANCH  17  20
ENDBRANCH  14  16
ENDBRANCH   2  14
BRANCH   1  29
HETATM   29  C   UNL     1      -5.471   5.109 -31.627  1.00  0.00     0.173 C 
BRANCH  29  30
HETATM   30  C   UNL     1      -4.360   5.040 -32.655  1.00  0.00    -0.040 A 
HETATM   31  C   UNL     1      -3.048   4.736 -32.261  1.00  0.00     0.009 A 
HETATM   32  C   UNL     1      -2.015   4.693 -33.199  1.00  0.00     0.001 A 
HETATM   33  C   UNL     1      -2.279   4.957 -34.541  1.00  0.00     0.000 A 
HETATM   34  C   UNL     1      -3.577   5.259 -34.947  1.00  0.00     0.001 A 
HETATM   35  C   UNL     1      -4.612   5.300 -34.011  1.00  0.00     0.009 A 
ENDBRANCH  29  30
ENDBRANCH   1  29
TORSDOF 5
ENDMDL
MODEL 6
REMARK VINA RESULT:      -9.5      2.801      8.941
REMARK  5 active torsions:
REMARK  status: ('A' for Active; 'I' for Inactive)
REMARK    1  A    between atoms: C_4  and  C_5 
REMARK    2  A    between atoms: C_5  and  N_6 
REMARK    3  A    between atoms: C_7  and  N_8 
REMARK    4  A    between atoms: N_8  and  N_9 
REMARK       I    between atoms: N_9  and  C_10 
REMARK    5  A    between atoms: C_10  and  C_11 
ROOT
HETATM    1  N   UNL     1      -7.438   1.387 -32.570  1.00  0.00    -0.282 N 
HETATM    2  C   UNL     1      -6.822   2.415 -33.314  1.00  0.00     0.204 A 
HETATM    3  N   UNL     1      -7.467   3.445 -33.815  1.00  0.00    -0.217 NA
HETATM    4  C   UNL     1      -8.843   3.453 -33.612  1.00  0.00     0.090 A 
HETATM    5  C   UNL     1      -9.502   2.471 -32.922  1.00  0.00     0.103 A 
HETATM    6  S   UNL     1     -11.192   2.732 -32.844  1.00  0.00    -0.086 SA
HETATM    7  C   UNL     1     -11.017   4.140 -33.739  1.00  0.00    -0.008 A 
HETATM    8  C   UNL     1      -9.724   4.425 -34.096  1.00  0.00    -0.015 A 
HETATM    9  C   UNL     1      -9.647   5.667 -34.895  1.00  0.00     0.042 C 
HETATM   10  C   UNL     1     -11.067   6.286 -34.683  1.00  0.00     0.010 C 
HETATM   11  C   UNL     1     -12.007   5.125 -34.227  1.00  0.00     0.047 C 
HETATM   12  C   UNL     1      -8.822   1.357 -32.339  1.00  0.00     0.269 A 
HETATM   13  O   UNL     1      -9.383   0.463 -31.708  1.00  0.00    -0.266 OA
ENDROOT
BRANCH   2  14
HETATM   14  N   UNL     1      -5.453   2.331 -33.516  1.00  0.00    -0.170 NA
HETATM   15  H   UNL     1      -5.149   2.073 -34.456  1.00  0.00     0.156 HD
BRANCH  14  16
HETATM   16  N   UNL     1      -4.672   3.379 -33.005  1.00  0.00    -0.279 N 
HETATM   17  C   UNL     1      -3.525   3.054 -32.309  1.00  0.00     0.289 C 
HETATM   18  O   UNL     1      -3.119   1.891 -32.259  1.00  0.00    -0.264 OA
HETATM   19  H   UNL     1      -5.023   4.328 -33.115  1.00  0.00     0.184 HD
BRANCH  17  20
HETATM   20  C   UNL     1      -2.886   4.164 -31.643  1.00  0.00     0.145 A 
HETATM   21  O   UNL     1      -1.528   4.149 -31.458  1.00  0.00    -0.304 OA
HETATM   22  C   UNL     1      -1.186   5.339 -30.893  1.00  0.00     0.086 A 
HETATM   23  C   UNL     1      -2.317   6.119 -30.682  1.00  0.00     0.001 A 
HETATM   24  C   UNL     1       0.110   5.741 -30.574  1.00  0.00     0.038 A 
HETATM   25  C   UNL     1      -3.408   5.350 -31.161  1.00  0.00     0.057 A 
HETATM   26  C   UNL     1      -2.159   7.392 -30.108  1.00  0.00     0.014 A 
HETATM   27  C   UNL     1      -0.867   7.826 -29.780  1.00  0.00     0.001 A 
HETATM   28  C   UNL     1       0.248   7.014 -30.012  1.00  0.00     0.003 A 
ENDBRANCH  17  20
ENDBRANCH  14  16
ENDBRANCH   2  14
BRANCH   1  29
HETATM   29  C   UNL     1      -6.659   0.348 -31.894  1.00  0.00     0.173 C 
BRANCH  29  30
HETATM   30  C   UNL     1      -6.206  -0.742 -32.844  1.00  0.00    -0.040 A 
HETATM   31  C   UNL     1      -4.876  -1.188 -32.826  1.00  0.00     0.009 A 
HETATM   32  C   UNL     1      -4.444  -2.176 -33.713  1.00  0.00     0.001 A 
HETATM   33  C   UNL     1      -5.335  -2.728 -34.630  1.00  0.00     0.000 A 
HETATM   34  C   UNL     1      -6.659  -2.296 -34.658  1.00  0.00     0.001 A 
HETATM   35  C   UNL     1      -7.093  -1.310 -33.770  1.00  0.00     0.009 A 
ENDBRANCH  29  30
ENDBRANCH   1  29
TORSDOF 5
ENDMDL
MODEL 7
REMARK VINA RESULT:      -9.0      2.080      7.786
REMARK  5 active torsions:
REMARK  status: ('A' for Active; 'I' for Inactive)
REMARK    1  A    between atoms: C_4  and  C_5 
REMARK    2  A    between atoms: C_5  and  N_6 
REMARK    3  A    between atoms: C_7  and  N_8 
REMARK    4  A    between atoms: N_8  and  N_9 
REMARK       I    between atoms: N_9  and  C_10 
REMARK    5  A    between atoms: C_10  and  C_11 
ROOT
HETATM    1  N   UNL     1      -6.865   0.955 -33.669  1.00  0.00    -0.282 N 
HETATM    2  C   UNL     1      -6.102   0.976 -32.483  1.00  0.00     0.204 A 
HETATM    3  N   UNL     1      -5.252   0.033 -32.143  1.00  0.00    -0.217 NA
HETATM    4  C   UNL     1      -5.169  -1.049 -33.013  1.00  0.00     0.090 A 
HETATM    5  C   UNL     1      -5.902  -1.139 -34.164  1.00  0.00     0.103 A 
HETATM    6  S   UNL     1      -5.609  -2.588 -35.029  1.00  0.00    -0.086 SA
HETATM    7  C   UNL     1      -4.520  -3.073 -33.848  1.00  0.00    -0.008 A 
HETATM    8  C   UNL     1      -4.366  -2.178 -32.821  1.00  0.00    -0.015 A 
HETATM    9  C   UNL     1      -3.407  -2.677 -31.812  1.00  0.00     0.042 C 
HETATM   10  C   UNL     1      -2.736  -3.876 -32.557  1.00  0.00     0.010 C 
HETATM   11  C   UNL     1      -3.705  -4.299 -33.706  1.00  0.00     0.047 C 
HETATM   12  C   UNL     1      -6.811  -0.116 -34.576  1.00  0.00     0.269 A 
HETATM   13  O   UNL     1      -7.479  -0.162 -35.607  1.00  0.00    -0.266 OA
ENDROOT
BRANCH   2  14
HETATM   14  N   UNL     1      -6.257   2.062 -31.637  1.00  0.00    -0.170 NA
HETATM   15  H   UNL     1      -6.828   1.910 -30.804  1.00  0.00     0.156 HD
BRANCH  14  16
HETATM   16  N   UNL     1      -5.101   2.794 -31.328  1.00  0.00    -0.279 N 
HETATM   17  C   UNL     1      -4.928   4.022 -31.933  1.00  0.00     0.289 C 
HETATM   18  O   UNL     1      -5.824   4.528 -32.613  1.00  0.00    -0.264 OA
HETATM   19  H   UNL     1      -4.412   2.356 -30.720  1.00  0.00     0.184 HD
BRANCH  17  20
HETATM   20  C   UNL     1      -3.631   4.623 -31.728  1.00  0.00     0.145 A 
HETATM   21  O   UNL     1      -3.509   5.693 -30.881  1.00  0.00    -0.304 OA
HETATM   22  C   UNL     1      -2.184   5.998 -30.807  1.00  0.00     0.086 A 
HETATM   23  C   UNL     1      -1.445   5.150 -31.624  1.00  0.00     0.001 A 
HETATM   24  C   UNL     1      -1.628   7.005 -30.021  1.00  0.00     0.038 A 
HETATM   25  C   UNL     1      -2.387   4.273 -32.219  1.00  0.00     0.057 A 
HETATM   26  C   UNL     1      -0.050   5.311 -31.673  1.00  0.00     0.014 A 
HETATM   27  C   UNL     1       0.540   6.314 -30.890  1.00  0.00     0.001 A 
HETATM   28  C   UNL     1      -0.238   7.144 -30.077  1.00  0.00     0.003 A 
ENDBRANCH  17  20
ENDBRANCH  14  16
ENDBRANCH   2  14
BRANCH   1  29
HETATM   29  C   UNL     1      -7.676   2.100 -34.087  1.00  0.00     0.173 C 
BRANCH  29  30
HETATM   30  C   UNL     1      -9.162   1.821 -33.988  1.00  0.00    -0.040 A 
HETATM   31  C   UNL     1      -9.632   0.752 -33.210  1.00  0.00     0.009 A 
HETATM   32  C   UNL     1     -10.998   0.474 -33.132  1.00  0.00     0.001 A 
HETATM   33  C   UNL     1     -11.911   1.259 -33.832  1.00  0.00     0.000 A 
HETATM   34  C   UNL     1     -11.459   2.324 -34.608  1.00  0.00     0.001 A 
HETATM   35  C   UNL     1     -10.094   2.605 -34.685  1.00  0.00     0.009 A 
ENDBRANCH  29  30
ENDBRANCH   1  29
TORSDOF 5
ENDMDL
MODEL 8
REMARK VINA RESULT:      -8.8      2.572      7.780
REMARK  5 active torsions:
REMARK  status: ('A' for Active; 'I' for Inactive)
REMARK    1  A    between atoms: C_4  and  C_5 
REMARK    2  A    between atoms: C_5  and  N_6 
REMARK    3  A    between atoms: C_7  and  N_8 
REMARK    4  A    between atoms: N_8  and  N_9 
REMARK       I    between atoms: N_9  and  C_10 
REMARK    5  A    between atoms: C_10  and  C_11 
ROOT
HETATM    1  N   UNL     1      -8.609   3.781 -32.100  1.00  0.00    -0.282 N 
HETATM    2  C   UNL     1      -7.728   2.680 -32.130  1.00  0.00     0.204 A 
HETATM    3  N   UNL     1      -6.419   2.789 -32.165  1.00  0.00    -0.217 NA
HETATM    4  C   UNL     1      -5.923   4.088 -32.218  1.00  0.00     0.090 A 
HETATM    5  C   UNL     1      -6.726   5.195 -32.218  1.00  0.00     0.103 A 
HETATM    6  S   UNL     1      -5.843   6.659 -32.307  1.00  0.00    -0.086 SA
HETATM    7  C   UNL     1      -4.408   5.791 -32.357  1.00  0.00    -0.008 A 
HETATM    8  C   UNL     1      -4.570   4.431 -32.306  1.00  0.00    -0.015 A 
HETATM    9  C   UNL     1      -3.268   3.731 -32.371  1.00  0.00     0.042 C 
HETATM   10  C   UNL     1      -2.254   4.895 -32.126  1.00  0.00     0.010 C 
HETATM   11  C   UNL     1      -2.998   6.226 -32.460  1.00  0.00     0.047 C 
HETATM   12  C   UNL     1      -8.151   5.107 -32.149  1.00  0.00     0.269 A 
HETATM   13  O   UNL     1      -8.901   6.082 -32.139  1.00  0.00    -0.266 OA
ENDROOT
BRANCH   2  14
HETATM   14  N   UNL     1      -8.284   1.411 -32.115  1.00  0.00    -0.170 NA
HETATM   15  H   UNL     1      -9.204   1.313 -32.547  1.00  0.00     0.156 HD
BRANCH  14  16
HETATM   16  N   UNL     1      -7.443   0.347 -32.477  1.00  0.00    -0.279 N 
HETATM   17  C   UNL     1      -7.514  -0.125 -33.772  1.00  0.00     0.289 C 
HETATM   18  O   UNL     1      -8.188   0.457 -34.626  1.00  0.00    -0.264 OA
HETATM   19  H   UNL     1      -6.866  -0.069 -31.749  1.00  0.00     0.184 HD
BRANCH  17  20
HETATM   20  C   UNL     1      -6.775  -1.341 -34.016  1.00  0.00     0.145 A 
HETATM   21  O   UNL     1      -5.488  -1.452 -33.557  1.00  0.00    -0.304 OA
HETATM   22  C   UNL     1      -5.067  -2.715 -33.843  1.00  0.00     0.086 A 
HETATM   23  C   UNL     1      -6.063  -3.419 -34.511  1.00  0.00     0.001 A 
HETATM   24  C   UNL     1      -3.824  -3.248 -33.511  1.00  0.00     0.038 A 
HETATM   25  C   UNL     1      -7.156  -2.522 -34.624  1.00  0.00     0.057 A 
HETATM   26  C   UNL     1      -5.811  -4.750 -34.885  1.00  0.00     0.014 A 
HETATM   27  C   UNL     1      -4.569  -5.315 -34.561  1.00  0.00     0.001 A 
HETATM   28  C   UNL     1      -3.594  -4.576 -33.884  1.00  0.00     0.003 A 
ENDBRANCH  17  20
ENDBRANCH  14  16
ENDBRANCH   2  14
BRANCH   1  29
HETATM   29  C   UNL     1     -10.049   3.615 -31.897  1.00  0.00     0.173 C 
BRANCH  29  30
HETATM   30  C   UNL     1     -10.777   3.278 -33.184  1.00  0.00    -0.040 A 
HETATM   31  C   UNL     1     -10.948   4.255 -34.176  1.00  0.00     0.009 A 
HETATM   32  C   UNL     1     -11.637   3.960 -35.354  1.00  0.00     0.001 A 
HETATM   33  C   UNL     1     -12.166   2.687 -35.553  1.00  0.00     0.000 A 
HETATM   34  C   UNL     1     -12.003   1.707 -34.577  1.00  0.00     0.001 A 
HETATM   35  C   UNL     1     -11.311   1.999 -33.399  1.00  0.00     0.009 A 
ENDBRANCH  29  30
ENDBRANCH   1  29
TORSDOF 5
ENDMDL
MODEL 9
REMARK VINA RESULT:      -8.8     15.143     16.650
REMARK  5 active torsions:
REMARK  status: ('A' for Active; 'I' for Inactive)
REMARK    1  A    between atoms: C_4  and  C_5 
REMARK    2  A    between atoms: C_5  and  N_6 
REMARK    3  A    between atoms: C_7  and  N_8 
REMARK    4  A    between atoms: N_8  and  N_9 
REMARK       I    between atoms: N_9  and  C_10 
REMARK    5  A    between atoms: C_10  and  C_11 
ROOT
HETATM    1  N   UNL     1      -2.982 -12.985 -37.900  1.00  0.00    -0.282 N 
HETATM    2  C   UNL     1      -3.359 -13.217 -36.561  1.00  0.00     0.204 A 
HETATM    3  N   UNL     1      -2.678 -13.972 -35.729  1.00  0.00    -0.217 NA
HETATM    4  C   UNL     1      -1.551 -14.591 -36.259  1.00  0.00     0.090 A 
HETATM    5  C   UNL     1      -1.149 -14.426 -37.556  1.00  0.00     0.103 A 
HETATM    6  S   UNL     1       0.260 -15.321 -37.935  1.00  0.00    -0.086 SA
HETATM    7  C   UNL     1       0.302 -15.922 -36.369  1.00  0.00    -0.008 A 
HETATM    8  C   UNL     1      -0.711 -15.468 -35.565  1.00  0.00    -0.015 A 
HETATM    9  C   UNL     1      -0.622 -16.050 -34.207  1.00  0.00     0.042 C 
HETATM   10  C   UNL     1       0.813 -16.672 -34.208  1.00  0.00     0.010 C 
HETATM   11  C   UNL     1       1.226 -16.864 -35.701  1.00  0.00     0.047 C 
HETATM   12  C   UNL     1      -1.852 -13.587 -38.474  1.00  0.00     0.269 A 
HETATM   13  O   UNL     1      -1.513 -13.412 -39.644  1.00  0.00    -0.266 OA
ENDROOT
BRANCH   2  14
HETATM   14  N   UNL     1      -4.514 -12.604 -36.102  1.00  0.00    -0.170 NA
HETATM   15  H   UNL     1      -4.431 -11.622 -35.835  1.00  0.00     0.156 HD
BRANCH  14  16
HETATM   16  N   UNL     1      -5.686 -12.827 -36.842  1.00  0.00    -0.279 N 
HETATM   17  C   UNL     1      -6.457 -13.926 -36.521  1.00  0.00     0.289 C 
HETATM   18  O   UNL     1      -6.206 -14.611 -35.527  1.00  0.00    -0.264 OA
HETATM   19  H   UNL     1      -5.878 -12.203 -37.622  1.00  0.00     0.184 HD
BRANCH  17  20
HETATM   20  C   UNL     1      -7.529 -14.205 -37.447  1.00  0.00     0.145 A 
HETATM   21  O   UNL     1      -8.281 -13.171 -37.941  1.00  0.00    -0.304 OA
HETATM   22  C   UNL     1      -9.149 -13.702 -38.846  1.00  0.00     0.086 A 
HETATM   23  C   UNL     1      -8.986 -15.081 -38.924  1.00  0.00     0.001 A 
HETATM   24  C   UNL     1     -10.069 -12.981 -39.604  1.00  0.00     0.038 A 
HETATM   25  C   UNL     1      -7.946 -15.395 -38.013  1.00  0.00     0.057 A 
HETATM   26  C   UNL     1      -9.796 -15.804 -39.815  1.00  0.00     0.014 A 
HETATM   27  C   UNL     1     -10.729 -15.106 -40.594  1.00  0.00     0.001 A 
HETATM   28  C   UNL     1     -10.860 -13.718 -40.491  1.00  0.00     0.003 A 
ENDBRANCH  17  20
ENDBRANCH  14  16
ENDBRANCH   2  14
BRANCH   1  29
HETATM   29  C   UNL     1      -3.679 -12.011 -38.742  1.00  0.00     0.173 C 
BRANCH  29  30
HETATM   30  C   UNL     1      -4.702 -12.662 -39.651  1.00  0.00    -0.040 A 
HETATM   31  C   UNL     1      -4.657 -14.043 -39.893  1.00  0.00     0.009 A 
HETATM   32  C   UNL     1      -5.581 -14.647 -40.748  1.00  0.00     0.001 A 
HETATM   33  C   UNL     1      -6.560 -13.878 -41.373  1.00  0.00     0.000 A 
HETATM   34  C   UNL     1      -6.617 -12.506 -41.141  1.00  0.00     0.001 A 
HETATM   35  C   UNL     1      -5.695 -11.900 -40.285  1.00  0.00     0.009 A 
ENDBRANCH  29  30
ENDBRANCH   1  29
TORSDOF 5
ENDMDL
MODEL 10
REMARK VINA RESULT:      -8.7      2.979      5.935
REMARK  5 active torsions:
REMARK  status: ('A' for Active; 'I' for Inactive)
REMARK    1  A    between atoms: C_4  and  C_5 
REMARK    2  A    between atoms: C_5  and  N_6 
REMARK    3  A    between atoms: C_7  and  N_8 
REMARK    4  A    between atoms: N_8  and  N_9 
REMARK       I    between atoms: N_9  and  C_10 
REMARK    5  A    between atoms: C_10  and  C_11 
ROOT
HETATM    1  N   UNL     1      -5.268   2.606 -31.917  1.00  0.00    -0.282 N 
HETATM    2  C   UNL     1      -6.181   2.449 -30.854  1.00  0.00     0.204 A 
HETATM    3  N   UNL     1      -6.364   3.343 -29.908  1.00  0.00    -0.217 NA
HETATM    4  C   UNL     1      -5.555   4.472 -29.979  1.00  0.00     0.090 A 
HETATM    5  C   UNL     1      -4.634   4.670 -30.972  1.00  0.00     0.103 A 
HETATM    6  S   UNL     1      -3.771   6.138 -30.797  1.00  0.00    -0.086 SA
HETATM    7  C   UNL     1      -4.632   6.478 -29.397  1.00  0.00    -0.008 A 
HETATM    8  C   UNL     1      -5.553   5.522 -29.055  1.00  0.00    -0.015 A 
HETATM    9  C   UNL     1      -6.260   5.878 -27.806  1.00  0.00     0.042 C 
HETATM   10  C   UNL     1      -5.864   7.379 -27.618  1.00  0.00     0.010 C 
HETATM   11  C   UNL     1      -4.568   7.617 -28.455  1.00  0.00     0.047 C 
HETATM   12  C   UNL     1      -4.435   3.730 -32.029  1.00  0.00     0.269 A 
HETATM   13  O   UNL     1      -3.621   3.880 -32.940  1.00  0.00    -0.266 OA
ENDROOT
BRANCH   2  14
HETATM   14  N   UNL     1      -6.930   1.284 -30.815  1.00  0.00    -0.170 NA
HETATM   15  H   UNL     1      -6.876   0.738 -29.954  1.00  0.00     0.156 HD
BRANCH  14  16
HETATM   16  N   UNL     1      -8.253   1.367 -31.276  1.00  0.00    -0.279 N 
HETATM   17  C   UNL     1      -8.665   0.460 -32.232  1.00  0.00     0.289 C 
HETATM   18  O   UNL     1      -7.945  -0.482 -32.568  1.00  0.00    -0.264 OA
HETATM   19  H   UNL     1      -8.827   2.132 -30.931  1.00  0.00     0.184 HD
BRANCH  17  20
HETATM   20  C   UNL     1      -9.963   0.730 -32.803  1.00  0.00     0.145 A 
HETATM   21  O   UNL     1     -10.873  -0.288 -32.923  1.00  0.00    -0.304 OA
HETATM   22  C   UNL     1     -12.025   0.257 -33.403  1.00  0.00     0.086 A 
HETATM   23  C   UNL     1     -11.862   1.621 -33.623  1.00  0.00     0.001 A 
HETATM   24  C   UNL     1     -13.212  -0.434 -33.636  1.00  0.00     0.038 A 
HETATM   25  C   UNL     1     -10.529   1.914 -33.241  1.00  0.00     0.057 A 
HETATM   26  C   UNL     1     -12.953   2.357 -34.115  1.00  0.00     0.014 A 
HETATM   27  C   UNL     1     -14.162   1.690 -34.356  1.00  0.00     0.001 A 
HETATM   28  C   UNL     1     -14.288   0.318 -34.118  1.00  0.00     0.003 A 
ENDBRANCH  17  20
ENDBRANCH  14  16
ENDBRANCH   2  14
BRANCH   1  29
HETATM   29  C   UNL     1      -5.213   1.661 -33.035  1.00  0.00     0.173 C 
BRANCH  29  30
HETATM   30  C   UNL     1      -4.447   0.400 -32.687  1.00  0.00    -0.040 A 
HETATM   31  C   UNL     1      -3.365   0.452 -31.796  1.00  0.00     0.009 A 
HETATM   32  C   UNL     1      -2.640  -0.700 -31.489  1.00  0.00     0.001 A 
HETATM   33  C   UNL     1      -2.987  -1.918 -32.069  1.00  0.00     0.000 A 
HETATM   34  C   UNL     1      -4.059  -1.985 -32.955  1.00  0.00     0.001 A 
HETATM   35  C   UNL     1      -4.787  -0.834 -33.261  1.00  0.00     0.009 A 
ENDBRANCH  29  30
ENDBRANCH   1  29
TORSDOF 5
ENDMDL
