MODEL 1
REMARK VINA RESULT:      -9.3      0.000      0.000
REMARK  9 active torsions:
REMARK  status: ('A' for Active; 'I' for Inactive)
REMARK    1  A    between atoms: O_2  and  C_3 
REMARK    2  A    between atoms: C_4  and  O_5 
REMARK    3  A    between atoms: C_8  and  C_9 
REMARK    4  A    between atoms: C_9  and  N_10 
REMARK    5  A    between atoms: C_14  and  O_15 
REMARK    6  A    between atoms: C_14  and  C_16 
REMARK    7  A    between atoms: C_21  and  C_22 
REMARK       I    between atoms: C_22  and  N_23 
REMARK    8  A    between atoms: N_23  and  C_24 
REMARK    9  A    between atoms: C_24  and  C_25 
ROOT
HETATM    1  N   UNL     1      -0.935   7.424 -29.743  1.00  0.00    -0.067 N 
HETATM    2  H   UNL     1      -0.207   8.149 -29.766  1.00  0.00     0.280 HD
HETATM    3  C   UNL     1      -0.398   6.242 -30.520  1.00  0.00     0.238 C 
HETATM    4  C   UNL     1      -0.226   6.616 -31.985  1.00  0.00     0.071 C 
HETATM    5  C   UNL     1      -1.552   7.075 -32.621  1.00  0.00     0.088 C 
HETATM    6  C   UNL     1      -1.984   8.321 -31.819  1.00  0.00     0.071 C 
HETATM    7  C   UNL     1      -2.192   8.007 -30.348  1.00  0.00     0.238 C 
ENDROOT
BRANCH   5   8
HETATM    8  O   UNL     1      -1.243   7.525 -33.940  1.00  0.00    -0.385 OA
HETATM    9  H   UNL     1      -0.413   8.037 -33.928  1.00  0.00     0.211 HD
ENDBRANCH   5   8
BRANCH   5  10
HETATM   10  C   UNL     1      -2.620   5.976 -32.725  1.00  0.00    -0.023 A 
HETATM   11  C   UNL     1      -2.276   4.611 -32.579  1.00  0.00     0.024 A 
HETATM   12  C   UNL     1      -3.280   3.623 -32.572  1.00  0.00     0.001 A 
HETATM   13  C   UNL     1      -4.594   4.011 -32.772  1.00  0.00     0.086 A 
HETATM   14  C   UNL     1      -3.313   2.217 -32.393  1.00  0.00     0.057 A 
HETATM   15  O   UNL     1      -5.425   2.938 -32.694  1.00  0.00    -0.304 OA
HETATM   16  C   UNL     1      -4.982   5.322 -33.016  1.00  0.00     0.039 A 
HETATM   17  C   UNL     1      -4.642   1.838 -32.449  1.00  0.00     0.144 A 
HETATM   18  C   UNL     1      -3.968   6.292 -32.999  1.00  0.00     0.013 A 
BRANCH  17  19
HETATM   19  C   UNL     1      -5.261   0.542 -32.265  1.00  0.00     0.275 C 
HETATM   20  N   UNL     1      -5.531  -0.121 -33.438  1.00  0.00    -0.353 N 
HETATM   21  H   UNL     1      -5.357   0.369 -34.309  1.00  0.00     0.162 HD
HETATM   22  O   UNL     1      -5.555   0.093 -31.162  1.00  0.00    -0.265 OA
BRANCH  20  23
HETATM   23  C   UNL     1      -6.291  -1.353 -33.505  1.00  0.00     0.155 C 
BRANCH  23  24
HETATM   24  C   UNL     1      -5.915  -2.228 -34.713  1.00  0.00     0.139 C 
HETATM   25  O   UNL     1      -6.883  -3.293 -34.852  1.00  0.00    -0.384 OA
HETATM   26  C   UNL     1      -6.171  -4.524 -35.014  1.00  0.00     0.168 C 
HETATM   27  C   UNL     1      -4.840  -4.324 -34.329  1.00  0.00     0.029 C 
HETATM   28  C   UNL     1      -4.539  -2.879 -34.640  1.00  0.00     0.035 C 
ENDBRANCH  23  24
ENDBRANCH  20  23
ENDBRANCH  17  19
ENDBRANCH   5  10
BRANCH   1  29
HETATM   29  C   UNL     1      -1.169   7.107 -28.271  1.00  0.00     0.273 C 
BRANCH  29  30
HETATM   30  C   UNL     1      -0.260   7.844 -27.326  1.00  0.00    -0.030 A 
HETATM   31  C   UNL     1      -0.765   8.480 -26.179  1.00  0.00     0.048 A 
HETATM   32  C   UNL     1       0.070   9.223 -25.324  1.00  0.00     0.102 A 
HETATM   33  C   UNL     1       1.441   9.314 -25.624  1.00  0.00     0.101 A 
HETATM   34  C   UNL     1       1.940   8.667 -26.763  1.00  0.00     0.040 A 
HETATM   35  C   UNL     1       1.105   7.939 -27.607  1.00  0.00     0.012 A 
BRANCH  32  36
HETATM   36  O   UNL     1      -0.392   9.880 -24.219  1.00  0.00    -0.353 OA
HETATM   37  C   UNL     1      -1.664   9.538 -23.686  1.00  0.00     0.210 C 
ENDBRANCH  32  36
BRANCH  33  38
HETATM   38  O   UNL     1       2.426   9.985 -24.952  1.00  0.00    -0.353 OA
HETATM   39  C   UNL     1       3.268   9.275 -24.057  1.00  0.00     0.210 C 
ENDBRANCH  33  38
ENDBRANCH  29  30
ENDBRANCH   1  29
TORSDOF 9
ENDMDL
MODEL 2
REMARK VINA RESULT:      -9.3      3.235     10.908
REMARK  9 active torsions:
REMARK  status: ('A' for Active; 'I' for Inactive)
REMARK    1  A    between atoms: O_2  and  C_3 
REMARK    2  A    between atoms: C_4  and  O_5 
REMARK    3  A    between atoms: C_8  and  C_9 
REMARK    4  A    between atoms: C_9  and  N_10 
REMARK    5  A    between atoms: C_14  and  O_15 
REMARK    6  A    between atoms: C_14  and  C_16 
REMARK    7  A    between atoms: C_21  and  C_22 
REMARK       I    between atoms: C_22  and  N_23 
REMARK    8  A    between atoms: N_23  and  C_24 
REMARK    9  A    between atoms: C_24  and  C_25 
ROOT
HETATM    1  N   UNL     1      -8.685   0.363 -34.021  1.00  0.00    -0.067 N 
HETATM    2  H   UNL     1      -9.643   0.005 -34.112  1.00  0.00     0.280 HD
HETATM    3  C   UNL     1      -8.205  -0.025 -32.639  1.00  0.00     0.238 C 
HETATM    4  C   UNL     1      -9.025   0.697 -31.580  1.00  0.00     0.071 C 
HETATM    5  C   UNL     1      -8.939   2.228 -31.732  1.00  0.00     0.088 C 
HETATM    6  C   UNL     1      -9.515   2.537 -33.129  1.00  0.00     0.071 C 
HETATM    7  C   UNL     1      -8.725   1.858 -34.234  1.00  0.00     0.238 C 
ENDROOT
BRANCH   5   8
HETATM    8  O   UNL     1      -9.846   2.789 -30.783  1.00  0.00    -0.385 OA
HETATM    9  H   UNL     1      -9.749   3.760 -30.769  1.00  0.00     0.211 HD
ENDBRANCH   5   8
BRANCH   5  10
HETATM   10  C   UNL     1      -7.543   2.815 -31.469  1.00  0.00    -0.023 A 
HETATM   11  C   UNL     1      -6.613   2.979 -32.523  1.00  0.00     0.024 A 
HETATM   12  C   UNL     1      -5.378   3.614 -32.287  1.00  0.00     0.001 A 
HETATM   13  C   UNL     1      -5.074   4.014 -30.997  1.00  0.00     0.086 A 
HETATM   14  C   UNL     1      -4.268   3.994 -33.083  1.00  0.00     0.057 A 
HETATM   15  O   UNL     1      -3.868   4.640 -30.964  1.00  0.00    -0.304 OA
HETATM   16  C   UNL     1      -5.904   3.794 -29.906  1.00  0.00     0.039 A 
HETATM   17  C   UNL     1      -3.377   4.640 -32.245  1.00  0.00     0.144 A 
HETATM   18  C   UNL     1      -7.137   3.178 -30.168  1.00  0.00     0.013 A 
BRANCH  17  19
HETATM   19  C   UNL     1      -2.116   5.290 -32.532  1.00  0.00     0.275 C 
HETATM   20  N   UNL     1      -1.753   6.240 -31.609  1.00  0.00    -0.353 N 
HETATM   21  H   UNL     1      -2.415   6.461 -30.872  1.00  0.00     0.162 HD
HETATM   22  O   UNL     1      -1.449   5.043 -33.532  1.00  0.00    -0.265 OA
BRANCH  20  23
HETATM   23  C   UNL     1      -0.619   7.128 -31.775  1.00  0.00     0.155 C 
BRANCH  23  24
HETATM   24  C   UNL     1       0.568   6.765 -30.868  1.00  0.00     0.139 C 
HETATM   25  O   UNL     1       0.713   5.327 -30.824  1.00  0.00    -0.384 OA
HETATM   26  C   UNL     1       0.844   4.936 -29.453  1.00  0.00     0.168 C 
HETATM   27  C   UNL     1       0.134   6.000 -28.649  1.00  0.00     0.029 C 
HETATM   28  C   UNL     1       0.459   7.251 -29.427  1.00  0.00     0.035 C 
ENDBRANCH  23  24
ENDBRANCH  20  23
ENDBRANCH  17  19
ENDBRANCH   5  10
BRANCH   1  29
HETATM   29  C   UNL     1      -7.879  -0.297 -35.133  1.00  0.00     0.273 C 
BRANCH  29  30
HETATM   30  C   UNL     1      -6.708  -1.110 -34.652  1.00  0.00    -0.030 A 
HETATM   31  C   UNL     1      -5.592  -0.495 -34.058  1.00  0.00     0.048 A 
HETATM   32  C   UNL     1      -4.468  -1.243 -33.662  1.00  0.00     0.102 A 
HETATM   33  C   UNL     1      -4.475  -2.636 -33.856  1.00  0.00     0.101 A 
HETATM   34  C   UNL     1      -5.596  -3.243 -34.439  1.00  0.00     0.040 A 
HETATM   35  C   UNL     1      -6.703  -2.495 -34.833  1.00  0.00     0.012 A 
BRANCH  32  36
HETATM   36  O   UNL     1      -3.353  -0.676 -33.111  1.00  0.00    -0.353 OA
HETATM   37  C   UNL     1      -3.275  -0.521 -31.702  1.00  0.00     0.210 C 
ENDBRANCH  32  36
BRANCH  33  38
HETATM   38  O   UNL     1      -3.500  -3.551 -33.565  1.00  0.00    -0.353 OA
HETATM   39  C   UNL     1      -3.763  -4.933 -33.750  1.00  0.00     0.210 C 
ENDBRANCH  33  38
ENDBRANCH  29  30
ENDBRANCH   1  29
TORSDOF 9
ENDMDL
MODEL 3
REMARK VINA RESULT:      -9.1      2.510     10.939
REMARK  9 active torsions:
REMARK  status: ('A' for Active; 'I' for Inactive)
REMARK    1  A    between atoms: O_2  and  C_3 
REMARK    2  A    between atoms: C_4  and  O_5 
REMARK    3  A    between atoms: C_8  and  C_9 
REMARK    4  A    between atoms: C_9  and  N_10 
REMARK    5  A    between atoms: C_14  and  O_15 
REMARK    6  A    between atoms: C_14  and  C_16 
REMARK    7  A    between atoms: C_21  and  C_22 
REMARK       I    between atoms: C_22  and  N_23 
REMARK    8  A    between atoms: N_23  and  C_24 
REMARK    9  A    between atoms: C_24  and  C_25 
ROOT
HETATM    1  N   UNL     1      -8.980   2.243 -32.445  1.00  0.00    -0.067 N 
HETATM    2  H   UNL     1      -9.964   2.504 -32.578  1.00  0.00     0.280 HD
HETATM    3  C   UNL     1      -8.463   3.066 -31.285  1.00  0.00     0.238 C 
HETATM    4  C   UNL     1      -8.460   4.543 -31.654  1.00  0.00     0.071 C 
HETATM    5  C   UNL     1      -7.592   4.823 -32.895  1.00  0.00     0.088 C 
HETATM    6  C   UNL     1      -8.232   4.008 -34.039  1.00  0.00     0.071 C 
HETATM    7  C   UNL     1      -8.247   2.520 -33.738  1.00  0.00     0.238 C 
ENDROOT
BRANCH   5   8
HETATM    8  O   UNL     1      -7.773   6.201 -33.224  1.00  0.00    -0.385 OA
HETATM    9  H   UNL     1      -7.549   6.755 -32.454  1.00  0.00     0.211 HD
ENDBRANCH   5   8
BRANCH   5  10
HETATM   10  C   UNL     1      -6.090   4.571 -32.690  1.00  0.00    -0.023 A 
HETATM   11  C   UNL     1      -5.285   5.503 -31.992  1.00  0.00     0.024 A 
HETATM   12  C   UNL     1      -3.935   5.211 -31.720  1.00  0.00     0.001 A 
HETATM   13  C   UNL     1      -3.402   4.027 -32.202  1.00  0.00     0.086 A 
HETATM   14  C   UNL     1      -2.883   5.852 -31.019  1.00  0.00     0.057 A 
HETATM   15  O   UNL     1      -2.107   3.894 -31.813  1.00  0.00    -0.304 OA
HETATM   16  C   UNL     1      -4.115   3.119 -32.975  1.00  0.00     0.039 A 
HETATM   17  C   UNL     1      -1.790   5.006 -31.076  1.00  0.00     0.144 A 
HETATM   18  C   UNL     1      -5.464   3.422 -33.216  1.00  0.00     0.013 A 
BRANCH  17  19
HETATM   19  C   UNL     1      -0.476   5.123 -30.479  1.00  0.00     0.275 C 
HETATM   20  N   UNL     1      -0.494   5.511 -29.161  1.00  0.00    -0.353 N 
HETATM   21  H   UNL     1      -1.388   5.756 -28.752  1.00  0.00     0.162 HD
HETATM   22  O   UNL     1       0.562   4.932 -31.104  1.00  0.00    -0.265 OA
BRANCH  20  23
HETATM   23  C   UNL     1       0.699   5.850 -28.409  1.00  0.00     0.155 C 
BRANCH  23  24
HETATM   24  C   UNL     1       0.433   6.860 -27.280  1.00  0.00     0.139 C 
HETATM   25  O   UNL     1      -0.451   7.896 -27.765  1.00  0.00    -0.384 OA
HETATM   26  C   UNL     1       0.108   9.163 -27.402  1.00  0.00     0.168 C 
HETATM   27  C   UNL     1       1.599   8.943 -27.298  1.00  0.00     0.029 C 
HETATM   28  C   UNL     1       1.671   7.551 -26.721  1.00  0.00     0.035 C 
ENDBRANCH  23  24
ENDBRANCH  20  23
ENDBRANCH  17  19
ENDBRANCH   5  10
BRANCH   1  29
HETATM   29  C   UNL     1      -8.974   0.748 -32.157  1.00  0.00     0.273 C 
BRANCH  29  30
HETATM   30  C   UNL     1      -7.671   0.062 -32.467  1.00  0.00    -0.030 A 
HETATM   31  C   UNL     1      -7.539  -0.775 -33.590  1.00  0.00     0.048 A 
HETATM   32  C   UNL     1      -6.343  -1.468 -33.851  1.00  0.00     0.102 A 
HETATM   33  C   UNL     1      -5.257  -1.304 -32.973  1.00  0.00     0.101 A 
HETATM   34  C   UNL     1      -5.392  -0.459 -31.863  1.00  0.00     0.040 A 
HETATM   35  C   UNL     1      -6.581   0.218 -31.608  1.00  0.00     0.012 A 
BRANCH  32  36
HETATM   36  O   UNL     1      -6.189  -2.314 -34.913  1.00  0.00    -0.353 OA
HETATM   37  C   UNL     1      -6.721  -3.629 -34.838  1.00  0.00     0.210 C 
ENDBRANCH  32  36
BRANCH  33  38
HETATM   38  O   UNL     1      -4.017  -1.881 -33.020  1.00  0.00    -0.353 OA
HETATM   39  C   UNL     1      -3.133  -1.727 -31.921  1.00  0.00     0.210 C 
ENDBRANCH  33  38
ENDBRANCH  29  30
ENDBRANCH   1  29
TORSDOF 9
ENDMDL
MODEL 4
REMARK VINA RESULT:      -8.5      2.152     11.675
REMARK  9 active torsions:
REMARK  status: ('A' for Active; 'I' for Inactive)
REMARK    1  A    between atoms: O_2  and  C_3 
REMARK    2  A    between atoms: C_4  and  O_5 
REMARK    3  A    between atoms: C_8  and  C_9 
REMARK    4  A    between atoms: C_9  and  N_10 
REMARK    5  A    between atoms: C_14  and  O_15 
REMARK    6  A    between atoms: C_14  and  C_16 
REMARK    7  A    between atoms: C_21  and  C_22 
REMARK       I    between atoms: C_22  and  N_23 
REMARK    8  A    between atoms: N_23  and  C_24 
REMARK    9  A    between atoms: C_24  and  C_25 
ROOT
HETATM    1  N   UNL     1      -3.351   4.434 -32.315  1.00  0.00    -0.067 N 
HETATM    2  H   UNL     1      -3.323   3.993 -33.243  1.00  0.00     0.280 HD
HETATM    3  C   UNL     1      -3.930   5.818 -32.508  1.00  0.00     0.238 C 
HETATM    4  C   UNL     1      -2.986   6.667 -33.347  1.00  0.00     0.071 C 
HETATM    5  C   UNL     1      -1.594   6.789 -32.697  1.00  0.00     0.088 C 
HETATM    6  C   UNL     1      -1.051   5.347 -32.610  1.00  0.00     0.071 C 
HETATM    7  C   UNL     1      -1.943   4.453 -31.767  1.00  0.00     0.238 C 
ENDROOT
BRANCH   5   8
HETATM    8  O   UNL     1      -0.763   7.483 -33.628  1.00  0.00    -0.385 OA
HETATM    9  H   UNL     1      -1.086   8.396 -33.742  1.00  0.00     0.211 HD
ENDBRANCH   5   8
BRANCH   5  10
HETATM   10  C   UNL     1      -1.578   7.562 -31.370  1.00  0.00    -0.023 A 
HETATM   11  C   UNL     1      -0.659   7.232 -30.346  1.00  0.00     0.024 A 
HETATM   12  C   UNL     1      -0.585   8.015 -29.178  1.00  0.00     0.001 A 
HETATM   13  C   UNL     1      -1.469   9.070 -29.030  1.00  0.00     0.086 A 
HETATM   14  C   UNL     1       0.225   8.022 -28.014  1.00  0.00     0.057 A 
HETATM   15  O   UNL     1      -1.229   9.735 -27.869  1.00  0.00    -0.304 OA
HETATM   16  C   UNL     1      -2.456   9.384 -29.955  1.00  0.00     0.039 A 
HETATM   17  C   UNL     1      -0.181   9.100 -27.250  1.00  0.00     0.144 A 
HETATM   18  C   UNL     1      -2.498   8.603 -31.120  1.00  0.00     0.013 A 
BRANCH  17  19
HETATM   19  C   UNL     1       0.338   9.620 -26.002  1.00  0.00     0.275 C 
HETATM   20  N   UNL     1       1.681   9.909 -26.033  1.00  0.00    -0.353 N 
HETATM   21  H   UNL     1       2.198   9.666 -26.871  1.00  0.00     0.162 HD
HETATM   22  O   UNL     1      -0.350   9.752 -24.995  1.00  0.00    -0.265 OA
BRANCH  20  23
HETATM   23  C   UNL     1       2.447  10.283 -24.860  1.00  0.00     0.155 C 
BRANCH  23  24
HETATM   24  C   UNL     1       3.315   9.136 -24.317  1.00  0.00     0.139 C 
HETATM   25  O   UNL     1       2.638   8.512 -23.202  1.00  0.00    -0.384 OA
HETATM   26  C   UNL     1       3.574   8.387 -22.126  1.00  0.00     0.168 C 
HETATM   27  C   UNL     1       4.583   9.493 -22.326  1.00  0.00     0.029 C 
HETATM   28  C   UNL     1       4.701   9.544 -23.829  1.00  0.00     0.035 C 
ENDBRANCH  23  24
ENDBRANCH  20  23
ENDBRANCH  17  19
ENDBRANCH   5  10
BRANCH   1  29
HETATM   29  C   UNL     1      -4.231   3.540 -31.450  1.00  0.00     0.273 C 
BRANCH  29  30
HETATM   30  C   UNL     1      -4.219   2.089 -31.845  1.00  0.00    -0.030 A 
HETATM   31  C   UNL     1      -5.084   1.598 -32.839  1.00  0.00     0.048 A 
HETATM   32  C   UNL     1      -5.121   0.231 -33.170  1.00  0.00     0.102 A 
HETATM   33  C   UNL     1      -4.261  -0.654 -32.495  1.00  0.00     0.101 A 
HETATM   34  C   UNL     1      -3.394  -0.156 -31.514  1.00  0.00     0.040 A 
HETATM   35  C   UNL     1      -3.367   1.197 -31.188  1.00  0.00     0.012 A 
BRANCH  32  36
HETATM   36  O   UNL     1      -5.970  -0.285 -34.107  1.00  0.00    -0.353 OA
HETATM   37  C   UNL     1      -7.230  -0.798 -33.696  1.00  0.00     0.210 C 
ENDBRANCH  32  36
BRANCH  33  38
HETATM   38  O   UNL     1      -4.136  -2.010 -32.639  1.00  0.00    -0.353 OA
HETATM   39  C   UNL     1      -3.083  -2.688 -31.972  1.00  0.00     0.210 C 
ENDBRANCH  33  38
ENDBRANCH  29  30
ENDBRANCH   1  29
TORSDOF 9
ENDMDL
MODEL 5
REMARK VINA RESULT:      -8.5      4.785     11.968
REMARK  9 active torsions:
REMARK  status: ('A' for Active; 'I' for Inactive)
REMARK    1  A    between atoms: O_2  and  C_3 
REMARK    2  A    between atoms: C_4  and  O_5 
REMARK    3  A    between atoms: C_8  and  C_9 
REMARK    4  A    between atoms: C_9  and  N_10 
REMARK    5  A    between atoms: C_14  and  O_15 
REMARK    6  A    between atoms: C_14  and  C_16 
REMARK    7  A    between atoms: C_21  and  C_22 
REMARK       I    between atoms: C_22  and  N_23 
REMARK    8  A    between atoms: N_23  and  C_24 
REMARK    9  A    between atoms: C_24  and  C_25 
ROOT
HETATM    1  N   UNL     1      -8.925   1.146 -33.523  1.00  0.00    -0.067 N 
HETATM    2  H   UNL     1      -9.582   0.454 -33.903  1.00  0.00     0.280 HD
HETATM    3  C   UNL     1      -7.857   1.355 -34.575  1.00  0.00     0.238 C 
HETATM    4  C   UNL     1      -7.055   0.075 -34.765  1.00  0.00     0.071 C 
HETATM    5  C   UNL     1      -6.389  -0.385 -33.455  1.00  0.00     0.088 C 
HETATM    6  C   UNL     1      -7.548  -0.646 -32.472  1.00  0.00     0.071 C 
HETATM    7  C   UNL     1      -8.376   0.603 -32.224  1.00  0.00     0.238 C 
ENDROOT
BRANCH   5   8
HETATM    8  O   UNL     1      -5.787  -1.652 -33.722  1.00  0.00    -0.385 OA
HETATM    9  H   UNL     1      -6.046  -1.960 -34.610  1.00  0.00     0.211 HD
ENDBRANCH   5   8
BRANCH   5  10
HETATM   10  C   UNL     1      -5.301   0.563 -32.929  1.00  0.00    -0.023 A 
HETATM   11  C   UNL     1      -5.370   1.956 -33.171  1.00  0.00     0.024 A 
HETATM   12  C   UNL     1      -4.424   2.825 -32.595  1.00  0.00     0.001 A 
HETATM   13  C   UNL     1      -3.397   2.282 -31.841  1.00  0.00     0.086 A 
HETATM   14  C   UNL     1      -4.225   4.228 -32.567  1.00  0.00     0.057 A 
HETATM   15  O   UNL     1      -2.607   3.264 -31.334  1.00  0.00    -0.304 OA
HETATM   16  C   UNL     1      -3.221   0.918 -31.648  1.00  0.00     0.039 A 
HETATM   17  C   UNL     1      -3.120   4.460 -31.767  1.00  0.00     0.144 A 
HETATM   18  C   UNL     1      -4.187   0.072 -32.215  1.00  0.00     0.013 A 
BRANCH  17  19
HETATM   19  C   UNL     1      -2.511   5.702 -31.340  1.00  0.00     0.275 C 
HETATM   20  N   UNL     1      -1.411   6.067 -32.077  1.00  0.00    -0.353 N 
HETATM   21  H   UNL     1      -1.077   5.419 -32.782  1.00  0.00     0.162 HD
HETATM   22  O   UNL     1      -2.916   6.350 -30.380  1.00  0.00    -0.265 OA
BRANCH  20  23
HETATM   23  C   UNL     1      -0.547   7.180 -31.731  1.00  0.00     0.155 C 
BRANCH  23  24
HETATM   24  C   UNL     1       0.649   6.766 -30.859  1.00  0.00     0.139 C 
HETATM   25  O   UNL     1       0.787   5.327 -30.889  1.00  0.00    -0.384 OA
HETATM   26  C   UNL     1       0.932   4.865 -29.542  1.00  0.00     0.168 C 
HETATM   27  C   UNL     1       0.237   5.890 -28.676  1.00  0.00     0.029 C 
HETATM   28  C   UNL     1       0.559   7.177 -29.394  1.00  0.00     0.035 C 
ENDBRANCH  23  24
ENDBRANCH  20  23
ENDBRANCH  17  19
ENDBRANCH   5  10
BRANCH   1  29
HETATM   29  C   UNL     1      -9.742   2.403 -33.254  1.00  0.00     0.273 C 
BRANCH  29  30
HETATM   30  C   UNL     1     -11.231   2.203 -33.333  1.00  0.00    -0.030 A 
HETATM   31  C   UNL     1     -12.122   3.182 -32.860  1.00  0.00     0.048 A 
HETATM   32  C   UNL     1     -13.514   2.976 -32.874  1.00  0.00     0.102 A 
HETATM   33  C   UNL     1     -14.016   1.766 -33.387  1.00  0.00     0.101 A 
HETATM   34  C   UNL     1     -13.122   0.800 -33.867  1.00  0.00     0.040 A 
HETATM   35  C   UNL     1     -11.746   1.009 -33.844  1.00  0.00     0.012 A 
BRANCH  32  36
HETATM   36  O   UNL     1     -14.407   3.891 -32.393  1.00  0.00    -0.353 OA
HETATM   37  C   UNL     1     -14.132   4.555 -31.168  1.00  0.00     0.210 C 
ENDBRANCH  32  36
BRANCH  33  38
HETATM   38  O   UNL     1     -15.315   1.347 -33.486  1.00  0.00    -0.353 OA
HETATM   39  C   UNL     1     -15.709   0.551 -34.593  1.00  0.00     0.210 C 
ENDBRANCH  33  38
ENDBRANCH  29  30
ENDBRANCH   1  29
TORSDOF 9
ENDMDL
MODEL 6
REMARK VINA RESULT:      -8.4      4.154      9.539
REMARK  9 active torsions:
REMARK  status: ('A' for Active; 'I' for Inactive)
REMARK    1  A    between atoms: O_2  and  C_3 
REMARK    2  A    between atoms: C_4  and  O_5 
REMARK    3  A    between atoms: C_8  and  C_9 
REMARK    4  A    between atoms: C_9  and  N_10 
REMARK    5  A    between atoms: C_14  and  O_15 
REMARK    6  A    between atoms: C_14  and  C_16 
REMARK    7  A    between atoms: C_21  and  C_22 
REMARK       I    between atoms: C_22  and  N_23 
REMARK    8  A    between atoms: N_23  and  C_24 
REMARK    9  A    between atoms: C_24  and  C_25 
ROOT
HETATM    1  N   UNL     1      -9.587   1.180 -33.561  1.00  0.00    -0.067 N 
HETATM    2  H   UNL     1     -10.354   0.668 -34.014  1.00  0.00     0.280 HD
HETATM    3  C   UNL     1      -8.494   1.333 -34.596  1.00  0.00     0.238 C 
HETATM    4  C   UNL     1      -7.930  -0.031 -34.965  1.00  0.00     0.071 C 
HETATM    5  C   UNL     1      -7.360  -0.768 -33.737  1.00  0.00     0.088 C 
HETATM    6  C   UNL     1      -8.552  -0.947 -32.774  1.00  0.00     0.071 C 
HETATM    7  C   UNL     1      -9.149   0.384 -32.352  1.00  0.00     0.238 C 
ENDROOT
BRANCH   5   8
HETATM    8  O   UNL     1      -6.989  -2.075 -34.176  1.00  0.00    -0.385 OA
HETATM    9  H   UNL     1      -7.750  -2.506 -34.609  1.00  0.00     0.211 HD
ENDBRANCH   5   8
BRANCH   5  10
HETATM   10  C   UNL     1      -6.125  -0.101 -33.113  1.00  0.00    -0.023 A 
HETATM   11  C   UNL     1      -5.863   1.276 -33.311  1.00  0.00     0.024 A 
HETATM   12  C   UNL     1      -4.787   1.897 -32.649  1.00  0.00     0.001 A 
HETATM   13  C   UNL     1      -3.961   1.120 -31.854  1.00  0.00     0.086 A 
HETATM   14  C   UNL     1      -4.280   3.217 -32.560  1.00  0.00     0.057 A 
HETATM   15  O   UNL     1      -3.006   1.888 -31.265  1.00  0.00    -0.304 OA
HETATM   16  C   UNL     1      -4.109  -0.252 -31.698  1.00  0.00     0.039 A 
HETATM   17  C   UNL     1      -3.208   3.177 -31.688  1.00  0.00     0.144 A 
HETATM   18  C   UNL     1      -5.200  -0.846 -32.351  1.00  0.00     0.013 A 
BRANCH  17  19
HETATM   19  C   UNL     1      -2.365   4.240 -31.181  1.00  0.00     0.275 C 
HETATM   20  N   UNL     1      -3.054   5.368 -30.803  1.00  0.00    -0.353 N 
HETATM   21  H   UNL     1      -4.052   5.394 -30.980  1.00  0.00     0.162 HD
HETATM   22  O   UNL     1      -1.142   4.158 -31.132  1.00  0.00    -0.265 OA
BRANCH  20  23
HETATM   23  C   UNL     1      -2.410   6.610 -30.423  1.00  0.00     0.155 C 
BRANCH  23  24
HETATM   24  C   UNL     1      -2.139   7.539 -31.618  1.00  0.00     0.139 C 
HETATM   25  O   UNL     1      -3.031   7.195 -32.702  1.00  0.00    -0.384 OA
HETATM   26  C   UNL     1      -2.254   7.086 -33.900  1.00  0.00     0.168 C 
HETATM   27  C   UNL     1      -0.860   6.710 -33.455  1.00  0.00     0.029 C 
HETATM   28  C   UNL     1      -0.719   7.489 -32.171  1.00  0.00     0.035 C 
ENDBRANCH  23  24
ENDBRANCH  20  23
ENDBRANCH  17  19
ENDBRANCH   5  10
BRANCH   1  29
HETATM   29  C   UNL     1     -10.172   2.514 -33.117  1.00  0.00     0.273 C 
BRANCH  29  30
HETATM   30  C   UNL     1      -9.148   3.588 -32.868  1.00  0.00    -0.030 A 
HETATM   31  C   UNL     1      -8.432   3.644 -31.659  1.00  0.00     0.048 A 
HETATM   32  C   UNL     1      -7.518   4.681 -31.396  1.00  0.00     0.102 A 
HETATM   33  C   UNL     1      -7.313   5.670 -32.374  1.00  0.00     0.101 A 
HETATM   34  C   UNL     1      -8.021   5.601 -33.581  1.00  0.00     0.040 A 
HETATM   35  C   UNL     1      -8.929   4.575 -33.832  1.00  0.00     0.012 A 
BRANCH  32  36
HETATM   36  O   UNL     1      -6.829   4.785 -30.220  1.00  0.00    -0.353 OA
HETATM   37  C   UNL     1      -7.444   5.419 -29.108  1.00  0.00     0.210 C 
ENDBRANCH  32  36
BRANCH  33  38
HETATM   38  O   UNL     1      -6.494   6.766 -32.331  1.00  0.00    -0.353 OA
HETATM   39  C   UNL     1      -7.020   8.014 -31.908  1.00  0.00     0.210 C 
ENDBRANCH  33  38
ENDBRANCH  29  30
ENDBRANCH   1  29
TORSDOF 9
ENDMDL
MODEL 7
REMARK VINA RESULT:      -8.4      3.275      4.004
REMARK  9 active torsions:
REMARK  status: ('A' for Active; 'I' for Inactive)
REMARK    1  A    between atoms: O_2  and  C_3 
REMARK    2  A    between atoms: C_4  and  O_5 
REMARK    3  A    between atoms: C_8  and  C_9 
REMARK    4  A    between atoms: C_9  and  N_10 
REMARK    5  A    between atoms: C_14  and  O_15 
REMARK    6  A    between atoms: C_14  and  C_16 
REMARK    7  A    between atoms: C_21  and  C_22 
REMARK       I    between atoms: C_22  and  N_23 
REMARK    8  A    between atoms: N_23  and  C_24 
REMARK    9  A    between atoms: C_24  and  C_25 
ROOT
HETATM    1  N   UNL     1      -0.816   6.876 -30.612  1.00  0.00    -0.067 N 
HETATM    2  H   UNL     1      -0.178   7.664 -30.777  1.00  0.00     0.280 HD
HETATM    3  C   UNL     1      -0.441   5.797 -31.604  1.00  0.00     0.238 C 
HETATM    4  C   UNL     1      -0.720   6.272 -33.022  1.00  0.00     0.071 C 
HETATM    5  C   UNL     1      -2.201   6.647 -33.222  1.00  0.00     0.088 C 
HETATM    6  C   UNL     1      -2.473   7.797 -32.230  1.00  0.00     0.071 C 
HETATM    7  C   UNL     1      -2.231   7.377 -30.791  1.00  0.00     0.238 C 
ENDROOT
BRANCH   5   8
HETATM    8  O   UNL     1      -2.313   7.202 -34.533  1.00  0.00    -0.385 OA
HETATM    9  H   UNL     1      -3.116   6.859 -34.968  1.00  0.00     0.211 HD
ENDBRANCH   5   8
BRANCH   5  10
HETATM   10  C   UNL     1      -3.175   5.463 -33.116  1.00  0.00    -0.023 A 
HETATM   11  C   UNL     1      -4.530   5.600 -33.499  1.00  0.00     0.024 A 
HETATM   12  C   UNL     1      -5.386   4.482 -33.496  1.00  0.00     0.001 A 
HETATM   13  C   UNL     1      -4.888   3.268 -33.054  1.00  0.00     0.086 A 
HETATM   14  C   UNL     1      -6.733   4.238 -33.862  1.00  0.00     0.057 A 
HETATM   15  O   UNL     1      -5.834   2.298 -33.157  1.00  0.00    -0.304 OA
HETATM   16  C   UNL     1      -3.596   3.092 -32.575  1.00  0.00     0.039 A 
HETATM   17  C   UNL     1      -6.964   2.888 -33.664  1.00  0.00     0.144 A 
HETATM   18  C   UNL     1      -2.756   4.216 -32.606  1.00  0.00     0.013 A 
BRANCH  17  19
HETATM   19  C   UNL     1      -8.137   2.084 -33.934  1.00  0.00     0.275 C 
HETATM   20  N   UNL     1      -9.225   2.404 -33.160  1.00  0.00    -0.353 N 
HETATM   21  H   UNL     1      -9.099   3.098 -32.430  1.00  0.00     0.162 HD
HETATM   22  O   UNL     1      -8.147   1.170 -34.752  1.00  0.00    -0.265 OA
BRANCH  20  23
HETATM   23  C   UNL     1     -10.451   1.631 -33.140  1.00  0.00     0.155 C 
BRANCH  23  24
HETATM   24  C   UNL     1     -11.609   2.318 -33.883  1.00  0.00     0.139 C 
HETATM   25  O   UNL     1     -12.689   2.570 -32.955  1.00  0.00    -0.384 OA
HETATM   26  C   UNL     1     -13.906   2.113 -33.554  1.00  0.00     0.168 C 
HETATM   27  C   UNL     1     -13.508   1.016 -34.513  1.00  0.00     0.029 C 
HETATM   28  C   UNL     1     -12.194   1.528 -35.048  1.00  0.00     0.035 C 
ENDBRANCH  23  24
ENDBRANCH  20  23
ENDBRANCH  17  19
ENDBRANCH   5  10
BRANCH   1  29
HETATM   29  C   UNL     1      -0.598   6.450 -29.166  1.00  0.00     0.273 C 
BRANCH  29  30
HETATM   30  C   UNL     1      -0.156   7.561 -28.252  1.00  0.00    -0.030 A 
HETATM   31  C   UNL     1      -1.064   8.194 -27.385  1.00  0.00     0.048 A 
HETATM   32  C   UNL     1      -0.672   9.273 -26.573  1.00  0.00     0.102 A 
HETATM   33  C   UNL     1       0.663   9.715 -26.627  1.00  0.00     0.101 A 
HETATM   34  C   UNL     1       1.565   9.072 -27.486  1.00  0.00     0.040 A 
HETATM   35  C   UNL     1       1.167   8.007 -28.290  1.00  0.00     0.012 A 
BRANCH  32  36
HETATM   36  O   UNL     1      -1.534   9.932 -25.742  1.00  0.00    -0.353 OA
HETATM   37  C   UNL     1      -2.363   9.184 -24.864  1.00  0.00     0.210 C 
ENDBRANCH  32  36
BRANCH  33  38
HETATM   38  O   UNL     1       1.258  10.742 -25.947  1.00  0.00    -0.353 OA
HETATM   39  C   UNL     1       2.049  10.457 -24.804  1.00  0.00     0.210 C 
ENDBRANCH  33  38
ENDBRANCH  29  30
ENDBRANCH   1  29
TORSDOF 9
ENDMDL
MODEL 8
REMARK VINA RESULT:      -8.3      4.888     11.857
REMARK  9 active torsions:
REMARK  status: ('A' for Active; 'I' for Inactive)
REMARK    1  A    between atoms: O_2  and  C_3 
REMARK    2  A    between atoms: C_4  and  O_5 
REMARK    3  A    between atoms: C_8  and  C_9 
REMARK    4  A    between atoms: C_9  and  N_10 
REMARK    5  A    between atoms: C_14  and  O_15 
REMARK    6  A    between atoms: C_14  and  C_16 
REMARK    7  A    between atoms: C_21  and  C_22 
REMARK       I    between atoms: C_22  and  N_23 
REMARK    8  A    between atoms: N_23  and  C_24 
REMARK    9  A    between atoms: C_24  and  C_25 
ROOT
HETATM    1  N   UNL     1      -9.301   0.907 -33.946  1.00  0.00    -0.067 N 
HETATM    2  H   UNL     1     -10.014   0.359 -34.442  1.00  0.00     0.280 HD
HETATM    3  C   UNL     1      -8.130   1.056 -34.893  1.00  0.00     0.238 C 
HETATM    4  C   UNL     1      -7.502  -0.303 -35.164  1.00  0.00     0.071 C 
HETATM    5  C   UNL     1      -7.017  -0.980 -33.867  1.00  0.00     0.088 C 
HETATM    6  C   UNL     1      -8.280  -1.161 -33.000  1.00  0.00     0.071 C 
HETATM    7  C   UNL     1      -8.944   0.166 -32.678  1.00  0.00     0.238 C 
ENDROOT
BRANCH   5   8
HETATM    8  O   UNL     1      -6.577  -2.291 -34.226  1.00  0.00    -0.385 OA
HETATM    9  H   UNL     1      -7.220  -2.699 -34.835  1.00  0.00     0.211 HD
ENDBRANCH   5   8
BRANCH   5  10
HETATM   10  C   UNL     1      -5.856  -0.257 -33.168  1.00  0.00    -0.023 A 
HETATM   11  C   UNL     1      -5.594   1.111 -33.421  1.00  0.00     0.024 A 
HETATM   12  C   UNL     1      -4.594   1.787 -32.695  1.00  0.00     0.001 A 
HETATM   13  C   UNL     1      -3.839   1.072 -31.782  1.00  0.00     0.086 A 
HETATM   14  C   UNL     1      -4.115   3.120 -32.636  1.00  0.00     0.057 A 
HETATM   15  O   UNL     1      -2.954   1.889 -31.151  1.00  0.00    -0.304 OA
HETATM   16  C   UNL     1      -3.984  -0.291 -31.561  1.00  0.00     0.039 A 
HETATM   17  C   UNL     1      -3.130   3.148 -31.665  1.00  0.00     0.144 A 
HETATM   18  C   UNL     1      -4.999  -0.941 -32.280  1.00  0.00     0.013 A 
BRANCH  17  19
HETATM   19  C   UNL     1      -2.353   4.253 -31.143  1.00  0.00     0.275 C 
HETATM   20  N   UNL     1      -3.096   5.374 -30.861  1.00  0.00    -0.353 N 
HETATM   21  H   UNL     1      -4.079   5.366 -31.109  1.00  0.00     0.162 HD
HETATM   22  O   UNL     1      -1.136   4.207 -31.004  1.00  0.00    -0.265 OA
BRANCH  20  23
HETATM   23  C   UNL     1      -2.513   6.648 -30.486  1.00  0.00     0.155 C 
BRANCH  23  24
HETATM   24  C   UNL     1      -2.209   7.551 -31.693  1.00  0.00     0.139 C 
HETATM   25  O   UNL     1      -3.058   7.170 -32.800  1.00  0.00    -0.384 OA
HETATM   26  C   UNL     1      -2.238   7.041 -33.966  1.00  0.00     0.168 C 
HETATM   27  C   UNL     1      -0.856   6.693 -33.463  1.00  0.00     0.029 C 
HETATM   28  C   UNL     1      -0.770   7.504 -32.194  1.00  0.00     0.035 C 
ENDBRANCH  23  24
ENDBRANCH  20  23
ENDBRANCH  17  19
ENDBRANCH   5  10
BRANCH   1  29
HETATM   29  C   UNL     1      -9.955   2.238 -33.601  1.00  0.00     0.273 C 
BRANCH  29  30
HETATM   30  C   UNL     1     -11.443   2.163 -33.394  1.00  0.00    -0.030 A 
HETATM   31  C   UNL     1     -12.118   3.117 -32.611  1.00  0.00     0.048 A 
HETATM   32  C   UNL     1     -13.499   3.017 -32.363  1.00  0.00     0.102 A 
HETATM   33  C   UNL     1     -14.215   1.945 -32.925  1.00  0.00     0.101 A 
HETATM   34  C   UNL     1     -13.538   1.005 -33.713  1.00  0.00     0.040 A 
HETATM   35  C   UNL     1     -12.170   1.107 -33.949  1.00  0.00     0.012 A 
BRANCH  32  36
HETATM   36  O   UNL     1     -14.181   3.907 -31.582  1.00  0.00    -0.353 OA
HETATM   37  C   UNL     1     -13.493   4.591 -30.544  1.00  0.00     0.210 C 
ENDBRANCH  32  36
BRANCH  33  38
HETATM   38  O   UNL     1     -15.545   1.643 -32.808  1.00  0.00    -0.353 OA
HETATM   39  C   UNL     1     -16.436   2.609 -32.275  1.00  0.00     0.210 C 
ENDBRANCH  33  38
ENDBRANCH  29  30
ENDBRANCH   1  29
TORSDOF 9
ENDMDL
MODEL 9
REMARK VINA RESULT:      -8.2      3.018      9.348
REMARK  9 active torsions:
REMARK  status: ('A' for Active; 'I' for Inactive)
REMARK    1  A    between atoms: O_2  and  C_3 
REMARK    2  A    between atoms: C_4  and  O_5 
REMARK    3  A    between atoms: C_8  and  C_9 
REMARK    4  A    between atoms: C_9  and  N_10 
REMARK    5  A    between atoms: C_14  and  O_15 
REMARK    6  A    between atoms: C_14  and  C_16 
REMARK    7  A    between atoms: C_21  and  C_22 
REMARK       I    between atoms: C_22  and  N_23 
REMARK    8  A    between atoms: N_23  and  C_24 
REMARK    9  A    between atoms: C_24  and  C_25 
ROOT
HETATM    1  N   UNL     1      -9.414   2.495 -32.890  1.00  0.00    -0.067 N 
HETATM    2  H   UNL     1     -10.271   2.018 -33.197  1.00  0.00     0.280 HD
HETATM    3  C   UNL     1      -8.411   2.353 -34.014  1.00  0.00     0.238 C 
HETATM    4  C   UNL     1      -8.034   0.889 -34.196  1.00  0.00     0.071 C 
HETATM    5  C   UNL     1      -7.438   0.286 -32.910  1.00  0.00     0.088 C 
HETATM    6  C   UNL     1      -8.549   0.403 -31.845  1.00  0.00     0.071 C 
HETATM    7  C   UNL     1      -8.956   1.847 -31.604  1.00  0.00     0.238 C 
ENDROOT
BRANCH   5   8
HETATM    8  O   UNL     1      -7.254  -1.109 -33.155  1.00  0.00    -0.385 OA
HETATM    9  H   UNL     1      -6.325  -1.281 -33.397  1.00  0.00     0.211 HD
ENDBRANCH   5   8
BRANCH   5  10
HETATM   10  C   UNL     1      -6.086   0.884 -32.495  1.00  0.00    -0.023 A 
HETATM   11  C   UNL     1      -5.604   2.075 -33.089  1.00  0.00     0.024 A 
HETATM   12  C   UNL     1      -4.415   2.669 -32.625  1.00  0.00     0.001 A 
HETATM   13  C   UNL     1      -3.701   2.031 -31.625  1.00  0.00     0.086 A 
HETATM   14  C   UNL     1      -3.690   3.850 -32.926  1.00  0.00     0.057 A 
HETATM   15  O   UNL     1      -2.609   2.762 -31.278  1.00  0.00    -0.304 OA
HETATM   16  C   UNL     1      -4.071   0.812 -31.071  1.00  0.00     0.039 A 
HETATM   17  C   UNL     1      -2.607   3.885 -32.066  1.00  0.00     0.144 A 
HETATM   18  C   UNL     1      -5.270   0.249 -31.534  1.00  0.00     0.013 A 
BRANCH  17  19
HETATM   19  C   UNL     1      -1.579   4.888 -31.886  1.00  0.00     0.275 C 
HETATM   20  N   UNL     1      -0.949   4.831 -30.666  1.00  0.00    -0.353 N 
HETATM   21  H   UNL     1      -1.299   4.168 -29.984  1.00  0.00     0.162 HD
HETATM   22  O   UNL     1      -1.321   5.739 -32.731  1.00  0.00    -0.265 OA
BRANCH  20  23
HETATM   23  C   UNL     1      -0.007   5.831 -30.203  1.00  0.00     0.155 C 
BRANCH  23  24
HETATM   24  C   UNL     1      -0.389   6.434 -28.841  1.00  0.00     0.139 C 
HETATM   25  O   UNL     1      -1.064   7.695 -29.050  1.00  0.00    -0.384 OA
HETATM   26  C   UNL     1      -0.470   8.666 -28.182  1.00  0.00     0.168 C 
HETATM   27  C   UNL     1       0.946   8.198 -27.945  1.00  0.00     0.029 C 
HETATM   28  C   UNL     1       0.778   6.700 -27.897  1.00  0.00     0.035 C 
ENDBRANCH  23  24
ENDBRANCH  20  23
ENDBRANCH  17  19
ENDBRANCH   5  10
BRANCH   1  29
HETATM   29  C   UNL     1      -9.806   3.943 -32.628  1.00  0.00     0.273 C 
BRANCH  29  30
HETATM   30  C   UNL     1      -8.667   4.826 -32.197  1.00  0.00    -0.030 A 
HETATM   31  C   UNL     1      -8.526   5.229 -30.857  1.00  0.00     0.048 A 
HETATM   32  C   UNL     1      -7.499   6.103 -30.458  1.00  0.00     0.102 A 
HETATM   33  C   UNL     1      -6.590   6.570 -31.425  1.00  0.00     0.101 A 
HETATM   34  C   UNL     1      -6.730   6.155 -32.757  1.00  0.00     0.040 A 
HETATM   35  C   UNL     1      -7.753   5.294 -33.144  1.00  0.00     0.012 A 
BRANCH  32  36
HETATM   36  O   UNL     1      -7.351   6.541 -29.172  1.00  0.00    -0.353 OA
HETATM   37  C   UNL     1      -6.999   5.612 -28.157  1.00  0.00     0.210 C 
ENDBRANCH  32  36
BRANCH  33  38
HETATM   38  O   UNL     1      -5.535   7.427 -31.272  1.00  0.00    -0.353 OA
HETATM   39  C   UNL     1      -4.329   6.953 -30.693  1.00  0.00     0.210 C 
ENDBRANCH  33  38
ENDBRANCH  29  30
ENDBRANCH   1  29
TORSDOF 9
ENDMDL
MODEL 10
REMARK VINA RESULT:      -8.0      3.511     10.959
REMARK  9 active torsions:
REMARK  status: ('A' for Active; 'I' for Inactive)
REMARK    1  A    between atoms: O_2  and  C_3 
REMARK    2  A    between atoms: C_4  and  O_5 
REMARK    3  A    between atoms: C_8  and  C_9 
REMARK    4  A    between atoms: C_9  and  N_10 
REMARK    5  A    between atoms: C_14  and  O_15 
REMARK    6  A    between atoms: C_14  and  C_16 
REMARK    7  A    between atoms: C_21  and  C_22 
REMARK       I    between atoms: C_22  and  N_23 
REMARK    8  A    between atoms: N_23  and  C_24 
REMARK    9  A    between atoms: C_24  and  C_25 
ROOT
HETATM    1  N   UNL     1      -9.083   0.214 -33.553  1.00  0.00    -0.067 N 
HETATM    2  H   UNL     1      -9.297  -0.770 -33.757  1.00  0.00     0.280 HD
HETATM    3  C   UNL     1      -8.340   0.755 -34.756  1.00  0.00     0.238 C 
HETATM    4  C   UNL     1      -6.997   0.054 -34.899  1.00  0.00     0.071 C 
HETATM    5  C   UNL     1      -6.120   0.231 -33.644  1.00  0.00     0.088 C 
HETATM    6  C   UNL     1      -6.917  -0.412 -32.490  1.00  0.00     0.071 C 
HETATM    7  C   UNL     1      -8.264   0.259 -32.284  1.00  0.00     0.238 C 
ENDROOT
BRANCH   5   8
HETATM    8  O   UNL     1      -4.957  -0.574 -33.836  1.00  0.00    -0.385 OA
HETATM    9  H   UNL     1      -4.230  -0.025 -34.185  1.00  0.00     0.211 HD
ENDBRANCH   5   8
BRANCH   5  10
HETATM   10  C   UNL     1      -5.668   1.676 -33.385  1.00  0.00    -0.023 A 
HETATM   11  C   UNL     1      -4.701   1.969 -32.393  1.00  0.00     0.024 A 
HETATM   12  C   UNL     1      -4.219   3.283 -32.238  1.00  0.00     0.001 A 
HETATM   13  C   UNL     1      -4.754   4.284 -33.030  1.00  0.00     0.086 A 
HETATM   14  C   UNL     1      -3.243   3.912 -31.424  1.00  0.00     0.057 A 
HETATM   15  O   UNL     1      -4.146   5.472 -32.774  1.00  0.00    -0.304 OA
HETATM   16  C   UNL     1      -5.772   4.076 -33.952  1.00  0.00     0.039 A 
HETATM   17  C   UNL     1      -3.210   5.244 -31.797  1.00  0.00     0.144 A 
HETATM   18  C   UNL     1      -6.223   2.756 -34.104  1.00  0.00     0.013 A 
BRANCH  17  19
HETATM   19  C   UNL     1      -2.360   6.327 -31.348  1.00  0.00     0.275 C 
HETATM   20  N   UNL     1      -2.071   6.290 -30.006  1.00  0.00    -0.353 N 
HETATM   21  H   UNL     1      -2.527   5.581 -29.442  1.00  0.00     0.162 HD
HETATM   22  O   UNL     1      -1.967   7.220 -32.091  1.00  0.00    -0.265 OA
BRANCH  20  23
HETATM   23  C   UNL     1      -1.378   7.354 -29.306  1.00  0.00     0.155 C 
BRANCH  23  24
HETATM   24  C   UNL     1      -0.063   6.892 -28.656  1.00  0.00     0.139 C 
HETATM   25  O   UNL     1      -0.323   6.476 -27.296  1.00  0.00    -0.384 OA
HETATM   26  C   UNL     1       0.649   7.097 -26.447  1.00  0.00     0.168 C 
HETATM   27  C   UNL     1       1.063   8.366 -27.154  1.00  0.00     0.029 C 
HETATM   28  C   UNL     1       1.040   7.942 -28.601  1.00  0.00     0.035 C 
ENDBRANCH  23  24
ENDBRANCH  20  23
ENDBRANCH  17  19
ENDBRANCH   5  10
BRANCH   1  29
HETATM   29  C   UNL     1     -10.423   0.901 -33.328  1.00  0.00     0.273 C 
BRANCH  29  30
HETATM   30  C   UNL     1     -10.397   2.392 -33.528  1.00  0.00    -0.030 A 
HETATM   31  C   UNL     1      -9.838   3.246 -32.561  1.00  0.00     0.048 A 
HETATM   32  C   UNL     1      -9.865   4.644 -32.714  1.00  0.00     0.102 A 
HETATM   33  C   UNL     1     -10.455   5.191 -33.868  1.00  0.00     0.101 A 
HETATM   34  C   UNL     1     -11.000   4.333 -34.832  1.00  0.00     0.040 A 
HETATM   35  C   UNL     1     -10.975   2.950 -34.671  1.00  0.00     0.012 A 
BRANCH  32  36
HETATM   36  O   UNL     1      -9.360   5.505 -31.780  1.00  0.00    -0.353 OA
HETATM   37  C   UNL     1      -8.060   5.277 -31.254  1.00  0.00     0.210 C 
ENDBRANCH  32  36
BRANCH  33  38
HETATM   38  O   UNL     1     -10.606   6.505 -34.217  1.00  0.00    -0.353 OA
HETATM   39  C   UNL     1     -10.601   6.868 -35.589  1.00  0.00     0.210 C 
ENDBRANCH  33  38
ENDBRANCH  29  30
ENDBRANCH   1  29
TORSDOF 9
ENDMDL
