MODEL 1
REMARK VINA RESULT:      -8.9      0.000      0.000
REMARK  10 active torsions:
REMARK  status: ('A' for Active; 'I' for Inactive)
REMARK    1  A    between atoms: O_2  and  C_3 
REMARK    2  A    between atoms: C_6  and  C_7 
REMARK    3  A    between atoms: C_7  and  C_8 
REMARK    4  A    between atoms: C_8  and  N_9 
REMARK    5  A    between atoms: N_12  and  C_13 
REMARK    6  A    between atoms: C_16  and  O_17 
REMARK    7  A    between atoms: C_23  and  C_24 
REMARK    8  A    between atoms: C_24  and  C_25 
REMARK       I    between atoms: C_25  and  N_26 
REMARK    9  A    between atoms: N_26  and  C_27 
REMARK   10  A    between atoms: C_30  and  O_31 
ROOT
HETATM    1  N   UNL     1      -5.635   2.995 -32.305  1.00  0.00    -0.319 N 
HETATM    2  C   UNL     1      -4.367   3.227 -31.780  1.00  0.00     0.332 A 
HETATM    3  O   UNL     1      -3.733   2.371 -31.179  1.00  0.00    -0.246 OA
HETATM    4  N   UNL     1      -4.029   4.546 -32.016  1.00  0.00    -0.232 N 
HETATM    5  C   UNL     1      -5.077   5.174 -32.647  1.00  0.00     0.256 A 
HETATM    6  O   UNL     1      -5.195   6.356 -32.961  1.00  0.00    -0.270 OA
HETATM    7  C   UNL     1      -6.184   4.163 -32.954  1.00  0.00     0.190 A 
ENDROOT
BRANCH   7   8
HETATM    8  C   UNL     1      -7.510   4.667 -32.397  1.00  0.00     0.138 C 
BRANCH   8   9
HETATM    9  C   UNL     1      -8.644   4.297 -33.337  1.00  0.00     0.224 C 
HETATM   10  N   UNL     1      -9.580   3.459 -32.765  1.00  0.00    -0.327 N 
HETATM   11  H   UNL     1      -9.470   3.247 -31.772  1.00  0.00     0.169 HD
HETATM   12  O   UNL     1      -8.672   4.760 -34.473  1.00  0.00    -0.273 OA
BRANCH  10  13
HETATM   13  C   UNL     1     -10.746   2.928 -33.351  1.00  0.00     0.034 A 
HETATM   14  C   UNL     1     -11.791   3.696 -33.857  1.00  0.00     0.032 A 
HETATM   15  C   UNL     1     -12.911   3.072 -34.422  1.00  0.00     0.039 A 
HETATM   16  C   UNL     1     -13.003   1.680 -34.486  1.00  0.00     0.068 A 
HETATM   17  C   UNL     1     -11.957   0.910 -33.983  1.00  0.00     0.039 A 
HETATM   18  C   UNL     1     -10.837   1.532 -33.421  1.00  0.00     0.032 A 
BRANCH  16  19
HETATM   19  O   UNL     1     -14.150   1.204 -35.058  1.00  0.00    -0.356 OA
HETATM   20  C   UNL     1     -15.190   0.802 -34.175  1.00  0.00     0.210 C 
ENDBRANCH  16  19
ENDBRANCH  10  13
ENDBRANCH   8   9
ENDBRANCH   7   8
BRANCH   1  21
HETATM   21  C   UNL     1      -6.348   1.728 -32.163  1.00  0.00     0.133 C 
BRANCH  21  22
HETATM   22  C   UNL     1      -6.770   1.105 -33.496  1.00  0.00     0.058 C 
BRANCH  22  23
HETATM   23  C   UNL     1      -6.008  -0.167 -33.770  1.00  0.00    -0.057 A 
HETATM   24  C   UNL     1      -6.567  -1.171 -34.568  1.00  0.00     0.010 A 
HETATM   25  C   UNL     1      -5.873  -2.364 -34.787  1.00  0.00     0.037 A 
HETATM   26  C   UNL     1      -4.616  -2.573 -34.217  1.00  0.00     0.068 A 
HETATM   27  C   UNL     1      -4.057  -1.578 -33.416  1.00  0.00     0.037 A 
HETATM   28  C   UNL     1      -4.751  -0.383 -33.193  1.00  0.00     0.010 A 
BRANCH  26  29
HETATM   29  O   UNL     1      -4.048  -3.783 -34.511  1.00  0.00    -0.356 OA
HETATM   30  C   UNL     1      -3.566  -4.549 -33.415  1.00  0.00     0.210 C 
ENDBRANCH  26  29
ENDBRANCH  22  23
ENDBRANCH  21  22
ENDBRANCH   1  21
BRANCH   4  31
HETATM   31  C   UNL     1      -2.812   5.174 -31.604  1.00  0.00     0.047 A 
HETATM   32  C   UNL     1      -2.781   6.092 -30.546  1.00  0.00     0.033 A 
HETATM   33  C   UNL     1      -1.586   6.705 -30.143  1.00  0.00     0.039 A 
HETATM   34  C   UNL     1      -0.385   6.428 -30.789  1.00  0.00     0.068 A 
HETATM   35  C   UNL     1      -0.391   5.519 -31.840  1.00  0.00     0.039 A 
HETATM   36  C   UNL     1      -1.588   4.900 -32.236  1.00  0.00     0.033 A 
BRANCH  34  37
HETATM   37  O   UNL     1       0.703   7.096 -30.306  1.00  0.00    -0.356 OA
HETATM   38  C   UNL     1       0.631   7.555 -28.961  1.00  0.00     0.210 C 
ENDBRANCH  34  37
ENDBRANCH   4  31
TORSDOF 10
ENDMDL
MODEL 2
REMARK VINA RESULT:      -8.7      1.930      7.412
REMARK  10 active torsions:
REMARK  status: ('A' for Active; 'I' for Inactive)
REMARK    1  A    between atoms: O_2  and  C_3 
REMARK    2  A    between atoms: C_6  and  C_7 
REMARK    3  A    between atoms: C_7  and  C_8 
REMARK    4  A    between atoms: C_8  and  N_9 
REMARK    5  A    between atoms: N_12  and  C_13 
REMARK    6  A    between atoms: C_16  and  O_17 
REMARK    7  A    between atoms: C_23  and  C_24 
REMARK    8  A    between atoms: C_24  and  C_25 
REMARK       I    between atoms: C_25  and  N_26 
REMARK    9  A    between atoms: N_26  and  C_27 
REMARK   10  A    between atoms: C_30  and  O_31 
ROOT
HETATM    1  N   UNL     1      -9.110   3.486 -33.517  1.00  0.00    -0.319 N 
HETATM    2  C   UNL     1      -7.819   4.004 -33.481  1.00  0.00     0.332 A 
HETATM    3  O   UNL     1      -7.439   4.888 -34.236  1.00  0.00    -0.246 OA
HETATM    4  N   UNL     1      -7.098   3.319 -32.522  1.00  0.00    -0.232 N 
HETATM    5  C   UNL     1      -7.894   2.342 -31.972  1.00  0.00     0.256 A 
HETATM    6  O   UNL     1      -7.603   1.482 -31.143  1.00  0.00    -0.270 OA
HETATM    7  C   UNL     1      -9.311   2.440 -32.540  1.00  0.00     0.190 A 
ENDROOT
BRANCH   7   8
HETATM    8  C   UNL     1      -9.738   1.088 -33.097  1.00  0.00     0.138 C 
BRANCH   8   9
HETATM    9  C   UNL     1      -8.580   0.441 -33.838  1.00  0.00     0.224 C 
HETATM   10  N   UNL     1      -7.938  -0.536 -33.106  1.00  0.00    -0.327 N 
HETATM   11  H   UNL     1      -8.344  -0.783 -32.202  1.00  0.00     0.169 HD
HETATM   12  O   UNL     1      -8.320   0.789 -34.985  1.00  0.00    -0.273 OA
BRANCH  10  13
HETATM   13  C   UNL     1      -6.836  -1.326 -33.489  1.00  0.00     0.034 A 
HETATM   14  C   UNL     1      -5.517  -1.061 -33.132  1.00  0.00     0.032 A 
HETATM   15  C   UNL     1      -4.488  -1.909 -33.563  1.00  0.00     0.039 A 
HETATM   16  C   UNL     1      -4.761  -3.026 -34.354  1.00  0.00     0.068 A 
HETATM   17  C   UNL     1      -6.081  -3.296 -34.710  1.00  0.00     0.039 A 
HETATM   18  C   UNL     1      -7.110  -2.451 -34.278  1.00  0.00     0.032 A 
BRANCH  16  19
HETATM   19  O   UNL     1      -3.667  -3.765 -34.707  1.00  0.00    -0.356 OA
HETATM   20  C   UNL     1      -3.352  -4.881 -33.884  1.00  0.00     0.210 C 
ENDBRANCH  16  19
ENDBRANCH  10  13
ENDBRANCH   8   9
ENDBRANCH   7   8
BRANCH   1  21
HETATM   21  C   UNL     1     -10.127   3.916 -34.474  1.00  0.00     0.133 C 
BRANCH  21  22
HETATM   22  C   UNL     1     -11.195   4.830 -33.870  1.00  0.00     0.058 C 
BRANCH  22  23
HETATM   23  C   UNL     1     -12.404   4.041 -33.434  1.00  0.00    -0.057 A 
HETATM   24  C   UNL     1     -13.109   4.403 -32.280  1.00  0.00     0.010 A 
HETATM   25  C   UNL     1     -14.205   3.646 -31.860  1.00  0.00     0.037 A 
HETATM   26  C   UNL     1     -14.616   2.522 -32.579  1.00  0.00     0.068 A 
HETATM   27  C   UNL     1     -13.914   2.154 -33.726  1.00  0.00     0.037 A 
HETATM   28  C   UNL     1     -12.813   2.909 -34.149  1.00  0.00     0.010 A 
BRANCH  26  29
HETATM   29  O   UNL     1     -15.701   1.873 -32.057  1.00  0.00    -0.356 OA
HETATM   30  C   UNL     1     -16.928   2.591 -32.032  1.00  0.00     0.210 C 
ENDBRANCH  26  29
ENDBRANCH  22  23
ENDBRANCH  21  22
ENDBRANCH   1  21
BRANCH   4  31
HETATM   31  C   UNL     1      -5.722   3.543 -32.206  1.00  0.00     0.047 A 
HETATM   32  C   UNL     1      -4.717   2.664 -32.633  1.00  0.00     0.033 A 
HETATM   33  C   UNL     1      -3.367   2.887 -32.323  1.00  0.00     0.039 A 
HETATM   34  C   UNL     1      -2.979   3.990 -31.568  1.00  0.00     0.068 A 
HETATM   35  C   UNL     1      -3.958   4.876 -31.135  1.00  0.00     0.039 A 
HETATM   36  C   UNL     1      -5.307   4.655 -31.454  1.00  0.00     0.033 A 
BRANCH  34  37
HETATM   37  O   UNL     1      -1.639   4.088 -31.330  1.00  0.00    -0.356 OA
HETATM   38  C   UNL     1      -0.966   5.209 -31.889  1.00  0.00     0.210 C 
ENDBRANCH  34  37
ENDBRANCH   4  31
TORSDOF 10
ENDMDL
MODEL 3
REMARK VINA RESULT:      -8.6      1.746      9.034
REMARK  10 active torsions:
REMARK  status: ('A' for Active; 'I' for Inactive)
REMARK    1  A    between atoms: O_2  and  C_3 
REMARK    2  A    between atoms: C_6  and  C_7 
REMARK    3  A    between atoms: C_7  and  C_8 
REMARK    4  A    between atoms: C_8  and  N_9 
REMARK    5  A    between atoms: N_12  and  C_13 
REMARK    6  A    between atoms: C_16  and  O_17 
REMARK    7  A    between atoms: C_23  and  C_24 
REMARK    8  A    between atoms: C_24  and  C_25 
REMARK       I    between atoms: C_25  and  N_26 
REMARK    9  A    between atoms: N_26  and  C_27 
REMARK   10  A    between atoms: C_30  and  O_31 
ROOT
HETATM    1  N   UNL     1      -8.773   1.983 -32.924  1.00  0.00    -0.319 N 
HETATM    2  C   UNL     1     -10.046   1.422 -32.942  1.00  0.00     0.332 A 
HETATM    3  O   UNL     1     -10.237   0.214 -32.958  1.00  0.00    -0.246 OA
HETATM    4  N   UNL     1     -10.975   2.444 -32.992  1.00  0.00    -0.232 N 
HETATM    5  C   UNL     1     -10.316   3.650 -33.048  1.00  0.00     0.256 A 
HETATM    6  O   UNL     1     -10.781   4.781 -33.173  1.00  0.00    -0.270 OA
HETATM    7  C   UNL     1      -8.807   3.428 -32.926  1.00  0.00     0.190 A 
ENDROOT
BRANCH   7   8
HETATM    8  C   UNL     1      -8.091   4.105 -34.087  1.00  0.00     0.138 C 
BRANCH   8   9
HETATM    9  C   UNL     1      -6.823   4.782 -33.594  1.00  0.00     0.224 C 
HETATM   10  N   UNL     1      -5.699   3.989 -33.703  1.00  0.00    -0.327 N 
HETATM   11  H   UNL     1      -5.810   3.087 -34.170  1.00  0.00     0.169 HD
HETATM   12  O   UNL     1      -6.870   5.935 -33.178  1.00  0.00    -0.273 OA
BRANCH  10  13
HETATM   13  C   UNL     1      -4.374   4.303 -33.341  1.00  0.00     0.034 A 
HETATM   14  C   UNL     1      -3.764   3.894 -32.159  1.00  0.00     0.032 A 
HETATM   15  C   UNL     1      -2.438   4.259 -31.890  1.00  0.00     0.039 A 
HETATM   16  C   UNL     1      -1.709   5.036 -32.792  1.00  0.00     0.068 A 
HETATM   17  C   UNL     1      -2.316   5.444 -33.977  1.00  0.00     0.039 A 
HETATM   18  C   UNL     1      -3.640   5.078 -34.249  1.00  0.00     0.032 A 
BRANCH  16  19
HETATM   19  O   UNL     1      -0.430   5.322 -32.404  1.00  0.00    -0.356 OA
HETATM   20  C   UNL     1      -0.212   6.585 -31.788  1.00  0.00     0.210 C 
ENDBRANCH  16  19
ENDBRANCH  10  13
ENDBRANCH   8   9
ENDBRANCH   7   8
BRANCH   1  21
HETATM   21  C   UNL     1      -7.543   1.195 -32.957  1.00  0.00     0.133 C 
BRANCH  21  22
HETATM   22  C   UNL     1      -7.159   0.710 -34.357  1.00  0.00     0.058 C 
BRANCH  22  23
HETATM   23  C   UNL     1      -6.442  -0.615 -34.298  1.00  0.00    -0.057 A 
HETATM   24  C   UNL     1      -5.163  -0.706 -33.736  1.00  0.00     0.010 A 
HETATM   25  C   UNL     1      -4.488  -1.929 -33.717  1.00  0.00     0.037 A 
HETATM   26  C   UNL     1      -5.074  -3.076 -34.254  1.00  0.00     0.068 A 
HETATM   27  C   UNL     1      -6.346  -2.990 -34.820  1.00  0.00     0.037 A 
HETATM   28  C   UNL     1      -7.024  -1.766 -34.843  1.00  0.00     0.010 A 
BRANCH  26  29
HETATM   29  O   UNL     1      -4.305  -4.204 -34.171  1.00  0.00    -0.356 OA
HETATM   30  C   UNL     1      -3.333  -4.243 -33.134  1.00  0.00     0.210 C 
ENDBRANCH  26  29
ENDBRANCH  22  23
ENDBRANCH  21  22
ENDBRANCH   1  21
BRANCH   4  31
HETATM   31  C   UNL     1     -12.393   2.271 -33.050  1.00  0.00     0.047 A 
HETATM   32  C   UNL     1     -13.248   2.896 -32.132  1.00  0.00     0.033 A 
HETATM   33  C   UNL     1     -14.639   2.725 -32.192  1.00  0.00     0.039 A 
HETATM   34  C   UNL     1     -15.220   1.918 -33.164  1.00  0.00     0.068 A 
HETATM   35  C   UNL     1     -14.392   1.289 -34.087  1.00  0.00     0.039 A 
HETATM   36  C   UNL     1     -13.001   1.468 -34.030  1.00  0.00     0.033 A 
BRANCH  34  37
HETATM   37  O   UNL     1     -16.581   1.829 -33.109  1.00  0.00    -0.356 OA
HETATM   38  C   UNL     1     -17.240   2.644 -32.147  1.00  0.00     0.210 C 
ENDBRANCH  34  37
ENDBRANCH   4  31
TORSDOF 10
ENDMDL
MODEL 4
REMARK VINA RESULT:      -8.5      1.378      9.014
REMARK  10 active torsions:
REMARK  status: ('A' for Active; 'I' for Inactive)
REMARK    1  A    between atoms: O_2  and  C_3 
REMARK    2  A    between atoms: C_6  and  C_7 
REMARK    3  A    between atoms: C_7  and  C_8 
REMARK    4  A    between atoms: C_8  and  N_9 
REMARK    5  A    between atoms: N_12  and  C_13 
REMARK    6  A    between atoms: C_16  and  O_17 
REMARK    7  A    between atoms: C_23  and  C_24 
REMARK    8  A    between atoms: C_24  and  C_25 
REMARK       I    between atoms: C_25  and  N_26 
REMARK    9  A    between atoms: N_26  and  C_27 
REMARK   10  A    between atoms: C_30  and  O_31 
ROOT
HETATM    1  N   UNL     1      -6.835   2.396 -33.542  1.00  0.00    -0.319 N 
HETATM    2  C   UNL     1      -7.985   1.722 -33.940  1.00  0.00     0.332 A 
HETATM    3  O   UNL     1      -7.962   0.585 -34.392  1.00  0.00    -0.246 OA
HETATM    4  N   UNL     1      -9.068   2.565 -33.779  1.00  0.00    -0.232 N 
HETATM    5  C   UNL     1      -8.624   3.785 -33.324  1.00  0.00     0.256 A 
HETATM    6  O   UNL     1      -9.263   4.816 -33.126  1.00  0.00    -0.270 OA
HETATM    7  C   UNL     1      -7.118   3.729 -33.059  1.00  0.00     0.190 A 
ENDROOT
BRANCH   7   8
HETATM    8  C   UNL     1      -6.422   4.863 -33.801  1.00  0.00     0.138 C 
BRANCH   8   9
HETATM    9  C   UNL     1      -5.372   5.503 -32.909  1.00  0.00     0.224 C 
HETATM   10  N   UNL     1      -4.081   5.141 -33.233  1.00  0.00    -0.327 N 
HETATM   11  H   UNL     1      -3.955   4.567 -34.068  1.00  0.00     0.169 HD
HETATM   12  O   UNL     1      -5.716   6.279 -32.022  1.00  0.00    -0.273 OA
BRANCH  10  13
HETATM   13  C   UNL     1      -2.882   5.547 -32.614  1.00  0.00     0.034 A 
HETATM   14  C   UNL     1      -2.101   4.730 -31.802  1.00  0.00     0.032 A 
HETATM   15  C   UNL     1      -0.922   5.228 -31.231  1.00  0.00     0.039 A 
HETATM   16  C   UNL     1      -0.511   6.543 -31.461  1.00  0.00     0.068 A 
HETATM   17  C   UNL     1      -1.289   7.361 -32.277  1.00  0.00     0.039 A 
HETATM   18  C   UNL     1      -2.466   6.864 -32.849  1.00  0.00     0.032 A 
BRANCH  16  19
HETATM   19  O   UNL     1       0.654   6.899 -30.842  1.00  0.00    -0.356 OA
HETATM   20  C   UNL     1       0.563   7.288 -29.477  1.00  0.00     0.210 C 
ENDBRANCH  16  19
ENDBRANCH  10  13
ENDBRANCH   8   9
ENDBRANCH   7   8
BRANCH   1  21
HETATM   21  C   UNL     1      -5.490   1.837 -33.656  1.00  0.00     0.133 C 
BRANCH  21  22
HETATM   22  C   UNL     1      -4.972   1.208 -32.360  1.00  0.00     0.058 C 
BRANCH  22  23
HETATM   23  C   UNL     1      -4.569  -0.229 -32.575  1.00  0.00    -0.057 A 
HETATM   24  C   UNL     1      -3.658  -0.847 -31.711  1.00  0.00     0.010 A 
HETATM   25  C   UNL     1      -3.259  -2.167 -31.938  1.00  0.00     0.037 A 
HETATM   26  C   UNL     1      -3.761  -2.889 -33.022  1.00  0.00     0.068 A 
HETATM   27  C   UNL     1      -4.664  -2.276 -33.889  1.00  0.00     0.037 A 
HETATM   28  C   UNL     1      -5.065  -0.953 -33.666  1.00  0.00     0.010 A 
BRANCH  26  29
HETATM   29  O   UNL     1      -3.287  -4.168 -33.126  1.00  0.00    -0.356 OA
HETATM   30  C   UNL     1      -4.115  -5.106 -33.801  1.00  0.00     0.210 C 
ENDBRANCH  26  29
ENDBRANCH  22  23
ENDBRANCH  21  22
ENDBRANCH   1  21
BRANCH   4  31
HETATM   31  C   UNL     1     -10.422   2.244 -34.103  1.00  0.00     0.047 A 
HETATM   32  C   UNL     1     -11.102   1.198 -33.465  1.00  0.00     0.033 A 
HETATM   33  C   UNL     1     -12.432   0.886 -33.785  1.00  0.00     0.039 A 
HETATM   34  C   UNL     1     -13.122   1.602 -34.757  1.00  0.00     0.068 A 
HETATM   35  C   UNL     1     -12.469   2.646 -35.402  1.00  0.00     0.039 A 
HETATM   36  C   UNL     1     -11.140   2.961 -35.075  1.00  0.00     0.033 A 
BRANCH  34  37
HETATM   37  O   UNL     1     -14.405   1.194 -34.979  1.00  0.00    -0.356 OA
HETATM   38  C   UNL     1     -15.218   0.977 -33.832  1.00  0.00     0.210 C 
ENDBRANCH  34  37
ENDBRANCH   4  31
TORSDOF 10
ENDMDL
MODEL 5
REMARK VINA RESULT:      -8.4      1.271      8.798
REMARK  10 active torsions:
REMARK  status: ('A' for Active; 'I' for Inactive)
REMARK    1  A    between atoms: O_2  and  C_3 
REMARK    2  A    between atoms: C_6  and  C_7 
REMARK    3  A    between atoms: C_7  and  C_8 
REMARK    4  A    between atoms: C_8  and  N_9 
REMARK    5  A    between atoms: N_12  and  C_13 
REMARK    6  A    between atoms: C_16  and  O_17 
REMARK    7  A    between atoms: C_23  and  C_24 
REMARK    8  A    between atoms: C_24  and  C_25 
REMARK       I    between atoms: C_25  and  N_26 
REMARK    9  A    between atoms: N_26  and  C_27 
REMARK   10  A    between atoms: C_30  and  O_31 
ROOT
HETATM    1  N   UNL     1      -6.775   2.234 -32.266  1.00  0.00    -0.319 N 
HETATM    2  C   UNL     1      -8.059   1.707 -32.362  1.00  0.00     0.332 A 
HETATM    3  O   UNL     1      -8.341   0.579 -31.981  1.00  0.00    -0.246 OA
HETATM    4  N   UNL     1      -8.870   2.637 -32.983  1.00  0.00    -0.232 N 
HETATM    5  C   UNL     1      -8.117   3.735 -33.324  1.00  0.00     0.256 A 
HETATM    6  O   UNL     1      -8.452   4.739 -33.949  1.00  0.00    -0.270 OA
HETATM    7  C   UNL     1      -6.689   3.575 -32.798  1.00  0.00     0.190 A 
ENDROOT
BRANCH   7   8
HETATM    8  C   UNL     1      -5.695   3.773 -33.936  1.00  0.00     0.138 C 
BRANCH   8   9
HETATM    9  C   UNL     1      -4.633   4.780 -33.530  1.00  0.00     0.224 C 
HETATM   10  N   UNL     1      -4.025   4.483 -32.328  1.00  0.00    -0.327 N 
HETATM   11  H   UNL     1      -4.277   3.598 -31.885  1.00  0.00     0.169 HD
HETATM   12  O   UNL     1      -4.377   5.727 -34.267  1.00  0.00    -0.273 OA
BRANCH  10  13
HETATM   13  C   UNL     1      -3.009   5.200 -31.666  1.00  0.00     0.034 A 
HETATM   14  C   UNL     1      -1.646   4.986 -31.853  1.00  0.00     0.032 A 
HETATM   15  C   UNL     1      -0.711   5.753 -31.146  1.00  0.00     0.039 A 
HETATM   16  C   UNL     1      -1.122   6.737 -30.245  1.00  0.00     0.068 A 
HETATM   17  C   UNL     1      -2.485   6.955 -30.058  1.00  0.00     0.039 A 
HETATM   18  C   UNL     1      -3.420   6.191 -30.766  1.00  0.00     0.032 A 
BRANCH  16  19
HETATM   19  O   UNL     1      -0.108   7.408 -29.621  1.00  0.00    -0.356 OA
HETATM   20  C   UNL     1       0.556   6.729 -28.561  1.00  0.00     0.210 C 
ENDBRANCH  16  19
ENDBRANCH  10  13
ENDBRANCH   8   9
ENDBRANCH   7   8
BRANCH   1  21
HETATM   21  C   UNL     1      -5.633   1.490 -31.737  1.00  0.00     0.133 C 
BRANCH  21  22
HETATM   22  C   UNL     1      -4.611   1.090 -32.804  1.00  0.00     0.058 C 
BRANCH  22  23
HETATM   23  C   UNL     1      -4.911  -0.281 -33.358  1.00  0.00    -0.057 A 
HETATM   24  C   UNL     1      -4.081  -1.366 -33.053  1.00  0.00     0.010 A 
HETATM   25  C   UNL     1      -4.341  -2.625 -33.600  1.00  0.00     0.037 A 
HETATM   26  C   UNL     1      -5.427  -2.823 -34.454  1.00  0.00     0.068 A 
HETATM   27  C   UNL     1      -6.253  -1.743 -34.766  1.00  0.00     0.037 A 
HETATM   28  C   UNL     1      -5.994  -0.479 -34.222  1.00  0.00     0.010 A 
BRANCH  26  29
HETATM   29  O   UNL     1      -5.565  -4.102 -34.918  1.00  0.00    -0.356 OA
HETATM   30  C   UNL     1      -4.750  -5.096 -34.311  1.00  0.00     0.210 C 
ENDBRANCH  26  29
ENDBRANCH  22  23
ENDBRANCH  21  22
ENDBRANCH   1  21
BRANCH   4  31
HETATM   31  C   UNL     1     -10.255   2.454 -33.287  1.00  0.00     0.047 A 
HETATM   32  C   UNL     1     -11.260   3.105 -32.558  1.00  0.00     0.033 A 
HETATM   33  C   UNL     1     -12.618   2.925 -32.860  1.00  0.00     0.039 A 
HETATM   34  C   UNL     1     -13.016   2.082 -33.892  1.00  0.00     0.068 A 
HETATM   35  C   UNL     1     -12.038   1.427 -34.630  1.00  0.00     0.039 A 
HETATM   36  C   UNL     1     -10.679   1.616 -34.332  1.00  0.00     0.033 A 
BRANCH  34  37
HETATM   37  O   UNL     1     -14.365   1.988 -34.078  1.00  0.00    -0.356 OA
HETATM   38  C   UNL     1     -14.903   0.681 -34.235  1.00  0.00     0.210 C 
ENDBRANCH  34  37
ENDBRANCH   4  31
TORSDOF 10
ENDMDL
MODEL 6
REMARK VINA RESULT:      -8.3      1.538      6.517
REMARK  10 active torsions:
REMARK  status: ('A' for Active; 'I' for Inactive)
REMARK    1  A    between atoms: O_2  and  C_3 
REMARK    2  A    between atoms: C_6  and  C_7 
REMARK    3  A    between atoms: C_7  and  C_8 
REMARK    4  A    between atoms: C_8  and  N_9 
REMARK    5  A    between atoms: N_12  and  C_13 
REMARK    6  A    between atoms: C_16  and  O_17 
REMARK    7  A    between atoms: C_23  and  C_24 
REMARK    8  A    between atoms: C_24  and  C_25 
REMARK       I    between atoms: C_25  and  N_26 
REMARK    9  A    between atoms: N_26  and  C_27 
REMARK   10  A    between atoms: C_30  and  O_31 
ROOT
HETATM    1  N   UNL     1      -8.311   4.458 -33.149  1.00  0.00    -0.319 N 
HETATM    2  C   UNL     1      -6.959   4.754 -33.292  1.00  0.00     0.332 A 
HETATM    3  O   UNL     1      -6.510   5.345 -34.264  1.00  0.00    -0.246 OA
HETATM    4  N   UNL     1      -6.278   4.227 -32.211  1.00  0.00    -0.232 N 
HETATM    5  C   UNL     1      -7.167   3.562 -31.399  1.00  0.00     0.256 A 
HETATM    6  O   UNL     1      -6.945   2.904 -30.385  1.00  0.00    -0.270 OA
HETATM    7  C   UNL     1      -8.592   3.740 -31.927  1.00  0.00     0.190 A 
ENDROOT
BRANCH   7   8
HETATM    8  C   UNL     1      -9.252   2.377 -32.097  1.00  0.00     0.138 C 
BRANCH   8   9
HETATM    9  C   UNL     1      -8.444   1.524 -33.059  1.00  0.00     0.224 C 
HETATM   10  N   UNL     1      -7.671   0.569 -32.430  1.00  0.00    -0.327 N 
HETATM   11  H   UNL     1      -7.781   0.474 -31.420  1.00  0.00     0.169 HD
HETATM   12  O   UNL     1      -8.542   1.708 -34.269  1.00  0.00    -0.273 OA
BRANCH  10  13
HETATM   13  C   UNL     1      -6.810  -0.379 -33.018  1.00  0.00     0.034 A 
HETATM   14  C   UNL     1      -7.215  -1.347 -33.932  1.00  0.00     0.032 A 
HETATM   15  C   UNL     1      -6.280  -2.248 -34.462  1.00  0.00     0.039 A 
HETATM   16  C   UNL     1      -4.937  -2.194 -34.085  1.00  0.00     0.068 A 
HETATM   17  C   UNL     1      -4.529  -1.224 -33.173  1.00  0.00     0.039 A 
HETATM   18  C   UNL     1      -5.461  -0.322 -32.645  1.00  0.00     0.032 A 
BRANCH  16  19
HETATM   19  O   UNL     1      -4.135  -3.132 -34.674  1.00  0.00    -0.356 OA
HETATM   20  C   UNL     1      -3.850  -4.301 -33.916  1.00  0.00     0.210 C 
ENDBRANCH  16  19
ENDBRANCH  10  13
ENDBRANCH   8   9
ENDBRANCH   7   8
BRANCH   1  21
HETATM   21  C   UNL     1      -9.320   4.789 -34.152  1.00  0.00     0.133 C 
BRANCH  21  22
HETATM   22  C   UNL     1     -10.710   5.050 -33.566  1.00  0.00     0.058 C 
BRANCH  22  23
HETATM   23  C   UNL     1     -11.660   3.926 -33.896  1.00  0.00    -0.057 A 
HETATM   24  C   UNL     1     -11.588   3.277 -35.134  1.00  0.00     0.010 A 
HETATM   25  C   UNL     1     -12.495   2.263 -35.450  1.00  0.00     0.037 A 
HETATM   26  C   UNL     1     -13.484   1.880 -34.542  1.00  0.00     0.068 A 
HETATM   27  C   UNL     1     -13.564   2.528 -33.310  1.00  0.00     0.037 A 
HETATM   28  C   UNL     1     -12.658   3.547 -32.990  1.00  0.00     0.010 A 
BRANCH  26  29
HETATM   29  O   UNL     1     -14.305   0.877 -34.978  1.00  0.00    -0.356 OA
HETATM   30  C   UNL     1     -15.555   0.736 -34.316  1.00  0.00     0.210 C 
ENDBRANCH  26  29
ENDBRANCH  22  23
ENDBRANCH  21  22
ENDBRANCH   1  21
BRANCH   4  31
HETATM   31  C   UNL     1      -4.864   4.299 -32.009  1.00  0.00     0.047 A 
HETATM   32  C   UNL     1      -4.277   5.355 -31.299  1.00  0.00     0.033 A 
HETATM   33  C   UNL     1      -2.890   5.423 -31.101  1.00  0.00     0.039 A 
HETATM   34  C   UNL     1      -2.045   4.443 -31.613  1.00  0.00     0.068 A 
HETATM   35  C   UNL     1      -2.605   3.386 -32.319  1.00  0.00     0.039 A 
HETATM   36  C   UNL     1      -3.994   3.316 -32.509  1.00  0.00     0.033 A 
BRANCH  34  37
HETATM   37  O   UNL     1      -0.717   4.630 -31.357  1.00  0.00    -0.356 OA
HETATM   38  C   UNL     1      -0.321   5.927 -30.927  1.00  0.00     0.210 C 
ENDBRANCH  34  37
ENDBRANCH   4  31
TORSDOF 10
ENDMDL
MODEL 7
REMARK VINA RESULT:      -8.3      1.913      6.663
REMARK  10 active torsions:
REMARK  status: ('A' for Active; 'I' for Inactive)
REMARK    1  A    between atoms: O_2  and  C_3 
REMARK    2  A    between atoms: C_6  and  C_7 
REMARK    3  A    between atoms: C_7  and  C_8 
REMARK    4  A    between atoms: C_8  and  N_9 
REMARK    5  A    between atoms: N_12  and  C_13 
REMARK    6  A    between atoms: C_16  and  O_17 
REMARK    7  A    between atoms: C_23  and  C_24 
REMARK    8  A    between atoms: C_24  and  C_25 
REMARK       I    between atoms: C_25  and  N_26 
REMARK    9  A    between atoms: N_26  and  C_27 
REMARK   10  A    between atoms: C_30  and  O_31 
ROOT
HETATM    1  N   UNL     1      -6.529   2.968 -32.853  1.00  0.00    -0.319 N 
HETATM    2  C   UNL     1      -5.496   2.040 -32.769  1.00  0.00     0.332 A 
HETATM    3  O   UNL     1      -4.321   2.366 -32.670  1.00  0.00    -0.246 OA
HETATM    4  N   UNL     1      -6.035   0.772 -32.871  1.00  0.00    -0.232 N 
HETATM    5  C   UNL     1      -7.393   0.874 -33.060  1.00  0.00     0.256 A 
HETATM    6  O   UNL     1      -8.215  -0.017 -33.265  1.00  0.00    -0.270 OA
HETATM    7  C   UNL     1      -7.825   2.339 -32.980  1.00  0.00     0.190 A 
ENDROOT
BRANCH   7   8
HETATM    8  C   UNL     1      -8.620   2.711 -34.225  1.00  0.00     0.138 C 
BRANCH   8   9
HETATM    9  C   UNL     1     -10.057   3.030 -33.849  1.00  0.00     0.224 C 
HETATM   10  N   UNL     1     -10.910   1.952 -33.974  1.00  0.00    -0.327 N 
HETATM   11  H   UNL     1     -10.490   1.053 -34.215  1.00  0.00     0.169 HD
HETATM   12  O   UNL     1     -10.350   4.155 -33.455  1.00  0.00    -0.273 OA
BRANCH  10  13
HETATM   13  C   UNL     1     -12.293   1.902 -33.711  1.00  0.00     0.034 A 
HETATM   14  C   UNL     1     -12.930   2.632 -32.711  1.00  0.00     0.032 A 
HETATM   15  C   UNL     1     -14.314   2.512 -32.527  1.00  0.00     0.039 A 
HETATM   16  C   UNL     1     -15.076   1.666 -33.335  1.00  0.00     0.068 A 
HETATM   17  C   UNL     1     -14.442   0.937 -34.338  1.00  0.00     0.039 A 
HETATM   18  C   UNL     1     -13.060   1.057 -34.524  1.00  0.00     0.032 A 
BRANCH  16  19
HETATM   19  O   UNL     1     -16.412   1.642 -33.046  1.00  0.00    -0.356 OA
HETATM   20  C   UNL     1     -16.900   2.657 -32.176  1.00  0.00     0.210 C 
ENDBRANCH  16  19
ENDBRANCH  10  13
ENDBRANCH   8   9
ENDBRANCH   7   8
BRANCH   1  21
HETATM   21  C   UNL     1      -6.319   4.414 -32.867  1.00  0.00     0.133 C 
BRANCH  21  22
HETATM   22  C   UNL     1      -5.648   4.927 -34.143  1.00  0.00     0.058 C 
BRANCH  22  23
HETATM   23  C   UNL     1      -4.263   5.453 -33.858  1.00  0.00    -0.057 A 
HETATM   24  C   UNL     1      -3.961   6.017 -32.613  1.00  0.00     0.010 A 
HETATM   25  C   UNL     1      -2.688   6.538 -32.368  1.00  0.00     0.037 A 
HETATM   26  C   UNL     1      -1.700   6.502 -33.353  1.00  0.00     0.068 A 
HETATM   27  C   UNL     1      -1.997   5.946 -34.596  1.00  0.00     0.037 A 
HETATM   28  C   UNL     1      -3.273   5.426 -34.847  1.00  0.00     0.010 A 
BRANCH  26  29
HETATM   29  O   UNL     1      -0.501   7.045 -32.980  1.00  0.00    -0.356 OA
HETATM   30  C   UNL     1      -0.130   6.907 -31.614  1.00  0.00     0.210 C 
ENDBRANCH  26  29
ENDBRANCH  22  23
ENDBRANCH  21  22
ENDBRANCH   1  21
BRANCH   4  31
HETATM   31  C   UNL     1      -5.288  -0.447 -32.855  1.00  0.00     0.047 A 
HETATM   32  C   UNL     1      -5.373  -1.375 -33.902  1.00  0.00     0.033 A 
HETATM   33  C   UNL     1      -4.638  -2.569 -33.884  1.00  0.00     0.039 A 
HETATM   34  C   UNL     1      -3.803  -2.880 -32.816  1.00  0.00     0.068 A 
HETATM   35  C   UNL     1      -3.701  -1.975 -31.767  1.00  0.00     0.039 A 
HETATM   36  C   UNL     1      -4.431  -0.775 -31.791  1.00  0.00     0.033 A 
BRANCH  34  37
HETATM   37  O   UNL     1      -3.150  -4.075 -32.917  1.00  0.00    -0.356 OA
HETATM   38  C   UNL     1      -3.449  -4.876 -34.054  1.00  0.00     0.210 C 
ENDBRANCH  34  37
ENDBRANCH   4  31
TORSDOF 10
ENDMDL
MODEL 8
REMARK VINA RESULT:      -8.2      1.953      9.351
REMARK  10 active torsions:
REMARK  status: ('A' for Active; 'I' for Inactive)
REMARK    1  A    between atoms: O_2  and  C_3 
REMARK    2  A    between atoms: C_6  and  C_7 
REMARK    3  A    between atoms: C_7  and  C_8 
REMARK    4  A    between atoms: C_8  and  N_9 
REMARK    5  A    between atoms: N_12  and  C_13 
REMARK    6  A    between atoms: C_16  and  O_17 
REMARK    7  A    between atoms: C_23  and  C_24 
REMARK    8  A    between atoms: C_24  and  C_25 
REMARK       I    between atoms: C_25  and  N_26 
REMARK    9  A    between atoms: N_26  and  C_27 
REMARK   10  A    between atoms: C_30  and  O_31 
ROOT
HETATM    1  N   UNL     1      -8.894   3.714 -33.112  1.00  0.00    -0.319 N 
HETATM    2  C   UNL     1     -10.267   3.885 -33.266  1.00  0.00     0.332 A 
HETATM    3  O   UNL     1     -10.776   4.975 -33.490  1.00  0.00    -0.246 OA
HETATM    4  N   UNL     1     -10.887   2.666 -33.070  1.00  0.00    -0.232 N 
HETATM    5  C   UNL     1      -9.936   1.724 -32.752  1.00  0.00     0.256 A 
HETATM    6  O   UNL     1     -10.091   0.545 -32.438  1.00  0.00    -0.270 OA
HETATM    7  C   UNL     1      -8.539   2.340 -32.838  1.00  0.00     0.190 A 
ENDROOT
BRANCH   7   8
HETATM    8  C   UNL     1      -7.789   2.099 -31.534  1.00  0.00     0.138 C 
BRANCH   8   9
HETATM    9  C   UNL     1      -7.029   0.785 -31.605  1.00  0.00     0.224 C 
HETATM   10  N   UNL     1      -6.683   0.420 -32.890  1.00  0.00    -0.327 N 
HETATM   11  H   UNL     1      -6.887   1.088 -33.634  1.00  0.00     0.169 HD
HETATM   12  O   UNL     1      -6.762   0.177 -30.573  1.00  0.00    -0.273 OA
BRANCH  10  13
HETATM   13  C   UNL     1      -5.982  -0.728 -33.309  1.00  0.00     0.034 A 
HETATM   14  C   UNL     1      -4.653  -0.996 -32.993  1.00  0.00     0.032 A 
HETATM   15  C   UNL     1      -4.043  -2.169 -33.460  1.00  0.00     0.039 A 
HETATM   16  C   UNL     1      -4.748  -3.083 -34.244  1.00  0.00     0.068 A 
HETATM   17  C   UNL     1      -6.079  -2.819 -34.559  1.00  0.00     0.039 A 
HETATM   18  C   UNL     1      -6.690  -1.649 -34.092  1.00  0.00     0.032 A 
BRANCH  16  19
HETATM   19  O   UNL     1      -4.033  -4.181 -34.634  1.00  0.00    -0.356 OA
HETATM   20  C   UNL     1      -3.504  -5.003 -33.600  1.00  0.00     0.210 C 
ENDBRANCH  16  19
ENDBRANCH  10  13
ENDBRANCH   8   9
ENDBRANCH   7   8
BRANCH   1  21
HETATM   21  C   UNL     1      -7.931   4.811 -33.167  1.00  0.00     0.133 C 
BRANCH  21  22
HETATM   22  C   UNL     1      -6.685   4.497 -33.999  1.00  0.00     0.058 C 
BRANCH  22  23
HETATM   23  C   UNL     1      -5.425   4.767 -33.216  1.00  0.00    -0.057 A 
HETATM   24  C   UNL     1      -4.196   4.901 -33.873  1.00  0.00     0.010 A 
HETATM   25  C   UNL     1      -3.026   5.113 -33.140  1.00  0.00     0.037 A 
HETATM   26  C   UNL     1      -3.061   5.197 -31.747  1.00  0.00     0.068 A 
HETATM   27  C   UNL     1      -4.282   5.058 -31.087  1.00  0.00     0.037 A 
HETATM   28  C   UNL     1      -5.456   4.843 -31.818  1.00  0.00     0.010 A 
BRANCH  26  29
HETATM   29  O   UNL     1      -1.846   5.406 -31.155  1.00  0.00    -0.356 OA
HETATM   30  C   UNL     1      -0.694   5.183 -31.958  1.00  0.00     0.210 C 
ENDBRANCH  26  29
ENDBRANCH  22  23
ENDBRANCH  21  22
ENDBRANCH   1  21
BRANCH   4  31
HETATM   31  C   UNL     1     -12.297   2.438 -33.118  1.00  0.00     0.047 A 
HETATM   32  C   UNL     1     -13.186   3.158 -32.308  1.00  0.00     0.033 A 
HETATM   33  C   UNL     1     -14.569   2.933 -32.359  1.00  0.00     0.039 A 
HETATM   34  C   UNL     1     -15.109   1.978 -33.214  1.00  0.00     0.068 A 
HETATM   35  C   UNL     1     -14.247   1.253 -34.029  1.00  0.00     0.039 A 
HETATM   36  C   UNL     1     -12.863   1.486 -33.982  1.00  0.00     0.033 A 
BRANCH  34  37
HETATM   37  O   UNL     1     -16.467   1.852 -33.163  1.00  0.00    -0.356 OA
HETATM   38  C   UNL     1     -17.147   2.619 -32.176  1.00  0.00     0.210 C 
ENDBRANCH  34  37
ENDBRANCH   4  31
TORSDOF 10
ENDMDL
MODEL 9
REMARK VINA RESULT:      -8.2      0.999      1.656
REMARK  10 active torsions:
REMARK  status: ('A' for Active; 'I' for Inactive)
REMARK    1  A    between atoms: O_2  and  C_3 
REMARK    2  A    between atoms: C_6  and  C_7 
REMARK    3  A    between atoms: C_7  and  C_8 
REMARK    4  A    between atoms: C_8  and  N_9 
REMARK    5  A    between atoms: N_12  and  C_13 
REMARK    6  A    between atoms: C_16  and  O_17 
REMARK    7  A    between atoms: C_23  and  C_24 
REMARK    8  A    between atoms: C_24  and  C_25 
REMARK       I    between atoms: C_25  and  N_26 
REMARK    9  A    between atoms: N_26  and  C_27 
REMARK   10  A    between atoms: C_30  and  O_31 
ROOT
HETATM    1  N   UNL     1      -6.271   2.705 -32.616  1.00  0.00    -0.319 N 
HETATM    2  C   UNL     1      -4.970   2.919 -32.172  1.00  0.00     0.332 A 
HETATM    3  O   UNL     1      -4.334   2.075 -31.555  1.00  0.00    -0.246 OA
HETATM    4  N   UNL     1      -4.599   4.209 -32.502  1.00  0.00    -0.232 N 
HETATM    5  C   UNL     1      -5.658   4.839 -33.114  1.00  0.00     0.256 A 
HETATM    6  O   UNL     1      -5.751   6.006 -33.489  1.00  0.00    -0.270 OA
HETATM    7  C   UNL     1      -6.814   3.855 -33.303  1.00  0.00     0.190 A 
ENDROOT
BRANCH   7   8
HETATM    8  C   UNL     1      -8.090   4.439 -32.709  1.00  0.00     0.138 C 
BRANCH   8   9
HETATM    9  C   UNL     1      -9.306   3.796 -33.352  1.00  0.00     0.224 C 
HETATM   10  N   UNL     1     -10.300   3.477 -32.450  1.00  0.00    -0.327 N 
HETATM   11  H   UNL     1     -10.164   3.775 -31.483  1.00  0.00     0.169 HD
HETATM   12  O   UNL     1      -9.339   3.632 -34.568  1.00  0.00    -0.273 OA
BRANCH  10  13
HETATM   13  C   UNL     1     -11.548   2.876 -32.707  1.00  0.00     0.034 A 
HETATM   14  C   UNL     1     -11.712   1.639 -33.325  1.00  0.00     0.032 A 
HETATM   15  C   UNL     1     -12.999   1.124 -33.536  1.00  0.00     0.039 A 
HETATM   16  C   UNL     1     -14.132   1.835 -33.137  1.00  0.00     0.068 A 
HETATM   17  C   UNL     1     -13.970   3.071 -32.515  1.00  0.00     0.039 A 
HETATM   18  C   UNL     1     -12.686   3.585 -32.301  1.00  0.00     0.032 A 
BRANCH  16  19
HETATM   19  O   UNL     1     -15.323   1.220 -33.406  1.00  0.00    -0.356 OA
HETATM   20  C   UNL     1     -15.422   0.527 -34.644  1.00  0.00     0.210 C 
ENDBRANCH  16  19
ENDBRANCH  10  13
ENDBRANCH   8   9
ENDBRANCH   7   8
BRANCH   1  21
HETATM   21  C   UNL     1      -7.019   1.476 -32.365  1.00  0.00     0.133 C 
BRANCH  21  22
HETATM   22  C   UNL     1      -7.403   0.716 -33.637  1.00  0.00     0.058 C 
BRANCH  22  23
HETATM   23  C   UNL     1      -6.514  -0.485 -33.843  1.00  0.00    -0.057 A 
HETATM   24  C   UNL     1      -5.154  -0.426 -33.517  1.00  0.00     0.010 A 
HETATM   25  C   UNL     1      -4.328  -1.529 -33.745  1.00  0.00     0.037 A 
HETATM   26  C   UNL     1      -4.841  -2.703 -34.298  1.00  0.00     0.068 A 
HETATM   27  C   UNL     1      -6.194  -2.765 -34.630  1.00  0.00     0.037 A 
HETATM   28  C   UNL     1      -7.024  -1.661 -34.404  1.00  0.00     0.010 A 
BRANCH  26  29
HETATM   29  O   UNL     1      -3.923  -3.703 -34.469  1.00  0.00    -0.356 OA
HETATM   30  C   UNL     1      -3.647  -4.520 -33.339  1.00  0.00     0.210 C 
ENDBRANCH  26  29
ENDBRANCH  22  23
ENDBRANCH  21  22
ENDBRANCH   1  21
BRANCH   4  31
HETATM   31  C   UNL     1      -3.342   4.813 -32.190  1.00  0.00     0.047 A 
HETATM   32  C   UNL     1      -2.227   4.664 -33.027  1.00  0.00     0.033 A 
HETATM   33  C   UNL     1      -0.995   5.259 -32.720  1.00  0.00     0.039 A 
HETATM   34  C   UNL     1      -0.834   6.014 -31.563  1.00  0.00     0.068 A 
HETATM   35  C   UNL     1      -1.925   6.178 -30.719  1.00  0.00     0.039 A 
HETATM   36  C   UNL     1      -3.160   5.588 -31.033  1.00  0.00     0.033 A 
BRANCH  34  37
HETATM   37  O   UNL     1       0.416   6.532 -31.377  1.00  0.00    -0.356 OA
HETATM   38  C   UNL     1       0.705   7.068 -30.091  1.00  0.00     0.210 C 
ENDBRANCH  34  37
ENDBRANCH   4  31
TORSDOF 10
ENDMDL
MODEL 10
REMARK VINA RESULT:      -8.2      1.926      8.513
REMARK  10 active torsions:
REMARK  status: ('A' for Active; 'I' for Inactive)
REMARK    1  A    between atoms: O_2  and  C_3 
REMARK    2  A    between atoms: C_6  and  C_7 
REMARK    3  A    between atoms: C_7  and  C_8 
REMARK    4  A    between atoms: C_8  and  N_9 
REMARK    5  A    between atoms: N_12  and  C_13 
REMARK    6  A    between atoms: C_16  and  O_17 
REMARK    7  A    between atoms: C_23  and  C_24 
REMARK    8  A    between atoms: C_24  and  C_25 
REMARK       I    between atoms: C_25  and  N_26 
REMARK    9  A    between atoms: N_26  and  C_27 
REMARK   10  A    between atoms: C_30  and  O_31 
ROOT
HETATM    1  N   UNL     1      -8.343   2.110 -33.117  1.00  0.00    -0.319 N 
HETATM    2  C   UNL     1      -9.672   2.470 -33.317  1.00  0.00     0.332 A 
HETATM    3  O   UNL     1     -10.594   1.671 -33.230  1.00  0.00    -0.246 OA
HETATM    4  N   UNL     1      -9.717   3.807 -33.665  1.00  0.00    -0.232 N 
HETATM    5  C   UNL     1      -8.434   4.299 -33.731  1.00  0.00     0.256 A 
HETATM    6  O   UNL     1      -8.051   5.415 -34.073  1.00  0.00    -0.270 OA
HETATM    7  C   UNL     1      -7.438   3.224 -33.292  1.00  0.00     0.190 A 
ENDROOT
BRANCH   7   8
HETATM    8  C   UNL     1      -6.369   3.045 -34.362  1.00  0.00     0.138 C 
BRANCH   8   9
HETATM    9  C   UNL     1      -5.211   3.994 -34.105  1.00  0.00     0.224 C 
HETATM   10  N   UNL     1      -4.599   3.795 -32.885  1.00  0.00    -0.327 N 
HETATM   11  H   UNL     1      -4.916   2.999 -32.329  1.00  0.00     0.169 HD
HETATM   12  O   UNL     1      -4.893   4.815 -34.961  1.00  0.00    -0.273 OA
BRANCH  10  13
HETATM   13  C   UNL     1      -3.505   4.494 -32.336  1.00  0.00     0.034 A 
HETATM   14  C   UNL     1      -2.185   4.337 -32.747  1.00  0.00     0.032 A 
HETATM   15  C   UNL     1      -1.165   5.080 -32.137  1.00  0.00     0.039 A 
HETATM   16  C   UNL     1      -1.449   5.984 -31.112  1.00  0.00     0.068 A 
HETATM   17  C   UNL     1      -2.770   6.146 -30.701  1.00  0.00     0.039 A 
HETATM   18  C   UNL     1      -3.790   5.406 -31.311  1.00  0.00     0.032 A 
BRANCH  16  19
HETATM   19  O   UNL     1      -0.363   6.639 -30.604  1.00  0.00    -0.356 OA
HETATM   20  C   UNL     1      -0.026   6.370 -29.248  1.00  0.00     0.210 C 
ENDBRANCH  16  19
ENDBRANCH  10  13
ENDBRANCH   8   9
ENDBRANCH   7   8
BRANCH   1  21
HETATM   21  C   UNL     1      -7.911   0.746 -32.819  1.00  0.00     0.133 C 
BRANCH  21  22
HETATM   22  C   UNL     1      -8.071  -0.222 -33.993  1.00  0.00     0.058 C 
BRANCH  22  23
HETATM   23  C   UNL     1      -6.886  -1.149 -34.101  1.00  0.00    -0.057 A 
HETATM   24  C   UNL     1      -7.035  -2.431 -34.642  1.00  0.00     0.010 A 
HETATM   25  C   UNL     1      -5.943  -3.299 -34.705  1.00  0.00     0.037 A 
HETATM   26  C   UNL     1      -4.689  -2.905 -34.233  1.00  0.00     0.068 A 
HETATM   27  C   UNL     1      -4.537  -1.631 -33.688  1.00  0.00     0.037 A 
HETATM   28  C   UNL     1      -5.630  -0.759 -33.621  1.00  0.00     0.010 A 
BRANCH  26  29
HETATM   29  O   UNL     1      -3.709  -3.851 -34.354  1.00  0.00    -0.356 OA
HETATM   30  C   UNL     1      -3.425  -4.633 -33.201  1.00  0.00     0.210 C 
ENDBRANCH  26  29
ENDBRANCH  22  23
ENDBRANCH  21  22
ENDBRANCH   1  21
BRANCH   4  31
HETATM   31  C   UNL     1     -10.904   4.540 -33.977  1.00  0.00     0.047 A 
HETATM   32  C   UNL     1     -11.559   5.322 -33.015  1.00  0.00     0.033 A 
HETATM   33  C   UNL     1     -12.722   6.041 -33.325  1.00  0.00     0.039 A 
HETATM   34  C   UNL     1     -13.274   5.997 -34.601  1.00  0.00     0.068 A 
HETATM   35  C   UNL     1     -12.641   5.230 -35.572  1.00  0.00     0.039 A 
HETATM   36  C   UNL     1     -11.471   4.517 -35.262  1.00  0.00     0.033 A 
BRANCH  34  37
HETATM   37  O   UNL     1     -14.410   6.735 -34.770  1.00  0.00    -0.356 OA
HETATM   38  C   UNL     1     -14.738   7.115 -36.101  1.00  0.00     0.210 C 
ENDBRANCH  34  37
ENDBRANCH   4  31
TORSDOF 10
ENDMDL
