MODEL 1
REMARK VINA RESULT:      -9.7      0.000      0.000
REMARK  6 active torsions:
REMARK  status: ('A' for Active; 'I' for Inactive)
REMARK    1  A    between atoms: C_2  and  O_3 
REMARK    2  A    between atoms: C_2  and  C_4 
REMARK    3  A    between atoms: C_6  and  N_7 
REMARK       I    between atoms: N_7  and  C_8 
REMARK    4  A    between atoms: C_8  and  C_9 
REMARK    5  A    between atoms: C_12  and  C_13 
REMARK    6  A    between atoms: C_18  and  C_19 
ROOT
HETATM    1  C   UNL     1      -5.385   1.096 -31.790  1.00  0.00     0.096 A 
HETATM    2  C   UNL     1      -6.068   0.590 -32.881  1.00  0.00     0.138 A 
HETATM    3  N   UNL     1      -7.288   0.169 -32.400  1.00  0.00    -0.240 N 
HETATM    4  C   UNL     1      -8.307  -0.487 -33.200  1.00  0.00     0.221 C 
HETATM    5  C   UNL     1      -7.999  -0.328 -34.702  1.00  0.00     0.068 C 
HETATM    6  C   UNL     1      -6.508  -0.546 -34.992  1.00  0.00     0.143 C 
HETATM    7  N   UNL     1      -5.735   0.426 -34.193  1.00  0.00    -0.363 N 
HETATM    8  N   UNL     1      -7.377   0.221 -31.062  1.00  0.00    -0.181 NA
HETATM    9  C   UNL     1      -6.234   0.808 -30.696  1.00  0.00     0.160 A 
HETATM   10  H   UNL     1      -4.740   0.390 -34.430  1.00  0.00     0.162 HD
ENDROOT
BRANCH   1  11
HETATM   11  C   UNL     1      -4.075   1.722 -31.728  1.00  0.00     0.261 C 
HETATM   12  N   UNL     1      -4.068   3.023 -32.193  1.00  0.00    -0.323 N 
HETATM   13  H   UNL     1      -4.982   3.420 -32.389  1.00  0.00     0.169 HD
HETATM   14  O   UNL     1      -3.118   1.117 -31.259  1.00  0.00    -0.267 OA
BRANCH  12  15
HETATM   15  C   UNL     1      -2.964   3.889 -32.313  1.00  0.00     0.035 A 
HETATM   16  C   UNL     1      -2.171   4.288 -31.233  1.00  0.00     0.039 A 
HETATM   17  C   UNL     1      -1.070   5.146 -31.416  1.00  0.00    -0.028 A 
HETATM   18  C   UNL     1      -0.788   5.615 -32.705  1.00  0.00     0.010 A 
HETATM   19  C   UNL     1      -1.569   5.218 -33.789  1.00  0.00     0.003 A 
HETATM   20  C   UNL     1      -2.647   4.353 -33.594  1.00  0.00     0.029 A 
BRANCH  17  21
HETATM   21  C   UNL     1      -0.245   5.565 -30.219  1.00  0.00     0.147 C 
HETATM   22  C   UNL     1       0.667   6.739 -30.551  1.00  0.00     0.044 C 
BRANCH  21  23
HETATM   23  O   UNL     1       0.548   4.471 -29.759  1.00  0.00    -0.391 OA
HETATM   24  H   UNL     1      -0.026   3.923 -29.199  1.00  0.00     0.210 HD
ENDBRANCH  21  23
ENDBRANCH  17  21
ENDBRANCH  12  15
ENDBRANCH   1  11
BRANCH   4  25
HETATM   25  C   UNL     1      -9.686   0.063 -32.907  1.00  0.00     0.409 C 
HETATM   26  F   UNL     1     -10.557  -0.863 -32.461  1.00  0.00    -0.169 F 
HETATM   27  F   UNL     1      -9.653   1.079 -32.014  1.00  0.00    -0.169 F 
HETATM   28  F   UNL     1     -10.227   0.572 -34.048  1.00  0.00    -0.169 F 
ENDBRANCH   4  25
BRANCH   6  29
HETATM   29  C   UNL     1      -6.112  -1.981 -34.804  1.00  0.00     0.075 A 
HETATM   30  O   UNL     1      -4.820  -2.205 -34.419  1.00  0.00    -0.325 OA
HETATM   31  C   UNL     1      -4.659  -3.550 -34.325  1.00  0.00     0.142 A 
HETATM   32  C   UNL     1      -5.831  -4.198 -34.639  1.00  0.00     0.027 A 
HETATM   33  C   UNL     1      -6.771  -3.186 -34.947  1.00  0.00     0.037 A 
ENDBRANCH   6  29
TORSDOF 6
ENDMDL
MODEL 2
REMARK VINA RESULT:      -9.4      4.901      7.497
REMARK  6 active torsions:
REMARK  status: ('A' for Active; 'I' for Inactive)
REMARK    1  A    between atoms: C_2  and  O_3 
REMARK    2  A    between atoms: C_2  and  C_4 
REMARK    3  A    between atoms: C_6  and  N_7 
REMARK       I    between atoms: N_7  and  C_8 
REMARK    4  A    between atoms: C_8  and  C_9 
REMARK    5  A    between atoms: C_12  and  C_13 
REMARK    6  A    between atoms: C_18  and  C_19 
ROOT
HETATM    1  C   UNL     1      -8.659   1.635 -33.246  1.00  0.00     0.096 A 
HETATM    2  C   UNL     1      -9.806   2.189 -33.785  1.00  0.00     0.138 A 
HETATM    3  N   UNL     1     -10.335   2.994 -32.802  1.00  0.00    -0.240 N 
HETATM    4  C   UNL     1     -11.584   3.727 -32.921  1.00  0.00     0.221 C 
HETATM    5  C   UNL     1     -12.043   3.774 -34.391  1.00  0.00     0.068 C 
HETATM    6  C   UNL     1     -11.861   2.413 -35.077  1.00  0.00     0.143 C 
HETATM    7  N   UNL     1     -10.435   2.038 -34.986  1.00  0.00    -0.363 N 
HETATM    8  N   UNL     1      -9.705   2.876 -31.623  1.00  0.00    -0.181 NA
HETATM    9  C   UNL     1      -8.673   2.074 -31.901  1.00  0.00     0.160 A 
HETATM   10  H   UNL     1     -10.244   1.186 -35.519  1.00  0.00     0.162 HD
ENDROOT
BRANCH   1  11
HETATM   11  C   UNL     1      -7.679   0.754 -33.859  1.00  0.00     0.261 C 
HETATM   12  N   UNL     1      -7.101  -0.127 -32.965  1.00  0.00    -0.323 N 
HETATM   13  H   UNL     1      -7.519  -0.146 -32.040  1.00  0.00     0.169 HD
HETATM   14  O   UNL     1      -7.462   0.809 -35.064  1.00  0.00    -0.267 OA
BRANCH  12  15
HETATM   15  C   UNL     1      -6.090  -1.075 -33.223  1.00  0.00     0.035 A 
HETATM   16  C   UNL     1      -6.265  -2.190 -34.045  1.00  0.00     0.039 A 
HETATM   17  C   UNL     1      -5.213  -3.097 -34.276  1.00  0.00    -0.028 A 
HETATM   18  C   UNL     1      -3.981  -2.873 -33.649  1.00  0.00     0.010 A 
HETATM   19  C   UNL     1      -3.796  -1.760 -32.831  1.00  0.00     0.003 A 
HETATM   20  C   UNL     1      -4.843  -0.861 -32.626  1.00  0.00     0.029 A 
BRANCH  17  21
HETATM   21  C   UNL     1      -5.447  -4.300 -35.163  1.00  0.00     0.147 C 
HETATM   22  C   UNL     1      -6.932  -4.535 -35.409  1.00  0.00     0.044 C 
BRANCH  21  23
HETATM   23  O   UNL     1      -4.880  -5.468 -34.570  1.00  0.00    -0.391 OA
HETATM   24  H   UNL     1      -4.050  -5.194 -34.146  1.00  0.00     0.210 HD
ENDBRANCH  21  23
ENDBRANCH  17  21
ENDBRANCH  12  15
ENDBRANCH   1  11
BRANCH   4  25
HETATM   25  C   UNL     1     -11.454   5.138 -32.388  1.00  0.00     0.409 C 
HETATM   26  F   UNL     1     -10.212   5.648 -32.496  1.00  0.00    -0.169 F 
HETATM   27  F   UNL     1     -12.317   5.992 -32.985  1.00  0.00    -0.169 F 
HETATM   28  F   UNL     1     -11.756   5.154 -31.060  1.00  0.00    -0.169 F 
ENDBRANCH   4  25
BRANCH   6  29
HETATM   29  C   UNL     1     -12.822   1.392 -34.544  1.00  0.00     0.075 A 
HETATM   30  O   UNL     1     -14.134   1.559 -34.889  1.00  0.00    -0.325 OA
HETATM   31  C   UNL     1     -14.833   0.556 -34.299  1.00  0.00     0.142 A 
HETATM   32  C   UNL     1     -13.990  -0.260 -33.582  1.00  0.00     0.027 A 
HETATM   33  C   UNL     1     -12.691   0.276 -33.741  1.00  0.00     0.037 A 
ENDBRANCH   6  29
TORSDOF 6
ENDMDL
MODEL 3
REMARK VINA RESULT:      -9.2      4.755      6.901
REMARK  6 active torsions:
REMARK  status: ('A' for Active; 'I' for Inactive)
REMARK    1  A    between atoms: C_2  and  O_3 
REMARK    2  A    between atoms: C_2  and  C_4 
REMARK    3  A    between atoms: C_6  and  N_7 
REMARK       I    between atoms: N_7  and  C_8 
REMARK    4  A    between atoms: C_8  and  C_9 
REMARK    5  A    between atoms: C_12  and  C_13 
REMARK    6  A    between atoms: C_18  and  C_19 
ROOT
HETATM    1  C   UNL     1      -8.699   2.282 -32.938  1.00  0.00     0.096 A 
HETATM    2  C   UNL     1      -9.873   2.688 -33.546  1.00  0.00     0.138 A 
HETATM    3  N   UNL     1     -10.561   3.410 -32.596  1.00  0.00    -0.240 N 
HETATM    4  C   UNL     1     -11.884   3.978 -32.791  1.00  0.00     0.221 C 
HETATM    5  C   UNL     1     -12.256   3.978 -34.286  1.00  0.00     0.068 C 
HETATM    6  C   UNL     1     -11.859   2.658 -34.960  1.00  0.00     0.143 C 
HETATM    7  N   UNL     1     -10.405   2.468 -34.783  1.00  0.00    -0.363 N 
HETATM    8  N   UNL     1      -9.992   3.364 -31.381  1.00  0.00    -0.181 NA
HETATM    9  C   UNL     1      -8.851   2.704 -31.596  1.00  0.00     0.160 A 
HETATM   10  H   UNL     1     -10.073   1.653 -35.305  1.00  0.00     0.162 HD
ENDROOT
BRANCH   1  11
HETATM   11  C   UNL     1      -7.579   1.540 -33.492  1.00  0.00     0.261 C 
HETATM   12  N   UNL     1      -7.559   0.213 -33.107  1.00  0.00    -0.323 N 
HETATM   13  H   UNL     1      -8.384  -0.108 -32.609  1.00  0.00     0.169 HD
HETATM   14  O   UNL     1      -6.788   2.085 -34.252  1.00  0.00    -0.267 OA
BRANCH  12  15
HETATM   15  C   UNL     1      -6.593  -0.761 -33.426  1.00  0.00     0.035 A 
HETATM   16  C   UNL     1      -5.389  -0.914 -32.735  1.00  0.00     0.039 A 
HETATM   17  C   UNL     1      -4.466  -1.915 -33.091  1.00  0.00    -0.028 A 
HETATM   18  C   UNL     1      -4.766  -2.754 -34.172  1.00  0.00     0.010 A 
HETATM   19  C   UNL     1      -5.967  -2.613 -34.865  1.00  0.00     0.003 A 
HETATM   20  C   UNL     1      -6.879  -1.626 -34.488  1.00  0.00     0.029 A 
BRANCH  17  21
HETATM   21  C   UNL     1      -3.166  -2.039 -32.325  1.00  0.00     0.147 C 
HETATM   22  C   UNL     1      -2.989  -3.437 -31.746  1.00  0.00     0.044 C 
BRANCH  21  23
HETATM   23  O   UNL     1      -3.127  -1.085 -31.265  1.00  0.00    -0.391 OA
HETATM   24  H   UNL     1      -3.630  -1.464 -30.525  1.00  0.00     0.210 HD
ENDBRANCH  21  23
ENDBRANCH  17  21
ENDBRANCH  12  15
ENDBRANCH   1  11
BRANCH   4  25
HETATM   25  C   UNL     1     -11.970   5.389 -32.249  1.00  0.00     0.409 C 
HETATM   26  F   UNL     1     -10.820   6.084 -32.358  1.00  0.00    -0.169 F 
HETATM   27  F   UNL     1     -12.956   6.104 -32.839  1.00  0.00    -0.169 F 
HETATM   28  F   UNL     1     -12.265   5.351 -30.921  1.00  0.00    -0.169 F 
ENDBRANCH   4  25
BRANCH   6  29
HETATM   29  C   UNL     1     -12.711   1.517 -34.488  1.00  0.00     0.075 A 
HETATM   30  O   UNL     1     -14.037   1.579 -34.812  1.00  0.00    -0.325 OA
HETATM   31  C   UNL     1     -14.629   0.477 -34.283  1.00  0.00     0.142 A 
HETATM   32  C   UNL     1     -13.703  -0.298 -33.626  1.00  0.00     0.027 A 
HETATM   33  C   UNL     1     -12.462   0.370 -33.760  1.00  0.00     0.037 A 
ENDBRANCH   6  29
TORSDOF 6
ENDMDL
MODEL 4
REMARK VINA RESULT:      -9.0      4.640      7.601
REMARK  6 active torsions:
REMARK  status: ('A' for Active; 'I' for Inactive)
REMARK    1  A    between atoms: C_2  and  O_3 
REMARK    2  A    between atoms: C_2  and  C_4 
REMARK    3  A    between atoms: C_6  and  N_7 
REMARK       I    between atoms: N_7  and  C_8 
REMARK    4  A    between atoms: C_8  and  C_9 
REMARK    5  A    between atoms: C_12  and  C_13 
REMARK    6  A    between atoms: C_18  and  C_19 
ROOT
HETATM    1  C   UNL     1      -9.189   2.311 -33.142  1.00  0.00     0.096 A 
HETATM    2  C   UNL     1     -10.218   2.501 -34.047  1.00  0.00     0.138 A 
HETATM    3  N   UNL     1     -10.598   3.819 -33.915  1.00  0.00    -0.240 N 
HETATM    4  C   UNL     1     -11.695   4.436 -34.640  1.00  0.00     0.221 C 
HETATM    5  C   UNL     1     -12.136   3.543 -35.815  1.00  0.00     0.068 C 
HETATM    6  C   UNL     1     -12.198   2.066 -35.401  1.00  0.00     0.143 C 
HETATM    7  N   UNL     1     -10.862   1.667 -34.913  1.00  0.00    -0.363 N 
HETATM    8  N   UNL     1     -10.000   4.442 -32.888  1.00  0.00    -0.181 NA
HETATM    9  C   UNL     1      -9.128   3.536 -32.438  1.00  0.00     0.160 A 
HETATM   10  H   UNL     1     -10.824   0.663 -34.722  1.00  0.00     0.162 HD
ENDROOT
BRANCH   1  11
HETATM   11  C   UNL     1      -8.381   1.128 -32.895  1.00  0.00     0.261 C 
HETATM   12  N   UNL     1      -7.180   1.135 -33.578  1.00  0.00    -0.323 N 
HETATM   13  H   UNL     1      -6.952   2.004 -34.049  1.00  0.00     0.169 HD
HETATM   14  O   UNL     1      -8.766   0.265 -32.115  1.00  0.00    -0.267 OA
BRANCH  12  15
HETATM   15  C   UNL     1      -6.195   0.128 -33.596  1.00  0.00     0.035 A 
HETATM   16  C   UNL     1      -6.347  -1.094 -34.257  1.00  0.00     0.039 A 
HETATM   17  C   UNL     1      -5.321  -2.058 -34.251  1.00  0.00    -0.028 A 
HETATM   18  C   UNL     1      -4.140  -1.781 -33.551  1.00  0.00     0.010 A 
HETATM   19  C   UNL     1      -3.977  -0.563 -32.893  1.00  0.00     0.003 A 
HETATM   20  C   UNL     1      -4.996   0.389 -32.922  1.00  0.00     0.029 A 
BRANCH  17  21
HETATM   21  C   UNL     1      -5.531  -3.374 -34.968  1.00  0.00     0.147 C 
HETATM   22  C   UNL     1      -6.949  -3.896 -34.777  1.00  0.00     0.044 C 
BRANCH  21  23
HETATM   23  O   UNL     1      -4.604  -4.349 -34.490  1.00  0.00    -0.391 OA
HETATM   24  H   UNL     1      -4.748  -5.155 -35.013  1.00  0.00     0.210 HD
ENDBRANCH  21  23
ENDBRANCH  17  21
ENDBRANCH  12  15
ENDBRANCH   1  11
BRANCH   4  25
HETATM   25  C   UNL     1     -11.317   5.806 -35.161  1.00  0.00     0.409 C 
HETATM   26  F   UNL     1     -11.289   6.761 -34.210  1.00  0.00    -0.169 F 
HETATM   27  F   UNL     1     -10.121   5.801 -35.793  1.00  0.00    -0.169 F 
HETATM   28  F   UNL     1     -12.235   6.214 -36.080  1.00  0.00    -0.169 F 
ENDBRANCH   4  25
BRANCH   6  29
HETATM   29  C   UNL     1     -13.327   1.805 -34.448  1.00  0.00     0.075 A 
HETATM   30  O   UNL     1     -14.364   1.058 -34.931  1.00  0.00    -0.325 OA
HETATM   31  C   UNL     1     -15.279   0.953 -33.933  1.00  0.00     0.142 A 
HETATM   32  C   UNL     1     -14.846   1.619 -32.811  1.00  0.00     0.027 A 
HETATM   33  C   UNL     1     -13.583   2.168 -33.141  1.00  0.00     0.037 A 
ENDBRANCH   6  29
TORSDOF 6
ENDMDL
MODEL 5
REMARK VINA RESULT:      -8.7      3.135      7.664
REMARK  6 active torsions:
REMARK  status: ('A' for Active; 'I' for Inactive)
REMARK    1  A    between atoms: C_2  and  O_3 
REMARK    2  A    between atoms: C_2  and  C_4 
REMARK    3  A    between atoms: C_6  and  N_7 
REMARK       I    between atoms: N_7  and  C_8 
REMARK    4  A    between atoms: C_8  and  C_9 
REMARK    5  A    between atoms: C_12  and  C_13 
REMARK    6  A    between atoms: C_18  and  C_19 
ROOT
HETATM    1  C   UNL     1      -6.265   2.274 -32.290  1.00  0.00     0.096 A 
HETATM    2  C   UNL     1      -5.528   3.373 -31.886  1.00  0.00     0.138 A 
HETATM    3  N   UNL     1      -6.237   4.477 -32.306  1.00  0.00    -0.240 N 
HETATM    4  C   UNL     1      -5.794   5.851 -32.143  1.00  0.00     0.221 C 
HETATM    5  C   UNL     1      -4.628   5.926 -31.138  1.00  0.00     0.068 C 
HETATM    6  C   UNL     1      -3.617   4.795 -31.370  1.00  0.00     0.143 C 
HETATM    7  N   UNL     1      -4.329   3.507 -31.250  1.00  0.00    -0.363 N 
HETATM    8  N   UNL     1      -7.286   4.169 -33.084  1.00  0.00    -0.181 NA
HETATM    9  C   UNL     1      -7.318   2.834 -33.050  1.00  0.00     0.160 A 
HETATM   10  H   UNL     1      -3.678   2.720 -31.294  1.00  0.00     0.162 HD
ENDROOT
BRANCH   1  11
HETATM   11  C   UNL     1      -6.016   0.860 -32.064  1.00  0.00     0.261 C 
HETATM   12  N   UNL     1      -5.023   0.344 -32.874  1.00  0.00    -0.323 N 
HETATM   13  H   UNL     1      -4.505   1.027 -33.418  1.00  0.00     0.169 HD
HETATM   14  O   UNL     1      -6.632   0.251 -31.197  1.00  0.00    -0.267 OA
BRANCH  12  15
HETATM   15  C   UNL     1      -4.573  -0.990 -32.941  1.00  0.00     0.035 A 
HETATM   16  C   UNL     1      -5.065  -1.929 -33.852  1.00  0.00     0.039 A 
HETATM   17  C   UNL     1      -4.567  -3.245 -33.880  1.00  0.00    -0.028 A 
HETATM   18  C   UNL     1      -3.575  -3.611 -32.962  1.00  0.00     0.010 A 
HETATM   19  C   UNL     1      -3.075  -2.680 -32.053  1.00  0.00     0.003 A 
HETATM   20  C   UNL     1      -3.566  -1.374 -32.048  1.00  0.00     0.029 A 
BRANCH  17  21
HETATM   21  C   UNL     1      -5.135  -4.236 -34.874  1.00  0.00     0.147 C 
HETATM   22  C   UNL     1      -6.656  -4.164 -34.928  1.00  0.00     0.044 C 
BRANCH  21  23
HETATM   23  O   UNL     1      -4.741  -5.562 -34.528  1.00  0.00    -0.391 OA
HETATM   24  H   UNL     1      -4.865  -5.652 -33.568  1.00  0.00     0.210 HD
ENDBRANCH  21  23
ENDBRANCH  17  21
ENDBRANCH  12  15
ENDBRANCH   1  11
BRANCH   4  25
HETATM   25  C   UNL     1      -6.920   6.748 -31.677  1.00  0.00     0.409 C 
HETATM   26  F   UNL     1      -7.823   6.124 -30.893  1.00  0.00    -0.169 F 
HETATM   27  F   UNL     1      -6.467   7.839 -31.016  1.00  0.00    -0.169 F 
HETATM   28  F   UNL     1      -7.611   7.211 -32.754  1.00  0.00    -0.169 F 
ENDBRANCH   4  25
BRANCH   6  29
HETATM   29  C   UNL     1      -2.858   4.984 -32.650  1.00  0.00     0.075 A 
HETATM   30  O   UNL     1      -2.431   6.255 -32.916  1.00  0.00    -0.325 OA
HETATM   31  C   UNL     1      -1.791   6.218 -34.114  1.00  0.00     0.142 A 
HETATM   32  C   UNL     1      -1.796   4.940 -34.623  1.00  0.00     0.027 A 
HETATM   33  C   UNL     1      -2.483   4.142 -33.678  1.00  0.00     0.037 A 
ENDBRANCH   6  29
TORSDOF 6
ENDMDL
MODEL 6
REMARK VINA RESULT:      -8.6      2.065      2.160
REMARK  6 active torsions:
REMARK  status: ('A' for Active; 'I' for Inactive)
REMARK    1  A    between atoms: C_2  and  O_3 
REMARK    2  A    between atoms: C_2  and  C_4 
REMARK    3  A    between atoms: C_6  and  N_7 
REMARK       I    between atoms: N_7  and  C_8 
REMARK    4  A    between atoms: C_8  and  C_9 
REMARK    5  A    between atoms: C_12  and  C_13 
REMARK    6  A    between atoms: C_18  and  C_19 
ROOT
HETATM    1  C   UNL     1      -6.326   2.711 -31.931  1.00  0.00     0.096 A 
HETATM    2  C   UNL     1      -6.807   2.002 -33.016  1.00  0.00     0.138 A 
HETATM    3  N   UNL     1      -7.985   1.424 -32.598  1.00  0.00    -0.240 N 
HETATM    4  C   UNL     1      -8.800   0.535 -33.408  1.00  0.00     0.221 C 
HETATM    5  C   UNL     1      -8.373   0.610 -34.887  1.00  0.00     0.068 C 
HETATM    6  C   UNL     1      -6.845   0.624 -35.027  1.00  0.00     0.143 C 
HETATM    7  N   UNL     1      -6.322   1.781 -34.272  1.00  0.00    -0.363 N 
HETATM    8  N   UNL     1      -8.214   1.578 -31.285  1.00  0.00    -0.181 NA
HETATM    9  C   UNL     1      -7.224   2.381 -30.888  1.00  0.00     0.160 A 
HETATM   10  H   UNL     1      -5.316   1.894 -34.420  1.00  0.00     0.162 HD
ENDROOT
BRANCH   1  11
HETATM   11  C   UNL     1      -5.148   3.555 -31.825  1.00  0.00     0.261 C 
HETATM   12  N   UNL     1      -4.974   4.391 -32.912  1.00  0.00    -0.323 N 
HETATM   13  H   UNL     1      -5.745   4.412 -33.572  1.00  0.00     0.169 HD
HETATM   14  O   UNL     1      -4.440   3.512 -30.825  1.00  0.00    -0.267 OA
BRANCH  12  15
HETATM   15  C   UNL     1      -3.917   5.292 -33.144  1.00  0.00     0.035 A 
HETATM   16  C   UNL     1      -3.655   6.404 -32.339  1.00  0.00     0.039 A 
HETATM   17  C   UNL     1      -2.574   7.263 -32.613  1.00  0.00    -0.028 A 
HETATM   18  C   UNL     1      -1.767   6.997 -33.726  1.00  0.00     0.010 A 
HETATM   19  C   UNL     1      -2.017   5.887 -34.532  1.00  0.00     0.003 A 
HETATM   20  C   UNL     1      -3.082   5.035 -34.237  1.00  0.00     0.029 A 
BRANCH  17  21
HETATM   21  C   UNL     1      -2.332   8.464 -31.724  1.00  0.00     0.147 C 
HETATM   22  C   UNL     1      -1.621   8.073 -30.436  1.00  0.00     0.044 C 
BRANCH  21  23
HETATM   23  O   UNL     1      -3.571   9.096 -31.402  1.00  0.00    -0.391 OA
HETATM   24  H   UNL     1      -3.398  10.052 -31.362  1.00  0.00     0.210 HD
ENDBRANCH  21  23
ENDBRANCH  17  21
ENDBRANCH  12  15
ENDBRANCH   1  11
BRANCH   4  25
HETATM   25  C   UNL     1     -10.272   0.866 -33.291  1.00  0.00     0.409 C 
HETATM   26  F   UNL     1     -11.016  -0.138 -32.787  1.00  0.00    -0.169 F 
HETATM   27  F   UNL     1     -10.490   1.972 -32.542  1.00  0.00    -0.169 F 
HETATM   28  F   UNL     1     -10.781   1.132 -34.525  1.00  0.00    -0.169 F 
ENDBRANCH   4  25
BRANCH   6  29
HETATM   29  C   UNL     1      -6.243  -0.700 -34.658  1.00  0.00     0.075 A 
HETATM   30  O   UNL     1      -5.041  -0.657 -34.010  1.00  0.00    -0.325 OA
HETATM   31  C   UNL     1      -4.662  -1.941 -33.785  1.00  0.00     0.142 A 
HETATM   32  C   UNL     1      -5.605  -2.813 -34.276  1.00  0.00     0.027 A 
HETATM   33  C   UNL     1      -6.628  -2.013 -34.838  1.00  0.00     0.037 A 
ENDBRANCH   6  29
TORSDOF 6
ENDMDL
MODEL 7
REMARK VINA RESULT:      -8.6      4.448      8.551
REMARK  6 active torsions:
REMARK  status: ('A' for Active; 'I' for Inactive)
REMARK    1  A    between atoms: C_2  and  O_3 
REMARK    2  A    between atoms: C_2  and  C_4 
REMARK    3  A    between atoms: C_6  and  N_7 
REMARK       I    between atoms: N_7  and  C_8 
REMARK    4  A    between atoms: C_8  and  C_9 
REMARK    5  A    between atoms: C_12  and  C_13 
REMARK    6  A    between atoms: C_18  and  C_19 
ROOT
HETATM    1  C   UNL     1      -8.477   1.478 -33.071  1.00  0.00     0.096 A 
HETATM    2  C   UNL     1      -7.312   1.015 -32.486  1.00  0.00     0.138 A 
HETATM    3  N   UNL     1      -6.310   1.849 -32.929  1.00  0.00    -0.240 N 
HETATM    4  C   UNL     1      -4.902   1.690 -32.605  1.00  0.00     0.221 C 
HETATM    5  C   UNL     1      -4.726   0.702 -31.436  1.00  0.00     0.068 C 
HETATM    6  C   UNL     1      -5.641  -0.520 -31.595  1.00  0.00     0.143 C 
HETATM    7  N   UNL     1      -7.037  -0.045 -31.672  1.00  0.00    -0.363 N 
HETATM    8  N   UNL     1      -6.716   2.712 -33.872  1.00  0.00    -0.181 NA
HETATM    9  C   UNL     1      -8.034   2.505 -33.938  1.00  0.00     0.160 A 
HETATM   10  H   UNL     1      -7.694  -0.829 -31.674  1.00  0.00     0.162 HD
ENDROOT
BRANCH   1  11
HETATM   11  C   UNL     1      -9.843   1.009 -32.910  1.00  0.00     0.261 C 
HETATM   12  N   UNL     1     -10.780   1.845 -33.487  1.00  0.00    -0.323 N 
HETATM   13  H   UNL     1     -10.401   2.596 -34.056  1.00  0.00     0.169 HD
HETATM   14  O   UNL     1     -10.072  -0.054 -32.345  1.00  0.00    -0.267 OA
BRANCH  12  15
HETATM   15  C   UNL     1     -12.181   1.707 -33.472  1.00  0.00     0.035 A 
HETATM   16  C   UNL     1     -13.039   2.580 -32.797  1.00  0.00     0.039 A 
HETATM   17  C   UNL     1     -14.434   2.399 -32.829  1.00  0.00    -0.028 A 
HETATM   18  C   UNL     1     -14.957   1.311 -33.538  1.00  0.00     0.010 A 
HETATM   19  C   UNL     1     -14.110   0.438 -34.219  1.00  0.00     0.003 A 
HETATM   20  C   UNL     1     -12.730   0.641 -34.192  1.00  0.00     0.029 A 
BRANCH  17  21
HETATM   21  C   UNL     1     -15.328   3.359 -32.073  1.00  0.00     0.147 C 
HETATM   22  C   UNL     1     -16.754   2.833 -31.971  1.00  0.00     0.044 C 
BRANCH  21  23
HETATM   23  O   UNL     1     -15.343   4.631 -32.719  1.00  0.00    -0.391 OA
HETATM   24  H   UNL     1     -14.447   4.999 -32.639  1.00  0.00     0.210 HD
ENDBRANCH  21  23
ENDBRANCH  17  21
ENDBRANCH  12  15
ENDBRANCH   1  11
BRANCH   4  25
HETATM   25  C   UNL     1      -4.258   3.012 -32.250  1.00  0.00     0.409 C 
HETATM   26  F   UNL     1      -3.812   3.704 -33.317  1.00  0.00    -0.169 F 
HETATM   27  F   UNL     1      -5.090   3.813 -31.543  1.00  0.00    -0.169 F 
HETATM   28  F   UNL     1      -3.172   2.794 -31.460  1.00  0.00    -0.169 F 
ENDBRANCH   4  25
BRANCH   6  29
HETATM   29  C   UNL     1      -5.204  -1.395 -32.733  1.00  0.00     0.075 A 
HETATM   30  O   UNL     1      -4.019  -2.054 -32.567  1.00  0.00    -0.325 OA
HETATM   31  C   UNL     1      -3.797  -2.767 -33.701  1.00  0.00     0.142 A 
HETATM   32  C   UNL     1      -4.824  -2.581 -34.596  1.00  0.00     0.027 A 
HETATM   33  C   UNL     1      -5.736  -1.698 -33.971  1.00  0.00     0.037 A 
ENDBRANCH   6  29
TORSDOF 6
ENDMDL
MODEL 8
REMARK VINA RESULT:      -8.5      4.550      7.875
REMARK  6 active torsions:
REMARK  status: ('A' for Active; 'I' for Inactive)
REMARK    1  A    between atoms: C_2  and  O_3 
REMARK    2  A    between atoms: C_2  and  C_4 
REMARK    3  A    between atoms: C_6  and  N_7 
REMARK       I    between atoms: N_7  and  C_8 
REMARK    4  A    between atoms: C_8  and  C_9 
REMARK    5  A    between atoms: C_12  and  C_13 
REMARK    6  A    between atoms: C_18  and  C_19 
ROOT
HETATM    1  C   UNL     1      -9.052   1.337 -32.885  1.00  0.00     0.096 A 
HETATM    2  C   UNL     1      -9.754   2.195 -32.058  1.00  0.00     0.138 A 
HETATM    3  N   UNL     1     -10.705   2.793 -32.855  1.00  0.00    -0.240 N 
HETATM    4  C   UNL     1     -11.631   3.818 -32.404  1.00  0.00     0.221 C 
HETATM    5  C   UNL     1     -11.652   3.887 -30.865  1.00  0.00     0.068 C 
HETATM    6  C   UNL     1     -10.234   3.795 -30.282  1.00  0.00     0.143 C 
HETATM    7  N   UNL     1      -9.628   2.528 -30.741  1.00  0.00    -0.363 N 
HETATM    8  N   UNL     1     -10.564   2.503 -34.157  1.00  0.00    -0.181 NA
HETATM    9  C   UNL     1      -9.581   1.600 -34.171  1.00  0.00     0.160 A 
HETATM   10  H   UNL     1      -8.721   2.371 -30.296  1.00  0.00     0.162 HD
ENDROOT
BRANCH   1  11
HETATM   11  C   UNL     1      -7.976   0.416 -32.563  1.00  0.00     0.261 C 
HETATM   12  N   UNL     1      -7.297  -0.044 -33.676  1.00  0.00    -0.323 N 
HETATM   13  H   UNL     1      -7.538   0.411 -34.550  1.00  0.00     0.169 HD
HETATM   14  O   UNL     1      -7.718   0.145 -31.396  1.00  0.00    -0.267 OA
BRANCH  12  15
HETATM   15  C   UNL     1      -6.241  -0.976 -33.716  1.00  0.00     0.035 A 
HETATM   16  C   UNL     1      -6.316  -2.204 -34.378  1.00  0.00     0.039 A 
HETATM   17  C   UNL     1      -5.222  -3.089 -34.396  1.00  0.00    -0.028 A 
HETATM   18  C   UNL     1      -4.052  -2.728 -33.717  1.00  0.00     0.010 A 
HETATM   19  C   UNL     1      -3.966  -1.503 -33.058  1.00  0.00     0.003 A 
HETATM   20  C   UNL     1      -5.053  -0.628 -33.065  1.00  0.00     0.029 A 
BRANCH  17  21
HETATM   21  C   UNL     1      -5.348  -4.416 -35.114  1.00  0.00     0.147 C 
HETATM   22  C   UNL     1      -6.794  -4.714 -35.489  1.00  0.00     0.044 C 
BRANCH  21  23
HETATM   23  O   UNL     1      -4.851  -5.471 -34.291  1.00  0.00    -0.391 OA
HETATM   24  H   UNL     1      -3.911  -5.284 -34.131  1.00  0.00     0.210 HD
ENDBRANCH  21  23
ENDBRANCH  17  21
ENDBRANCH  12  15
ENDBRANCH   1  11
BRANCH   4  25
HETATM   25  C   UNL     1     -13.033   3.567 -32.917  1.00  0.00     0.409 C 
HETATM   26  F   UNL     1     -13.995   4.146 -32.171  1.00  0.00    -0.169 F 
HETATM   27  F   UNL     1     -13.189   3.971 -34.199  1.00  0.00    -0.169 F 
HETATM   28  F   UNL     1     -13.293   2.232 -32.900  1.00  0.00    -0.169 F 
ENDBRANCH   4  25
BRANCH   6  29
HETATM   29  C   UNL     1      -9.432   5.027 -30.579  1.00  0.00     0.075 A 
HETATM   30  O   UNL     1      -9.954   6.209 -30.134  1.00  0.00    -0.325 OA
HETATM   31  C   UNL     1      -9.098   7.192 -30.515  1.00  0.00     0.142 A 
HETATM   32  C   UNL     1      -8.029   6.661 -31.198  1.00  0.00     0.027 A 
HETATM   33  C   UNL     1      -8.241   5.263 -31.238  1.00  0.00     0.037 A 
ENDBRANCH   6  29
TORSDOF 6
ENDMDL
MODEL 9
REMARK VINA RESULT:      -8.5      3.608      8.024
REMARK  6 active torsions:
REMARK  status: ('A' for Active; 'I' for Inactive)
REMARK    1  A    between atoms: C_2  and  O_3 
REMARK    2  A    between atoms: C_2  and  C_4 
REMARK    3  A    between atoms: C_6  and  N_7 
REMARK       I    between atoms: N_7  and  C_8 
REMARK    4  A    between atoms: C_8  and  C_9 
REMARK    5  A    between atoms: C_12  and  C_13 
REMARK    6  A    between atoms: C_18  and  C_19 
ROOT
HETATM    1  C   UNL     1      -5.578   3.568 -31.328  1.00  0.00     0.096 A 
HETATM    2  C   UNL     1      -4.338   4.139 -31.107  1.00  0.00     0.138 A 
HETATM    3  N   UNL     1      -4.578   5.464 -30.818  1.00  0.00    -0.240 N 
HETATM    4  C   UNL     1      -3.544   6.455 -30.576  1.00  0.00     0.221 C 
HETATM    5  C   UNL     1      -2.186   5.769 -30.333  1.00  0.00     0.068 C 
HETATM    6  C   UNL     1      -1.957   4.617 -31.321  1.00  0.00     0.143 C 
HETATM    7  N   UNL     1      -3.065   3.652 -31.170  1.00  0.00    -0.363 N 
HETATM    8  N   UNL     1      -5.860   5.820 -30.991  1.00  0.00    -0.181 NA
HETATM    9  C   UNL     1      -6.469   4.666 -31.273  1.00  0.00     0.160 A 
HETATM   10  H   UNL     1      -2.904   2.814 -31.734  1.00  0.00     0.162 HD
ENDROOT
BRANCH   1  11
HETATM   11  C   UNL     1      -5.923   2.186 -31.616  1.00  0.00     0.261 C 
HETATM   12  N   UNL     1      -5.511   1.769 -32.867  1.00  0.00    -0.323 N 
HETATM   13  H   UNL     1      -4.913   2.419 -33.368  1.00  0.00     0.169 HD
HETATM   14  O   UNL     1      -6.487   1.498 -30.773  1.00  0.00    -0.267 OA
BRANCH  12  15
HETATM   15  C   UNL     1      -5.726   0.515 -33.471  1.00  0.00     0.035 A 
HETATM   16  C   UNL     1      -4.827  -0.551 -33.385  1.00  0.00     0.039 A 
HETATM   17  C   UNL     1      -5.102  -1.787 -33.999  1.00  0.00    -0.028 A 
HETATM   18  C   UNL     1      -6.294  -1.932 -34.719  1.00  0.00     0.010 A 
HETATM   19  C   UNL     1      -7.201  -0.876 -34.805  1.00  0.00     0.003 A 
HETATM   20  C   UNL     1      -6.921   0.338 -34.177  1.00  0.00     0.029 A 
BRANCH  17  21
HETATM   21  C   UNL     1      -4.095  -2.913 -33.894  1.00  0.00     0.147 C 
HETATM   22  C   UNL     1      -4.702  -4.248 -34.305  1.00  0.00     0.044 C 
BRANCH  21  23
HETATM   23  O   UNL     1      -3.605  -3.012 -32.558  1.00  0.00    -0.391 OA
HETATM   24  H   UNL     1      -4.363  -3.243 -31.996  1.00  0.00     0.210 HD
ENDBRANCH  21  23
ENDBRANCH  17  21
ENDBRANCH  12  15
ENDBRANCH   1  11
BRANCH   4  25
HETATM   25  C   UNL     1      -3.882   7.337 -29.394  1.00  0.00     0.409 C 
HETATM   26  F   UNL     1      -4.579   6.707 -28.428  1.00  0.00    -0.169 F 
HETATM   27  F   UNL     1      -2.780   7.886 -28.833  1.00  0.00    -0.169 F 
HETATM   28  F   UNL     1      -4.660   8.375 -29.806  1.00  0.00    -0.169 F 
ENDBRANCH   4  25
BRANCH   6  29
HETATM   29  C   UNL     1      -1.739   5.120 -32.718  1.00  0.00     0.075 A 
HETATM   30  O   UNL     1      -2.331   4.401 -33.718  1.00  0.00    -0.325 OA
HETATM   31  C   UNL     1      -2.001   5.002 -34.891  1.00  0.00     0.142 A 
HETATM   32  C   UNL     1      -1.207   6.101 -34.661  1.00  0.00     0.027 A 
HETATM   33  C   UNL     1      -1.039   6.180 -33.258  1.00  0.00     0.037 A 
ENDBRANCH   6  29
TORSDOF 6
ENDMDL
MODEL 10
REMARK VINA RESULT:      -8.3      4.864      8.381
REMARK  6 active torsions:
REMARK  status: ('A' for Active; 'I' for Inactive)
REMARK    1  A    between atoms: C_2  and  O_3 
REMARK    2  A    between atoms: C_2  and  C_4 
REMARK    3  A    between atoms: C_6  and  N_7 
REMARK       I    between atoms: N_7  and  C_8 
REMARK    4  A    between atoms: C_8  and  C_9 
REMARK    5  A    between atoms: C_12  and  C_13 
REMARK    6  A    between atoms: C_18  and  C_19 
ROOT
HETATM    1  C   UNL     1     -10.829   1.567 -33.961  1.00  0.00     0.096 A 
HETATM    2  C   UNL     1     -11.616   2.296 -33.088  1.00  0.00     0.138 A 
HETATM    3  N   UNL     1     -12.916   2.106 -33.503  1.00  0.00    -0.240 N 
HETATM    4  C   UNL     1     -14.074   2.743 -32.900  1.00  0.00     0.221 C 
HETATM    5  C   UNL     1     -13.703   3.359 -31.537  1.00  0.00     0.068 C 
HETATM    6  C   UNL     1     -12.351   4.084 -31.602  1.00  0.00     0.143 C 
HETATM    7  N   UNL     1     -11.326   3.111 -32.034  1.00  0.00    -0.363 N 
HETATM    8  N   UNL     1     -13.010   1.442 -34.665  1.00  0.00    -0.181 NA
HETATM    9  C   UNL     1     -11.748   1.093 -34.927  1.00  0.00     0.160 A 
HETATM   10  H   UNL     1     -10.390   3.520 -31.992  1.00  0.00     0.162 HD
ENDROOT
BRANCH   1  11
HETATM   11  C   UNL     1      -9.390   1.364 -33.961  1.00  0.00     0.261 C 
HETATM   12  N   UNL     1      -9.020   0.072 -33.640  1.00  0.00    -0.323 N 
HETATM   13  H   UNL     1      -9.781  -0.596 -33.579  1.00  0.00     0.169 HD
HETATM   14  O   UNL     1      -8.634   2.280 -34.264  1.00  0.00    -0.267 OA
BRANCH  12  15
HETATM   15  C   UNL     1      -7.715  -0.441 -33.506  1.00  0.00     0.035 A 
HETATM   16  C   UNL     1      -7.199  -1.464 -34.305  1.00  0.00     0.039 A 
HETATM   17  C   UNL     1      -5.881  -1.927 -34.133  1.00  0.00    -0.028 A 
HETATM   18  C   UNL     1      -5.091  -1.356 -33.128  1.00  0.00     0.010 A 
HETATM   19  C   UNL     1      -5.595  -0.331 -32.329  1.00  0.00     0.003 A 
HETATM   20  C   UNL     1      -6.898   0.130 -32.523  1.00  0.00     0.029 A 
BRANCH  17  21
HETATM   21  C   UNL     1      -5.363  -3.047 -35.011  1.00  0.00     0.147 C 
HETATM   22  C   UNL     1      -6.375  -4.180 -35.127  1.00  0.00     0.044 C 
BRANCH  21  23
HETATM   23  O   UNL     1      -4.142  -3.563 -34.483  1.00  0.00    -0.391 OA
HETATM   24  H   UNL     1      -3.771  -2.874 -33.906  1.00  0.00     0.210 HD
ENDBRANCH  21  23
ENDBRANCH  17  21
ENDBRANCH  12  15
ENDBRANCH   1  11
BRANCH   4  25
HETATM   25  C   UNL     1     -15.215   1.765 -32.717  1.00  0.00     0.409 C 
HETATM   26  F   UNL     1     -16.167   1.857 -33.666  1.00  0.00    -0.169 F 
HETATM   27  F   UNL     1     -14.787   0.482 -32.669  1.00  0.00    -0.169 F 
HETATM   28  F   UNL     1     -15.838   2.006 -31.531  1.00  0.00    -0.169 F 
ENDBRANCH   4  25
BRANCH   6  29
HETATM   29  C   UNL     1     -12.431   5.332 -32.431  1.00  0.00     0.075 A 
HETATM   30  O   UNL     1     -11.305   5.666 -33.129  1.00  0.00    -0.325 OA
HETATM   31  C   UNL     1     -11.573   6.822 -33.790  1.00  0.00     0.142 A 
HETATM   32  C   UNL     1     -12.859   7.236 -33.531  1.00  0.00     0.027 A 
HETATM   33  C   UNL     1     -13.415   6.274 -32.656  1.00  0.00     0.037 A 
ENDBRANCH   6  29
TORSDOF 6
ENDMDL
