MODEL 1
REMARK VINA RESULT:      -9.0      0.000      0.000
REMARK  5 active torsions:
REMARK  status: ('A' for Active; 'I' for Inactive)
REMARK    1  A    between atoms: N_2  and  C_4 
REMARK    2  A    between atoms: C_4  and  C_5 
REMARK    3  A    between atoms: C_5  and  N_6 
REMARK    4  A    between atoms: C_11  and  C_12 
REMARK    5  A    between atoms: C_15  and  O_16 
ROOT
HETATM    1  N   UNL     1      -3.760   1.558 -32.015  1.00  0.00    -0.332 N 
HETATM    2  C   UNL     1      -3.147   0.329 -31.786  1.00  0.00     0.279 C 
HETATM    3  O   UNL     1      -2.248   0.118 -30.992  1.00  0.00    -0.265 OA
HETATM    4  C   UNL     1      -3.793  -0.647 -32.677  1.00  0.00     0.156 C 
HETATM    5  C   UNL     1      -4.763   0.011 -33.308  1.00  0.00     0.060 C 
HETATM    6  C   UNL     1      -4.929   1.421 -32.882  1.00  0.00     0.161 C 
HETATM    7  O   UNL     1      -3.479  -1.972 -32.786  1.00  0.00    -0.303 OA
HETATM    8  C   UNL     1      -4.333  -2.725 -33.567  1.00  0.00     0.090 A 
HETATM    9  C   UNL     1      -5.374  -2.159 -34.324  1.00  0.00     0.051 A 
HETATM   10  C   UNL     1      -5.584  -0.696 -34.281  1.00  0.00     0.196 C 
HETATM   11  O   UNL     1      -6.378  -0.109 -34.998  1.00  0.00    -0.287 OA
HETATM   12  C   UNL     1      -4.139  -4.106 -33.573  1.00  0.00     0.041 A 
HETATM   13  C   UNL     1      -4.992  -4.915 -34.328  1.00  0.00     0.045 A 
HETATM   14  C   UNL     1      -6.020  -4.339 -35.073  1.00  0.00     0.117 A 
HETATM   15  F   UNL     1      -6.835  -5.127 -35.784  1.00  0.00    -0.206 F 
HETATM   16  C   UNL     1      -6.219  -2.965 -35.086  1.00  0.00     0.060 A 
ENDROOT
BRANCH   6  17
HETATM   17  C   UNL     1      -6.248   1.649 -32.166  1.00  0.00    -0.030 A 
HETATM   18  C   UNL     1      -6.923   0.613 -31.489  1.00  0.00     0.012 A 
HETATM   19  C   UNL     1      -8.185   0.826 -30.928  1.00  0.00     0.037 A 
HETATM   20  C   UNL     1      -8.778   2.077 -31.040  1.00  0.00     0.065 A 
HETATM   21  C   UNL     1      -8.129   3.117 -31.691  1.00  0.00     0.037 A 
HETATM   22  C   UNL     1      -6.871   2.904 -32.259  1.00  0.00     0.012 A 
BRANCH  20  23
HETATM   23  O   UNL     1     -10.017   2.324 -30.530  1.00  0.00    -0.361 OA
HETATM   24  H   UNL     1     -10.315   1.549 -30.026  1.00  0.00     0.217 HD
ENDBRANCH  20  23
ENDBRANCH   6  17
BRANCH   1  25
HETATM   25  C   UNL     1      -3.511   2.732 -31.192  1.00  0.00     0.155 C 
BRANCH  25  26
HETATM   26  C   UNL     1      -3.358   4.033 -32.009  1.00  0.00     0.254 C 
BRANCH  26  27
HETATM   27  N   UNL     1      -1.902   4.344 -32.323  1.00  0.00    -0.077 N 
HETATM   28  C   UNL     1      -1.194   5.107 -31.239  1.00  0.00     0.269 C 
HETATM   29  H   UNL     1      -1.419   3.442 -32.437  1.00  0.00     0.279 HD
HETATM   30  C   UNL     1      -1.776   5.045 -33.652  1.00  0.00     0.269 C 
ENDBRANCH  26  27
ENDBRANCH  25  26
ENDBRANCH   1  25
TORSDOF 5
ENDMDL
MODEL 2
REMARK VINA RESULT:      -9.0      2.245      2.715
REMARK  5 active torsions:
REMARK  status: ('A' for Active; 'I' for Inactive)
REMARK    1  A    between atoms: N_2  and  C_4 
REMARK    2  A    between atoms: C_4  and  C_5 
REMARK    3  A    between atoms: C_5  and  N_6 
REMARK    4  A    between atoms: C_11  and  C_12 
REMARK    5  A    between atoms: C_15  and  O_16 
ROOT
HETATM    1  N   UNL     1      -6.006   2.527 -32.685  1.00  0.00    -0.332 N 
HETATM    2  C   UNL     1      -5.076   1.890 -31.867  1.00  0.00     0.279 C 
HETATM    3  O   UNL     1      -4.577   2.356 -30.858  1.00  0.00    -0.265 OA
HETATM    4  C   UNL     1      -4.825   0.564 -32.452  1.00  0.00     0.156 C 
HETATM    5  C   UNL     1      -5.638   0.461 -33.501  1.00  0.00     0.060 C 
HETATM    6  C   UNL     1      -6.545   1.616 -33.693  1.00  0.00     0.161 C 
HETATM    7  O   UNL     1      -3.961  -0.379 -31.973  1.00  0.00    -0.303 OA
HETATM    8  C   UNL     1      -4.017  -1.610 -32.595  1.00  0.00     0.090 A 
HETATM    9  C   UNL     1      -4.798  -1.853 -33.739  1.00  0.00     0.051 A 
HETATM   10  C   UNL     1      -5.610  -0.754 -34.304  1.00  0.00     0.196 C 
HETATM   11  O   UNL     1      -6.216  -0.839 -35.359  1.00  0.00    -0.287 OA
HETATM   12  C   UNL     1      -3.268  -2.643 -32.033  1.00  0.00     0.041 A 
HETATM   13  C   UNL     1      -3.310  -3.914 -32.610  1.00  0.00     0.045 A 
HETATM   14  C   UNL     1      -4.089  -4.139 -33.744  1.00  0.00     0.117 A 
HETATM   15  F   UNL     1      -4.126  -5.365 -34.280  1.00  0.00    -0.206 F 
HETATM   16  C   UNL     1      -4.832  -3.119 -34.322  1.00  0.00     0.060 A 
ENDROOT
BRANCH   6  17
HETATM   17  C   UNL     1      -7.999   1.244 -33.462  1.00  0.00    -0.030 A 
HETATM   18  C   UNL     1      -8.389   0.327 -32.465  1.00  0.00     0.012 A 
HETATM   19  C   UNL     1      -9.722  -0.075 -32.343  1.00  0.00     0.037 A 
HETATM   20  C   UNL     1     -10.672   0.439 -33.216  1.00  0.00     0.065 A 
HETATM   21  C   UNL     1     -10.315   1.354 -34.197  1.00  0.00     0.037 A 
HETATM   22  C   UNL     1      -8.983   1.751 -34.326  1.00  0.00     0.012 A 
BRANCH  20  23
HETATM   23  O   UNL     1     -11.978   0.057 -33.150  1.00  0.00    -0.361 OA
HETATM   24  H   UNL     1     -12.481   0.723 -32.654  1.00  0.00     0.217 HD
ENDBRANCH  20  23
ENDBRANCH   6  17
BRANCH   1  25
HETATM   25  C   UNL     1      -6.635   3.790 -32.332  1.00  0.00     0.155 C 
BRANCH  25  26
HETATM   26  C   UNL     1      -6.696   4.795 -33.503  1.00  0.00     0.254 C 
BRANCH  26  27
HETATM   27  N   UNL     1      -5.424   5.623 -33.612  1.00  0.00    -0.077 N 
HETATM   28  C   UNL     1      -4.412   5.062 -34.570  1.00  0.00     0.269 C 
HETATM   29  H   UNL     1      -5.701   6.554 -33.956  1.00  0.00     0.279 HD
HETATM   30  C   UNL     1      -4.816   5.857 -32.252  1.00  0.00     0.269 C 
ENDBRANCH  26  27
ENDBRANCH  25  26
ENDBRANCH   1  25
TORSDOF 5
ENDMDL
MODEL 3
REMARK VINA RESULT:      -8.8      3.391      6.088
REMARK  5 active torsions:
REMARK  status: ('A' for Active; 'I' for Inactive)
REMARK    1  A    between atoms: N_2  and  C_4 
REMARK    2  A    between atoms: C_4  and  C_5 
REMARK    3  A    between atoms: C_5  and  N_6 
REMARK    4  A    between atoms: C_11  and  C_12 
REMARK    5  A    between atoms: C_15  and  O_16 
ROOT
HETATM    1  N   UNL     1      -6.345   2.810 -32.882  1.00  0.00    -0.332 N 
HETATM    2  C   UNL     1      -7.140   3.634 -33.673  1.00  0.00     0.279 C 
HETATM    3  O   UNL     1      -6.774   4.651 -34.235  1.00  0.00    -0.265 OA
HETATM    4  C   UNL     1      -8.486   3.041 -33.696  1.00  0.00     0.156 C 
HETATM    5  C   UNL     1      -8.404   1.906 -33.007  1.00  0.00     0.060 C 
HETATM    6  C   UNL     1      -7.042   1.575 -32.525  1.00  0.00     0.161 C 
HETATM    7  O   UNL     1      -9.579   3.545 -34.343  1.00  0.00    -0.303 OA
HETATM    8  C   UNL     1     -10.692   2.727 -34.359  1.00  0.00     0.090 A 
HETATM    9  C   UNL     1     -10.763   1.520 -33.641  1.00  0.00     0.051 A 
HETATM   10  C   UNL     1      -9.597   1.088 -32.840  1.00  0.00     0.196 C 
HETATM   11  O   UNL     1      -9.615   0.125 -32.091  1.00  0.00    -0.287 OA
HETATM   12  C   UNL     1     -11.770   3.134 -35.143  1.00  0.00     0.041 A 
HETATM   13  C   UNL     1     -12.910   2.330 -35.213  1.00  0.00     0.045 A 
HETATM   14  C   UNL     1     -12.965   1.136 -34.496  1.00  0.00     0.117 A 
HETATM   15  F   UNL     1     -14.061   0.371 -34.579  1.00  0.00    -0.206 F 
HETATM   16  C   UNL     1     -11.904   0.721 -33.702  1.00  0.00     0.060 A 
ENDROOT
BRANCH   6  17
HETATM   17  C   UNL     1      -6.480   0.340 -33.207  1.00  0.00    -0.030 A 
HETATM   18  C   UNL     1      -6.890  -0.056 -34.496  1.00  0.00     0.012 A 
HETATM   19  C   UNL     1      -6.434  -1.253 -35.057  1.00  0.00     0.037 A 
HETATM   20  C   UNL     1      -5.565  -2.058 -34.332  1.00  0.00     0.065 A 
HETATM   21  C   UNL     1      -5.137  -1.683 -33.065  1.00  0.00     0.037 A 
HETATM   22  C   UNL     1      -5.597  -0.492 -32.501  1.00  0.00     0.012 A 
BRANCH  20  23
HETATM   23  O   UNL     1      -5.114  -3.244 -34.828  1.00  0.00    -0.361 OA
HETATM   24  H   UNL     1      -4.971  -3.863 -34.094  1.00  0.00     0.217 HD
ENDBRANCH  20  23
ENDBRANCH   6  17
BRANCH   1  25
HETATM   25  C   UNL     1      -4.904   2.974 -32.766  1.00  0.00     0.155 C 
BRANCH  25  26
HETATM   26  C   UNL     1      -4.386   2.855 -31.317  1.00  0.00     0.254 C 
BRANCH  26  27
HETATM   27  N   UNL     1      -3.686   4.124 -30.853  1.00  0.00    -0.077 N 
HETATM   28  C   UNL     1      -4.540   5.358 -30.940  1.00  0.00     0.269 C 
HETATM   29  H   UNL     1      -3.436   3.985 -29.864  1.00  0.00     0.279 HD
HETATM   30  C   UNL     1      -2.380   4.315 -31.581  1.00  0.00     0.269 C 
ENDBRANCH  26  27
ENDBRANCH  25  26
ENDBRANCH   1  25
TORSDOF 5
ENDMDL
MODEL 4
REMARK VINA RESULT:      -8.6      2.714      4.928
REMARK  5 active torsions:
REMARK  status: ('A' for Active; 'I' for Inactive)
REMARK    1  A    between atoms: N_2  and  C_4 
REMARK    2  A    between atoms: C_4  and  C_5 
REMARK    3  A    between atoms: C_5  and  N_6 
REMARK    4  A    between atoms: C_11  and  C_12 
REMARK    5  A    between atoms: C_15  and  O_16 
ROOT
HETATM    1  N   UNL     1      -5.810   3.831 -30.795  1.00  0.00    -0.332 N 
HETATM    2  C   UNL     1      -6.865   3.123 -31.364  1.00  0.00     0.279 C 
HETATM    3  O   UNL     1      -8.023   3.495 -31.424  1.00  0.00    -0.265 OA
HETATM    4  C   UNL     1      -6.310   1.859 -31.873  1.00  0.00     0.156 C 
HETATM    5  C   UNL     1      -4.999   1.913 -31.653  1.00  0.00     0.060 C 
HETATM    6  C   UNL     1      -4.525   3.190 -31.068  1.00  0.00     0.161 C 
HETATM    7  O   UNL     1      -7.010   0.861 -32.489  1.00  0.00    -0.303 OA
HETATM    8  C   UNL     1      -6.248  -0.157 -33.029  1.00  0.00     0.090 A 
HETATM    9  C   UNL     1      -4.857  -0.251 -32.840  1.00  0.00     0.051 A 
HETATM   10  C   UNL     1      -4.166   0.784 -32.042  1.00  0.00     0.196 C 
HETATM   11  O   UNL     1      -2.990   0.714 -31.724  1.00  0.00    -0.287 OA
HETATM   12  C   UNL     1      -6.911  -1.108 -33.802  1.00  0.00     0.041 A 
HETATM   13  C   UNL     1      -6.181  -2.144 -34.391  1.00  0.00     0.045 A 
HETATM   14  C   UNL     1      -4.803  -2.224 -34.195  1.00  0.00     0.117 A 
HETATM   15  F   UNL     1      -4.116  -3.217 -34.772  1.00  0.00    -0.206 F 
HETATM   16  C   UNL     1      -4.130  -1.291 -33.419  1.00  0.00     0.060 A 
ENDROOT
BRANCH   6  17
HETATM   17  C   UNL     1      -3.650   3.969 -32.034  1.00  0.00    -0.030 A 
HETATM   18  C   UNL     1      -4.085   4.314 -33.330  1.00  0.00     0.012 A 
HETATM   19  C   UNL     1      -3.222   4.940 -34.233  1.00  0.00     0.037 A 
HETATM   20  C   UNL     1      -1.919   5.225 -33.845  1.00  0.00     0.065 A 
HETATM   21  C   UNL     1      -1.470   4.906 -32.571  1.00  0.00     0.037 A 
HETATM   22  C   UNL     1      -2.329   4.275 -31.669  1.00  0.00     0.012 A 
BRANCH  20  23
HETATM   23  O   UNL     1      -1.036   5.812 -34.700  1.00  0.00    -0.361 OA
HETATM   24  H   UNL     1      -0.860   5.209 -35.441  1.00  0.00     0.217 HD
ENDBRANCH  20  23
ENDBRANCH   6  17
BRANCH   1  25
HETATM   25  C   UNL     1      -5.935   5.208 -30.343  1.00  0.00     0.155 C 
BRANCH  25  26
HETATM   26  C   UNL     1      -5.909   5.355 -28.806  1.00  0.00     0.254 C 
BRANCH  26  27
HETATM   27  N   UNL     1      -4.595   5.940 -28.310  1.00  0.00    -0.077 N 
HETATM   28  C   UNL     1      -4.709   6.672 -27.002  1.00  0.00     0.269 C 
HETATM   29  H   UNL     1      -3.947   5.152 -28.172  1.00  0.00     0.279 HD
HETATM   30  C   UNL     1      -3.959   6.810 -29.365  1.00  0.00     0.269 C 
ENDBRANCH  26  27
ENDBRANCH  25  26
ENDBRANCH   1  25
TORSDOF 5
ENDMDL
MODEL 5
REMARK VINA RESULT:      -8.4      2.735      4.687
REMARK  5 active torsions:
REMARK  status: ('A' for Active; 'I' for Inactive)
REMARK    1  A    between atoms: N_2  and  C_4 
REMARK    2  A    between atoms: C_4  and  C_5 
REMARK    3  A    between atoms: C_5  and  N_6 
REMARK    4  A    between atoms: C_11  and  C_12 
REMARK    5  A    between atoms: C_15  and  O_16 
ROOT
HETATM    1  N   UNL     1      -7.408   2.857 -31.548  1.00  0.00    -0.332 N 
HETATM    2  C   UNL     1      -8.193   1.910 -32.200  1.00  0.00     0.279 C 
HETATM    3  O   UNL     1      -9.383   2.012 -32.438  1.00  0.00    -0.265 OA
HETATM    4  C   UNL     1      -7.311   0.782 -32.541  1.00  0.00     0.156 C 
HETATM    5  C   UNL     1      -6.088   1.136 -32.155  1.00  0.00     0.060 C 
HETATM    6  C   UNL     1      -5.989   2.508 -31.604  1.00  0.00     0.161 C 
HETATM    7  O   UNL     1      -7.684  -0.370 -33.173  1.00  0.00    -0.303 OA
HETATM    8  C   UNL     1      -6.651  -1.212 -33.534  1.00  0.00     0.090 A 
HETATM    9  C   UNL     1      -5.314  -0.987 -33.158  1.00  0.00     0.051 A 
HETATM   10  C   UNL     1      -4.984   0.207 -32.351  1.00  0.00     0.196 C 
HETATM   11  O   UNL     1      -3.879   0.414 -31.877  1.00  0.00    -0.287 OA
HETATM   12  C   UNL     1      -6.975  -2.317 -34.320  1.00  0.00     0.041 A 
HETATM   13  C   UNL     1      -5.963  -3.187 -34.734  1.00  0.00     0.045 A 
HETATM   14  C   UNL     1      -4.642  -2.950 -34.353  1.00  0.00     0.117 A 
HETATM   15  F   UNL     1      -3.682  -3.786 -34.763  1.00  0.00    -0.206 F 
HETATM   16  C   UNL     1      -4.305  -1.860 -33.562  1.00  0.00     0.060 A 
ENDROOT
BRANCH   6  17
HETATM   17  C   UNL     1      -5.173   3.425 -32.498  1.00  0.00    -0.030 A 
HETATM   18  C   UNL     1      -3.989   4.047 -32.053  1.00  0.00     0.012 A 
HETATM   19  C   UNL     1      -3.315   4.966 -32.862  1.00  0.00     0.037 A 
HETATM   20  C   UNL     1      -3.820   5.266 -34.121  1.00  0.00     0.065 A 
HETATM   21  C   UNL     1      -4.977   4.657 -34.586  1.00  0.00     0.037 A 
HETATM   22  C   UNL     1      -5.656   3.744 -33.777  1.00  0.00     0.012 A 
BRANCH  20  23
HETATM   23  O   UNL     1      -3.210   6.174 -34.933  1.00  0.00    -0.361 OA
HETATM   24  H   UNL     1      -3.812   6.920 -35.087  1.00  0.00     0.217 HD
ENDBRANCH  20  23
ENDBRANCH   6  17
BRANCH   1  25
HETATM   25  C   UNL     1      -7.890   4.189 -31.213  1.00  0.00     0.155 C 
BRANCH  25  26
HETATM   26  C   UNL     1      -7.950   4.457 -29.695  1.00  0.00     0.254 C 
BRANCH  26  27
HETATM   27  N   UNL     1      -7.150   5.690 -29.299  1.00  0.00    -0.077 N 
HETATM   28  C   UNL     1      -5.715   5.402 -28.960  1.00  0.00     0.269 C 
HETATM   29  H   UNL     1      -7.160   6.327 -30.108  1.00  0.00     0.279 HD
HETATM   30  C   UNL     1      -7.833   6.438 -28.182  1.00  0.00     0.269 C 
ENDBRANCH  26  27
ENDBRANCH  25  26
ENDBRANCH   1  25
TORSDOF 5
ENDMDL
MODEL 6
REMARK VINA RESULT:      -8.2      3.575      7.189
REMARK  5 active torsions:
REMARK  status: ('A' for Active; 'I' for Inactive)
REMARK    1  A    between atoms: N_2  and  C_4 
REMARK    2  A    between atoms: C_4  and  C_5 
REMARK    3  A    between atoms: C_5  and  N_6 
REMARK    4  A    between atoms: C_11  and  C_12 
REMARK    5  A    between atoms: C_15  and  O_16 
ROOT
HETATM    1  N   UNL     1      -7.329   2.942 -31.673  1.00  0.00    -0.332 N 
HETATM    2  C   UNL     1      -6.358   3.453 -30.817  1.00  0.00     0.279 C 
HETATM    3  O   UNL     1      -6.377   3.394 -29.601  1.00  0.00    -0.265 OA
HETATM    4  C   UNL     1      -5.319   4.065 -31.661  1.00  0.00     0.156 C 
HETATM    5  C   UNL     1      -5.678   3.831 -32.921  1.00  0.00     0.060 C 
HETATM    6  C   UNL     1      -6.901   3.007 -33.070  1.00  0.00     0.161 C 
HETATM    7  O   UNL     1      -4.193   4.701 -31.221  1.00  0.00    -0.303 OA
HETATM    8  C   UNL     1      -3.283   5.048 -32.200  1.00  0.00     0.090 A 
HETATM    9  C   UNL     1      -3.545   4.898 -33.573  1.00  0.00     0.051 A 
HETATM   10  C   UNL     1      -4.842   4.333 -34.002  1.00  0.00     0.196 C 
HETATM   11  O   UNL     1      -5.202   4.284 -35.167  1.00  0.00    -0.287 OA
HETATM   12  C   UNL     1      -2.054   5.552 -31.777  1.00  0.00     0.041 A 
HETATM   13  C   UNL     1      -1.089   5.895 -32.728  1.00  0.00     0.045 A 
HETATM   14  C   UNL     1      -1.364   5.740 -34.086  1.00  0.00     0.117 A 
HETATM   15  F   UNL     1      -0.427   6.065 -34.985  1.00  0.00    -0.206 F 
HETATM   16  C   UNL     1      -2.587   5.250 -34.523  1.00  0.00     0.060 A 
ENDROOT
BRANCH   6  17
HETATM   17  C   UNL     1      -6.602   1.648 -33.678  1.00  0.00    -0.030 A 
HETATM   18  C   UNL     1      -7.310   1.153 -34.792  1.00  0.00     0.012 A 
HETATM   19  C   UNL     1      -7.086  -0.143 -35.265  1.00  0.00     0.037 A 
HETATM   20  C   UNL     1      -6.150  -0.949 -34.630  1.00  0.00     0.065 A 
HETATM   21  C   UNL     1      -5.431  -0.479 -33.539  1.00  0.00     0.037 A 
HETATM   22  C   UNL     1      -5.659   0.812 -33.059  1.00  0.00     0.012 A 
BRANCH  20  23
HETATM   23  O   UNL     1      -5.917  -2.226 -35.041  1.00  0.00    -0.361 OA
HETATM   24  H   UNL     1      -6.297  -2.352 -35.926  1.00  0.00     0.217 HD
ENDBRANCH  20  23
ENDBRANCH   6  17
BRANCH   1  25
HETATM   25  C   UNL     1      -8.428   2.107 -31.214  1.00  0.00     0.155 C 
BRANCH  25  26
HETATM   26  C   UNL     1      -9.795   2.509 -31.807  1.00  0.00     0.254 C 
BRANCH  26  27
HETATM   27  N   UNL     1     -10.232   1.573 -32.925  1.00  0.00    -0.077 N 
HETATM   28  C   UNL     1     -11.653   1.776 -33.369  1.00  0.00     0.269 C 
HETATM   29  H   UNL     1      -9.621   1.763 -33.732  1.00  0.00     0.279 HD
HETATM   30  C   UNL     1      -9.979   0.134 -32.552  1.00  0.00     0.269 C 
ENDBRANCH  26  27
ENDBRANCH  25  26
ENDBRANCH   1  25
TORSDOF 5
ENDMDL
MODEL 7
REMARK VINA RESULT:      -8.1      1.159      1.561
REMARK  5 active torsions:
REMARK  status: ('A' for Active; 'I' for Inactive)
REMARK    1  A    between atoms: N_2  and  C_4 
REMARK    2  A    between atoms: C_4  and  C_5 
REMARK    3  A    between atoms: C_5  and  N_6 
REMARK    4  A    between atoms: C_11  and  C_12 
REMARK    5  A    between atoms: C_15  and  O_16 
ROOT
HETATM    1  N   UNL     1      -4.721   2.736 -32.592  1.00  0.00    -0.332 N 
HETATM    2  C   UNL     1      -3.943   1.626 -32.275  1.00  0.00     0.279 C 
HETATM    3  O   UNL     1      -2.995   1.615 -31.510  1.00  0.00    -0.265 OA
HETATM    4  C   UNL     1      -4.489   0.488 -33.030  1.00  0.00     0.156 C 
HETATM    5  C   UNL     1      -5.560   0.948 -33.673  1.00  0.00     0.060 C 
HETATM    6  C   UNL     1      -5.893   2.362 -33.382  1.00  0.00     0.161 C 
HETATM    7  O   UNL     1      -4.008  -0.790 -33.023  1.00  0.00    -0.303 OA
HETATM    8  C   UNL     1      -4.784  -1.724 -33.682  1.00  0.00     0.090 A 
HETATM    9  C   UNL     1      -5.919  -1.377 -34.437  1.00  0.00     0.051 A 
HETATM   10  C   UNL     1      -6.317   0.044 -34.529  1.00  0.00     0.196 C 
HETATM   11  O   UNL     1      -7.208   0.448 -35.258  1.00  0.00    -0.287 OA
HETATM   12  C   UNL     1      -4.412  -3.061 -33.561  1.00  0.00     0.041 A 
HETATM   13  C   UNL     1      -5.179  -4.047 -34.187  1.00  0.00     0.045 A 
HETATM   14  C   UNL     1      -6.301  -3.687 -34.932  1.00  0.00     0.117 A 
HETATM   15  F   UNL     1      -7.031  -4.643 -35.520  1.00  0.00    -0.206 F 
HETATM   16  C   UNL     1      -6.679  -2.359 -35.071  1.00  0.00     0.060 A 
ENDROOT
BRANCH   6  17
HETATM   17  C   UNL     1      -7.204   2.494 -32.625  1.00  0.00    -0.030 A 
HETATM   18  C   UNL     1      -8.244   3.335 -33.069  1.00  0.00     0.012 A 
HETATM   19  C   UNL     1      -9.396   3.518 -32.299  1.00  0.00     0.037 A 
HETATM   20  C   UNL     1      -9.514   2.859 -31.082  1.00  0.00     0.065 A 
HETATM   21  C   UNL     1      -8.509   2.016 -30.629  1.00  0.00     0.037 A 
HETATM   22  C   UNL     1      -7.354   1.838 -31.393  1.00  0.00     0.012 A 
BRANCH  20  23
HETATM   23  O   UNL     1     -10.608   3.026 -30.287  1.00  0.00    -0.361 OA
HETATM   24  H   UNL     1     -10.513   3.850 -29.783  1.00  0.00     0.217 HD
ENDBRANCH  20  23
ENDBRANCH   6  17
BRANCH   1  25
HETATM   25  C   UNL     1      -4.597   4.012 -31.904  1.00  0.00     0.155 C 
BRANCH  25  26
HETATM   26  C   UNL     1      -3.428   4.878 -32.420  1.00  0.00     0.254 C 
BRANCH  26  27
HETATM   27  N   UNL     1      -2.396   5.152 -31.336  1.00  0.00    -0.077 N 
HETATM   28  C   UNL     1      -2.681   6.380 -30.520  1.00  0.00     0.269 C 
HETATM   29  H   UNL     1      -2.407   4.342 -30.699  1.00  0.00     0.279 HD
HETATM   30  C   UNL     1      -1.004   5.195 -31.916  1.00  0.00     0.269 C 
ENDBRANCH  26  27
ENDBRANCH  25  26
ENDBRANCH   1  25
TORSDOF 5
ENDMDL
MODEL 8
REMARK VINA RESULT:      -8.0      2.974      5.287
REMARK  5 active torsions:
REMARK  status: ('A' for Active; 'I' for Inactive)
REMARK    1  A    between atoms: N_2  and  C_4 
REMARK    2  A    between atoms: C_4  and  C_5 
REMARK    3  A    between atoms: C_5  and  N_6 
REMARK    4  A    between atoms: C_11  and  C_12 
REMARK    5  A    between atoms: C_15  and  O_16 
ROOT
HETATM    1  N   UNL     1      -8.606   2.145 -31.756  1.00  0.00    -0.332 N 
HETATM    2  C   UNL     1      -9.123   1.132 -32.558  1.00  0.00     0.279 C 
HETATM    3  O   UNL     1     -10.267   1.062 -32.970  1.00  0.00    -0.265 OA
HETATM    4  C   UNL     1      -8.028   0.181 -32.810  1.00  0.00     0.156 C 
HETATM    5  C   UNL     1      -6.948   0.695 -32.227  1.00  0.00     0.060 C 
HETATM    6  C   UNL     1      -7.156   2.026 -31.611  1.00  0.00     0.161 C 
HETATM    7  O   UNL     1      -8.112  -0.971 -33.539  1.00  0.00    -0.303 OA
HETATM    8  C   UNL     1      -6.914  -1.616 -33.775  1.00  0.00     0.090 A 
HETATM    9  C   UNL     1      -5.701  -1.210 -33.191  1.00  0.00     0.051 A 
HETATM   10  C   UNL     1      -5.690  -0.036 -32.293  1.00  0.00     0.196 C 
HETATM   11  O   UNL     1      -4.713   0.310 -31.649  1.00  0.00    -0.287 OA
HETATM   12  C   UNL     1      -6.937  -2.704 -34.646  1.00  0.00     0.041 A 
HETATM   13  C   UNL     1      -5.747  -3.375 -34.938  1.00  0.00     0.045 A 
HETATM   14  C   UNL     1      -4.552  -2.960 -34.352  1.00  0.00     0.117 A 
HETATM   15  F   UNL     1      -3.418  -3.607 -34.647  1.00  0.00    -0.206 F 
HETATM   16  C   UNL     1      -4.514  -1.886 -33.473  1.00  0.00     0.060 A 
ENDROOT
BRANCH   6  17
HETATM   17  C   UNL     1      -6.381   3.116 -32.331  1.00  0.00    -0.030 A 
HETATM   18  C   UNL     1      -6.349   3.208 -33.738  1.00  0.00     0.012 A 
HETATM   19  C   UNL     1      -5.545   4.157 -34.375  1.00  0.00     0.037 A 
HETATM   20  C   UNL     1      -4.771   5.020 -33.610  1.00  0.00     0.065 A 
HETATM   21  C   UNL     1      -4.795   4.957 -32.223  1.00  0.00     0.037 A 
HETATM   22  C   UNL     1      -5.592   4.005 -31.584  1.00  0.00     0.012 A 
BRANCH  20  23
HETATM   23  O   UNL     1      -3.954   5.944 -34.189  1.00  0.00    -0.361 OA
HETATM   24  H   UNL     1      -4.428   6.788 -34.263  1.00  0.00     0.217 HD
ENDBRANCH  20  23
ENDBRANCH   6  17
BRANCH   1  25
HETATM   25  C   UNL     1      -9.343   3.360 -31.442  1.00  0.00     0.155 C 
BRANCH  25  26
HETATM   26  C   UNL     1      -9.614   4.249 -32.674  1.00  0.00     0.254 C 
BRANCH  26  27
HETATM   27  N   UNL     1     -11.017   4.838 -32.657  1.00  0.00    -0.077 N 
HETATM   28  C   UNL     1     -11.995   4.059 -31.823  1.00  0.00     0.269 C 
HETATM   29  H   UNL     1     -10.941   5.782 -32.252  1.00  0.00     0.279 HD
HETATM   30  C   UNL     1     -11.535   5.037 -34.059  1.00  0.00     0.269 C 
ENDBRANCH  26  27
ENDBRANCH  25  26
ENDBRANCH   1  25
TORSDOF 5
ENDMDL
MODEL 9
REMARK VINA RESULT:      -7.9      3.800      7.800
REMARK  5 active torsions:
REMARK  status: ('A' for Active; 'I' for Inactive)
REMARK    1  A    between atoms: N_2  and  C_4 
REMARK    2  A    between atoms: C_4  and  C_5 
REMARK    3  A    between atoms: C_5  and  N_6 
REMARK    4  A    between atoms: C_11  and  C_12 
REMARK    5  A    between atoms: C_15  and  O_16 
ROOT
HETATM    1  N   UNL     1      -6.336   3.119 -31.921  1.00  0.00    -0.332 N 
HETATM    2  C   UNL     1      -6.157   4.134 -30.984  1.00  0.00     0.279 C 
HETATM    3  O   UNL     1      -6.966   4.474 -30.139  1.00  0.00    -0.265 OA
HETATM    4  C   UNL     1      -4.818   4.700 -31.212  1.00  0.00     0.156 C 
HETATM    5  C   UNL     1      -4.269   3.975 -32.184  1.00  0.00     0.060 C 
HETATM    6  C   UNL     1      -5.100   2.840 -32.650  1.00  0.00     0.161 C 
HETATM    7  O   UNL     1      -4.251   5.733 -30.522  1.00  0.00    -0.303 OA
HETATM    8  C   UNL     1      -2.922   5.981 -30.805  1.00  0.00     0.090 A 
HETATM    9  C   UNL     1      -2.225   5.321 -31.833  1.00  0.00     0.051 A 
HETATM   10  C   UNL     1      -2.929   4.307 -32.647  1.00  0.00     0.196 C 
HETATM   11  O   UNL     1      -2.442   3.780 -33.633  1.00  0.00    -0.287 OA
HETATM   12  C   UNL     1      -2.266   6.918 -30.009  1.00  0.00     0.041 A 
HETATM   13  C   UNL     1      -0.914   7.186 -30.238  1.00  0.00     0.045 A 
HETATM   14  C   UNL     1      -0.236   6.524 -31.261  1.00  0.00     0.117 A 
HETATM   15  F   UNL     1       1.061   6.785 -31.463  1.00  0.00    -0.206 F 
HETATM   16  C   UNL     1      -0.878   5.596 -32.069  1.00  0.00     0.060 A 
ENDROOT
BRANCH   6  17
HETATM   17  C   UNL     1      -4.479   1.498 -32.303  1.00  0.00    -0.030 A 
HETATM   18  C   UNL     1      -3.584   1.342 -31.225  1.00  0.00     0.012 A 
HETATM   19  C   UNL     1      -2.948   0.119 -30.993  1.00  0.00     0.037 A 
HETATM   20  C   UNL     1      -3.205  -0.954 -31.837  1.00  0.00     0.065 A 
HETATM   21  C   UNL     1      -4.091  -0.828 -32.898  1.00  0.00     0.037 A 
HETATM   22  C   UNL     1      -4.722   0.394 -33.136  1.00  0.00     0.012 A 
BRANCH  20  23
HETATM   23  O   UNL     1      -2.589  -2.157 -31.664  1.00  0.00    -0.361 OA
HETATM   24  H   UNL     1      -1.670  -2.008 -31.388  1.00  0.00     0.217 HD
ENDBRANCH  20  23
ENDBRANCH   6  17
BRANCH   1  25
HETATM   25  C   UNL     1      -7.470   2.208 -31.894  1.00  0.00     0.155 C 
BRANCH  25  26
HETATM   26  C   UNL     1      -8.606   2.613 -32.857  1.00  0.00     0.254 C 
BRANCH  26  27
HETATM   27  N   UNL     1      -9.141   1.425 -33.643  1.00  0.00    -0.077 N 
HETATM   28  C   UNL     1      -9.668   0.312 -32.782  1.00  0.00     0.269 C 
HETATM   29  H   UNL     1      -9.920   1.772 -34.220  1.00  0.00     0.279 HD
HETATM   30  C   UNL     1      -8.108   0.916 -34.617  1.00  0.00     0.269 C 
ENDBRANCH  26  27
ENDBRANCH  25  26
ENDBRANCH   1  25
TORSDOF 5
ENDMDL
MODEL 10
REMARK VINA RESULT:      -7.9     14.720     16.429
REMARK  5 active torsions:
REMARK  status: ('A' for Active; 'I' for Inactive)
REMARK    1  A    between atoms: N_2  and  C_4 
REMARK    2  A    between atoms: C_4  and  C_5 
REMARK    3  A    between atoms: C_5  and  N_6 
REMARK    4  A    between atoms: C_11  and  C_12 
REMARK    5  A    between atoms: C_15  and  O_16 
ROOT
HETATM    1  N   UNL     1      -6.692 -13.809 -37.189  1.00  0.00    -0.332 N 
HETATM    2  C   UNL     1      -5.807 -14.871 -37.357  1.00  0.00     0.279 C 
HETATM    3  O   UNL     1      -5.544 -15.719 -36.524  1.00  0.00    -0.265 OA
HETATM    4  C   UNL     1      -5.264 -14.767 -38.722  1.00  0.00     0.156 C 
HETATM    5  C   UNL     1      -5.884 -13.735 -39.290  1.00  0.00     0.060 C 
HETATM    6  C   UNL     1      -6.923 -13.100 -38.446  1.00  0.00     0.161 C 
HETATM    7  O   UNL     1      -4.344 -15.601 -39.289  1.00  0.00    -0.303 OA
HETATM    8  C   UNL     1      -4.111 -15.403 -40.636  1.00  0.00     0.090 A 
HETATM    9  C   UNL     1      -4.663 -14.329 -41.357  1.00  0.00     0.051 A 
HETATM   10  C   UNL     1      -5.545 -13.369 -40.658  1.00  0.00     0.196 C 
HETATM   11  O   UNL     1      -5.964 -12.345 -41.171  1.00  0.00    -0.287 OA
HETATM   12  C   UNL     1      -3.302 -16.334 -41.286  1.00  0.00     0.041 A 
HETATM   13  C   UNL     1      -3.056 -16.193 -42.654  1.00  0.00     0.045 A 
HETATM   14  C   UNL     1      -3.611 -15.123 -43.355  1.00  0.00     0.117 A 
HETATM   15  F   UNL     1      -3.373 -15.006 -44.667  1.00  0.00    -0.206 F 
HETATM   16  C   UNL     1      -4.410 -14.182 -42.720  1.00  0.00     0.060 A 
ENDROOT
BRANCH   6  17
HETATM   17  C   UNL     1      -8.318 -13.301 -39.011  1.00  0.00    -0.030 A 
HETATM   18  C   UNL     1      -8.864 -14.584 -39.220  1.00  0.00     0.012 A 
HETATM   19  C   UNL     1     -10.108 -14.741 -39.837  1.00  0.00     0.037 A 
HETATM   20  C   UNL     1     -10.814 -13.617 -40.246  1.00  0.00     0.065 A 
HETATM   21  C   UNL     1     -10.303 -12.343 -40.040  1.00  0.00     0.037 A 
HETATM   22  C   UNL     1      -9.057 -12.184 -39.431  1.00  0.00     0.012 A 
BRANCH  20  23
HETATM   23  O   UNL     1     -12.018 -13.723 -40.874  1.00  0.00    -0.361 OA
HETATM   24  H   UNL     1     -12.220 -14.662 -41.021  1.00  0.00     0.217 HD
ENDBRANCH  20  23
ENDBRANCH   6  17
BRANCH   1  25
HETATM   25  C   UNL     1      -7.558 -13.679 -36.028  1.00  0.00     0.155 C 
BRANCH  25  26
HETATM   26  C   UNL     1      -6.833 -13.138 -34.777  1.00  0.00     0.254 C 
BRANCH  26  27
HETATM   27  N   UNL     1      -6.350 -14.258 -33.867  1.00  0.00    -0.077 N 
HETATM   28  C   UNL     1      -7.434 -15.210 -33.445  1.00  0.00     0.269 C 
HETATM   29  H   UNL     1      -5.649 -14.795 -34.396  1.00  0.00     0.279 HD
HETATM   30  C   UNL     1      -5.620 -13.702 -32.671  1.00  0.00     0.269 C 
ENDBRANCH  26  27
ENDBRANCH  25  26
ENDBRANCH   1  25
TORSDOF 5
ENDMDL
