MODEL 1
REMARK VINA RESULT:      -7.8      0.000      0.000
REMARK  5 active torsions:
REMARK  status: ('A' for Active; 'I' for Inactive)
REMARK    1  A    between atoms: C_2  and  O_3 
REMARK    2  A    between atoms: O_3  and  C_4 
REMARK    3  A    between atoms: C_5  and  N_6 
REMARK       I    between atoms: N_6  and  C_7 
REMARK       I    between atoms: C_7  and  N_8 
REMARK    4  A    between atoms: N_8  and  C_9 
REMARK    5  A    between atoms: C_9  and  C_10 
ROOT
HETATM    1  N   UNL     1      -7.790  -1.048 -34.268  1.00  0.00    -0.306 N 
HETATM    2  C   UNL     1      -7.888   0.123 -34.968  1.00  0.00     0.321 C 
HETATM    3  N   UNL     1      -9.040   0.826 -34.734  1.00  0.00    -0.337 N 
HETATM    4  O   UNL     1      -7.088   0.565 -35.784  1.00  0.00    -0.247 OA
HETATM    5  H   UNL     1      -8.695  -1.508 -34.191  1.00  0.00     0.171 HD
HETATM    6  H   UNL     1      -9.029   1.683 -35.272  1.00  0.00     0.164 HD
ENDROOT
BRANCH   1   7
HETATM    7  C   UNL     1      -6.646  -1.870 -34.236  1.00  0.00     0.069 A 
HETATM    8  C   UNL     1      -5.422  -1.492 -33.663  1.00  0.00     0.096 A 
HETATM    9  C   UNL     1      -4.315  -2.341 -33.757  1.00  0.00     0.039 A 
HETATM   10  C   UNL     1      -4.438  -3.598 -34.348  1.00  0.00     0.003 A 
HETATM   11  C   UNL     1      -5.670  -4.010 -34.847  1.00  0.00     0.002 A 
HETATM   12  C   UNL     1      -6.772  -3.154 -34.783  1.00  0.00     0.032 A 
BRANCH   8  13
HETATM   13  O   UNL     1      -5.211  -0.325 -32.974  1.00  0.00    -0.344 OA
BRANCH  13  14
HETATM   14  C   UNL     1      -5.261  -0.483 -31.547  1.00  0.00     0.121 C 
HETATM   15  C   UNL     1      -6.518   0.236 -31.065  1.00  0.00     0.040 C 
HETATM   16  C   UNL     1      -4.024   0.136 -30.899  1.00  0.00     0.040 C 
ENDBRANCH  13  14
ENDBRANCH   8  13
ENDBRANCH   1   7
BRANCH   3  17
HETATM   17  C   UNL     1      -9.722   0.877 -33.452  1.00  0.00     0.183 C 
BRANCH  17  18
HETATM   18  C   UNL     1     -11.080   1.562 -33.431  1.00  0.00     0.053 A 
HETATM   19  N   UNL     1     -11.155   2.891 -33.145  1.00  0.00    -0.264 NA
HETATM   20  C   UNL     1     -12.370   3.484 -33.202  1.00  0.00     0.118 A 
HETATM   21  C   UNL     1     -13.529   2.825 -33.557  1.00  0.00     0.043 A 
HETATM   22  C   UNL     1     -13.430   1.477 -33.862  1.00  0.00     0.037 A 
HETATM   23 CL   UNL     1     -14.834   0.600 -34.330  1.00  0.00    -0.084 Cl
HETATM   24  C   UNL     1     -12.202   0.828 -33.806  1.00  0.00     0.052 A 
ENDBRANCH  17  18
ENDBRANCH   3  17
TORSDOF 5
ENDMDL
MODEL 2
REMARK VINA RESULT:      -7.5      1.161      1.401
REMARK  5 active torsions:
REMARK  status: ('A' for Active; 'I' for Inactive)
REMARK    1  A    between atoms: C_2  and  O_3 
REMARK    2  A    between atoms: O_3  and  C_4 
REMARK    3  A    between atoms: C_5  and  N_6 
REMARK       I    between atoms: N_6  and  C_7 
REMARK       I    between atoms: C_7  and  N_8 
REMARK    4  A    between atoms: N_8  and  C_9 
REMARK    5  A    between atoms: C_9  and  C_10 
ROOT
HETATM    1  N   UNL     1      -7.790  -1.031 -34.314  1.00  0.00    -0.306 N 
HETATM    2  C   UNL     1      -7.864   0.148 -35.002  1.00  0.00     0.321 C 
HETATM    3  N   UNL     1      -9.018   0.855 -34.790  1.00  0.00    -0.337 N 
HETATM    4  O   UNL     1      -7.040   0.595 -35.791  1.00  0.00    -0.247 OA
HETATM    5  H   UNL     1      -8.700  -1.488 -34.266  1.00  0.00     0.171 HD
HETATM    6  H   UNL     1      -8.988   1.718 -35.317  1.00  0.00     0.164 HD
ENDROOT
BRANCH   1   7
HETATM    7  C   UNL     1      -6.651  -1.860 -34.261  1.00  0.00     0.069 A 
HETATM    8  C   UNL     1      -5.440  -1.494 -33.656  1.00  0.00     0.096 A 
HETATM    9  C   UNL     1      -4.335  -2.348 -33.731  1.00  0.00     0.039 A 
HETATM   10  C   UNL     1      -4.450  -3.599 -34.336  1.00  0.00     0.003 A 
HETATM   11  C   UNL     1      -5.673  -4.000 -34.868  1.00  0.00     0.002 A 
HETATM   12  C   UNL     1      -6.771  -3.138 -34.823  1.00  0.00     0.032 A 
BRANCH   8  13
HETATM   13  O   UNL     1      -5.240  -0.334 -32.952  1.00  0.00    -0.344 OA
BRANCH  13  14
HETATM   14  C   UNL     1      -5.255  -0.516 -31.527  1.00  0.00     0.121 C 
HETATM   15  C   UNL     1      -6.564   0.082 -31.018  1.00  0.00     0.040 C 
HETATM   16  C   UNL     1      -4.069   0.199 -30.885  1.00  0.00     0.040 C 
ENDBRANCH  13  14
ENDBRANCH   8  13
ENDBRANCH   1   7
BRANCH   3  17
HETATM   17  C   UNL     1      -9.734   0.894 -33.526  1.00  0.00     0.183 C 
BRANCH  17  18
HETATM   18  C   UNL     1     -11.213   1.243 -33.592  1.00  0.00     0.053 A 
HETATM   19  N   UNL     1     -12.138   0.244 -33.578  1.00  0.00    -0.264 NA
HETATM   20  C   UNL     1     -13.446   0.592 -33.569  1.00  0.00     0.118 A 
HETATM   21  C   UNL     1     -13.892   1.897 -33.548  1.00  0.00     0.043 A 
HETATM   22  C   UNL     1     -12.935   2.900 -33.545  1.00  0.00     0.037 A 
HETATM   23 CL   UNL     1     -13.425   4.549 -33.501  1.00  0.00    -0.084 Cl
HETATM   24  C   UNL     1     -11.581   2.585 -33.565  1.00  0.00     0.052 A 
ENDBRANCH  17  18
ENDBRANCH   3  17
TORSDOF 5
ENDMDL
MODEL 3
REMARK VINA RESULT:      -7.5      4.392      6.863
REMARK  5 active torsions:
REMARK  status: ('A' for Active; 'I' for Inactive)
REMARK    1  A    between atoms: C_2  and  O_3 
REMARK    2  A    between atoms: O_3  and  C_4 
REMARK    3  A    between atoms: C_5  and  N_6 
REMARK       I    between atoms: N_6  and  C_7 
REMARK       I    between atoms: C_7  and  N_8 
REMARK    4  A    between atoms: N_8  and  C_9 
REMARK    5  A    between atoms: C_9  and  C_10 
ROOT
HETATM    1  N   UNL     1      -4.400  -0.022 -32.913  1.00  0.00    -0.306 N 
HETATM    2  C   UNL     1      -3.608  -0.218 -31.816  1.00  0.00     0.321 C 
HETATM    3  N   UNL     1      -3.111   0.933 -31.264  1.00  0.00    -0.337 N 
HETATM    4  O   UNL     1      -3.283  -1.291 -31.322  1.00  0.00    -0.247 OA
HETATM    5  H   UNL     1      -4.051   0.743 -33.488  1.00  0.00     0.171 HD
HETATM    6  H   UNL     1      -2.553   0.706 -30.452  1.00  0.00     0.164 HD
ENDROOT
BRANCH   1   7
HETATM    7  C   UNL     1      -5.133  -1.034 -33.565  1.00  0.00     0.069 A 
HETATM    8  C   UNL     1      -6.533  -1.066 -33.641  1.00  0.00     0.096 A 
HETATM    9  C   UNL     1      -7.176  -2.157 -34.233  1.00  0.00     0.039 A 
HETATM   10  C   UNL     1      -6.432  -3.180 -34.821  1.00  0.00     0.003 A 
HETATM   11  C   UNL     1      -5.042  -3.114 -34.819  1.00  0.00     0.002 A 
HETATM   12  C   UNL     1      -4.395  -2.041 -34.201  1.00  0.00     0.032 A 
BRANCH   8  13
HETATM   13  O   UNL     1      -7.361  -0.072 -33.186  1.00  0.00    -0.344 OA
BRANCH  13  14
HETATM   14  C   UNL     1      -7.722   0.884 -34.196  1.00  0.00     0.121 C 
HETATM   15  C   UNL     1      -7.160   2.232 -33.751  1.00  0.00     0.040 C 
HETATM   16  C   UNL     1      -9.241   0.969 -34.330  1.00  0.00     0.040 C 
ENDBRANCH  13  14
ENDBRANCH   8  13
ENDBRANCH   1   7
BRANCH   3  17
HETATM   17  C   UNL     1      -3.827   2.197 -31.224  1.00  0.00     0.183 C 
BRANCH  17  18
HETATM   18  C   UNL     1      -3.168   3.375 -31.927  1.00  0.00     0.053 A 
HETATM   19  N   UNL     1      -2.034   3.917 -31.404  1.00  0.00    -0.264 NA
HETATM   20  C   UNL     1      -1.436   4.918 -32.090  1.00  0.00     0.118 A 
HETATM   21  C   UNL     1      -1.895   5.401 -33.298  1.00  0.00     0.043 A 
HETATM   22  C   UNL     1      -3.040   4.824 -33.823  1.00  0.00     0.037 A 
HETATM   23 CL   UNL     1      -3.656   5.368 -35.335  1.00  0.00    -0.084 Cl
HETATM   24  C   UNL     1      -3.691   3.801 -33.144  1.00  0.00     0.052 A 
ENDBRANCH  17  18
ENDBRANCH   3  17
TORSDOF 5
ENDMDL
MODEL 4
REMARK VINA RESULT:      -7.4      5.175      7.478
REMARK  5 active torsions:
REMARK  status: ('A' for Active; 'I' for Inactive)
REMARK    1  A    between atoms: C_2  and  O_3 
REMARK    2  A    between atoms: O_3  and  C_4 
REMARK    3  A    between atoms: C_5  and  N_6 
REMARK       I    between atoms: N_6  and  C_7 
REMARK       I    between atoms: C_7  and  N_8 
REMARK    4  A    between atoms: N_8  and  C_9 
REMARK    5  A    between atoms: C_9  and  C_10 
ROOT
HETATM    1  N   UNL     1      -4.331   0.649 -32.891  1.00  0.00    -0.306 N 
HETATM    2  C   UNL     1      -3.865   0.706 -31.607  1.00  0.00     0.321 C 
HETATM    3  N   UNL     1      -3.342   1.921 -31.249  1.00  0.00    -0.337 N 
HETATM    4  O   UNL     1      -3.838  -0.206 -30.790  1.00  0.00    -0.247 OA
HETATM    5  H   UNL     1      -3.739   1.187 -33.522  1.00  0.00     0.171 HD
HETATM    6  H   UNL     1      -3.037   1.887 -30.285  1.00  0.00     0.164 HD
ENDROOT
BRANCH   1   7
HETATM    7  C   UNL     1      -5.034  -0.441 -33.442  1.00  0.00     0.069 A 
HETATM    8  C   UNL     1      -6.429  -0.488 -33.579  1.00  0.00     0.096 A 
HETATM    9  C   UNL     1      -7.046  -1.649 -34.056  1.00  0.00     0.039 A 
HETATM   10  C   UNL     1      -6.277  -2.736 -34.472  1.00  0.00     0.003 A 
HETATM   11  C   UNL     1      -4.888  -2.664 -34.413  1.00  0.00     0.002 A 
HETATM   12  C   UNL     1      -4.269  -1.519 -33.908  1.00  0.00     0.032 A 
BRANCH   8  13
HETATM   13  O   UNL     1      -7.276   0.553 -33.295  1.00  0.00    -0.344 OA
BRANCH  13  14
HETATM   14  C   UNL     1      -7.857   0.480 -31.983  1.00  0.00     0.121 C 
HETATM   15  C   UNL     1      -9.372   0.496 -32.168  1.00  0.00     0.040 C 
HETATM   16  C   UNL     1      -7.420   1.675 -31.139  1.00  0.00     0.040 C 
ENDBRANCH  13  14
ENDBRANCH   8  13
ENDBRANCH   1   7
BRANCH   3  17
HETATM   17  C   UNL     1      -3.841   3.200 -31.725  1.00  0.00     0.183 C 
BRANCH  17  18
HETATM   18  C   UNL     1      -2.831   4.116 -32.398  1.00  0.00     0.053 A 
HETATM   19  N   UNL     1      -2.996   4.448 -33.708  1.00  0.00    -0.264 NA
HETATM   20  C   UNL     1      -2.118   5.319 -34.257  1.00  0.00     0.118 A 
HETATM   21  C   UNL     1      -1.084   5.908 -33.559  1.00  0.00     0.043 A 
HETATM   22  C   UNL     1      -0.943   5.573 -32.221  1.00  0.00     0.037 A 
HETATM   23 CL   UNL     1       0.315   6.285 -31.289  1.00  0.00    -0.084 Cl
HETATM   24  C   UNL     1      -1.818   4.673 -31.623  1.00  0.00     0.052 A 
ENDBRANCH  17  18
ENDBRANCH   3  17
TORSDOF 5
ENDMDL
MODEL 5
REMARK VINA RESULT:      -7.2      4.978      7.052
REMARK  5 active torsions:
REMARK  status: ('A' for Active; 'I' for Inactive)
REMARK    1  A    between atoms: C_2  and  O_3 
REMARK    2  A    between atoms: O_3  and  C_4 
REMARK    3  A    between atoms: C_5  and  N_6 
REMARK       I    between atoms: N_6  and  C_7 
REMARK       I    between atoms: C_7  and  N_8 
REMARK    4  A    between atoms: N_8  and  C_9 
REMARK    5  A    between atoms: C_9  and  C_10 
ROOT
HETATM    1  N   UNL     1      -5.672   1.934 -32.758  1.00  0.00    -0.306 N 
HETATM    2  C   UNL     1      -6.206   2.406 -31.591  1.00  0.00     0.321 C 
HETATM    3  N   UNL     1      -5.699   3.612 -31.184  1.00  0.00    -0.337 N 
HETATM    4  O   UNL     1      -7.037   1.851 -30.881  1.00  0.00    -0.247 OA
HETATM    5  H   UNL     1      -4.678   2.149 -32.822  1.00  0.00     0.171 HD
HETATM    6  H   UNL     1      -6.154   3.900 -30.328  1.00  0.00     0.164 HD
ENDROOT
BRANCH   1   7
HETATM    7  C   UNL     1      -6.128   0.790 -33.444  1.00  0.00     0.069 A 
HETATM    8  C   UNL     1      -5.804  -0.526 -33.081  1.00  0.00     0.096 A 
HETATM    9  C   UNL     1      -6.231  -1.594 -33.876  1.00  0.00     0.039 A 
HETATM   10  C   UNL     1      -7.045  -1.368 -34.985  1.00  0.00     0.003 A 
HETATM   11  C   UNL     1      -7.436  -0.070 -35.303  1.00  0.00     0.002 A 
HETATM   12  C   UNL     1      -6.986   1.004 -34.531  1.00  0.00     0.032 A 
BRANCH   8  13
HETATM   13  O   UNL     1      -5.093  -0.872 -31.961  1.00  0.00    -0.344 OA
BRANCH  13  14
HETATM   14  C   UNL     1      -3.672  -0.898 -32.166  1.00  0.00     0.121 C 
HETATM   15  C   UNL     1      -3.218  -2.338 -31.942  1.00  0.00     0.040 C 
HETATM   16  C   UNL     1      -2.973   0.030 -31.175  1.00  0.00     0.040 C 
ENDBRANCH  13  14
ENDBRANCH   8  13
ENDBRANCH   1   7
BRANCH   3  17
HETATM   17  C   UNL     1      -5.290   4.674 -32.088  1.00  0.00     0.183 C 
BRANCH  17  18
HETATM   18  C   UNL     1      -3.795   4.933 -32.200  1.00  0.00     0.053 A 
HETATM   19  N   UNL     1      -3.041   5.003 -31.069  1.00  0.00    -0.264 NA
HETATM   20  C   UNL     1      -1.704   5.167 -31.207  1.00  0.00     0.118 A 
HETATM   21  C   UNL     1      -1.063   5.241 -32.426  1.00  0.00     0.043 A 
HETATM   22  C   UNL     1      -1.846   5.149 -33.567  1.00  0.00     0.037 A 
HETATM   23 CL   UNL     1      -1.106   5.216 -35.119  1.00  0.00    -0.084 Cl
HETATM   24  C   UNL     1      -3.223   4.992 -33.468  1.00  0.00     0.052 A 
ENDBRANCH  17  18
ENDBRANCH   3  17
TORSDOF 5
ENDMDL
MODEL 6
REMARK VINA RESULT:      -7.2      2.562      3.029
REMARK  5 active torsions:
REMARK  status: ('A' for Active; 'I' for Inactive)
REMARK    1  A    between atoms: C_2  and  O_3 
REMARK    2  A    between atoms: O_3  and  C_4 
REMARK    3  A    between atoms: C_5  and  N_6 
REMARK       I    between atoms: N_6  and  C_7 
REMARK       I    between atoms: C_7  and  N_8 
REMARK    4  A    between atoms: N_8  and  C_9 
REMARK    5  A    between atoms: C_9  and  C_10 
ROOT
HETATM    1  N   UNL     1      -7.819  -0.850 -34.150  1.00  0.00    -0.306 N 
HETATM    2  C   UNL     1      -7.984   0.302 -34.869  1.00  0.00     0.321 C 
HETATM    3  N   UNL     1      -9.221   0.877 -34.739  1.00  0.00    -0.337 N 
HETATM    4  O   UNL     1      -7.171   0.827 -35.620  1.00  0.00    -0.247 OA
HETATM    5  H   UNL     1      -8.673  -1.406 -34.143  1.00  0.00     0.171 HD
HETATM    6  H   UNL     1      -9.257   1.728 -35.283  1.00  0.00     0.164 HD
ENDROOT
BRANCH   1   7
HETATM    7  C   UNL     1      -6.599  -1.543 -34.014  1.00  0.00     0.069 A 
HETATM    8  C   UNL     1      -5.557  -1.140 -33.165  1.00  0.00     0.096 A 
HETATM    9  C   UNL     1      -4.347  -1.843 -33.163  1.00  0.00     0.039 A 
HETATM   10  C   UNL     1      -4.196  -2.990 -33.941  1.00  0.00     0.003 A 
HETATM   11  C   UNL     1      -5.256  -3.439 -34.724  1.00  0.00     0.002 A 
HETATM   12  C   UNL     1      -6.455  -2.724 -34.754  1.00  0.00     0.032 A 
BRANCH   8  13
HETATM   13  O   UNL     1      -5.628  -0.089 -32.288  1.00  0.00    -0.344 OA
BRANCH  13  14
HETATM   14  C   UNL     1      -4.652   0.936 -32.537  1.00  0.00     0.121 C 
HETATM   15  C   UNL     1      -3.911   1.170 -31.223  1.00  0.00     0.040 C 
HETATM   16  C   UNL     1      -5.335   2.224 -32.989  1.00  0.00     0.040 C 
ENDBRANCH  13  14
ENDBRANCH   8  13
ENDBRANCH   1   7
BRANCH   3  17
HETATM   17  C   UNL     1     -10.009   0.855 -33.519  1.00  0.00     0.183 C 
BRANCH  17  18
HETATM   18  C   UNL     1      -9.776   1.994 -32.537  1.00  0.00     0.053 A 
HETATM   19  N   UNL     1     -10.697   2.991 -32.438  1.00  0.00    -0.264 NA
HETATM   20  C   UNL     1     -10.492   3.952 -31.507  1.00  0.00     0.118 A 
HETATM   21  C   UNL     1      -9.419   3.964 -30.639  1.00  0.00     0.043 A 
HETATM   22  C   UNL     1      -8.502   2.930 -30.744  1.00  0.00     0.037 A 
HETATM   23 CL   UNL     1      -7.151   2.874 -29.680  1.00  0.00    -0.084 Cl
HETATM   24  C   UNL     1      -8.670   1.929 -31.694  1.00  0.00     0.052 A 
ENDBRANCH  17  18
ENDBRANCH   3  17
TORSDOF 5
ENDMDL
MODEL 7
REMARK VINA RESULT:      -7.1      1.989      3.958
REMARK  5 active torsions:
REMARK  status: ('A' for Active; 'I' for Inactive)
REMARK    1  A    between atoms: C_2  and  O_3 
REMARK    2  A    between atoms: O_3  and  C_4 
REMARK    3  A    between atoms: C_5  and  N_6 
REMARK       I    between atoms: N_6  and  C_7 
REMARK       I    between atoms: C_7  and  N_8 
REMARK    4  A    between atoms: N_8  and  C_9 
REMARK    5  A    between atoms: C_9  and  C_10 
ROOT
HETATM    1  N   UNL     1      -9.045   2.077 -32.459  1.00  0.00    -0.306 N 
HETATM    2  C   UNL     1      -8.962   3.074 -33.393  1.00  0.00     0.321 C 
HETATM    3  N   UNL     1     -10.173   3.543 -33.827  1.00  0.00    -0.337 N 
HETATM    4  O   UNL     1      -7.942   3.541 -33.886  1.00  0.00    -0.247 OA
HETATM    5  H   UNL     1      -9.825   1.453 -32.655  1.00  0.00     0.171 HD
HETATM    6  H   UNL     1     -10.028   4.286 -34.498  1.00  0.00     0.164 HD
ENDROOT
BRANCH   1   7
HETATM    7  C   UNL     1      -7.945   1.534 -31.766  1.00  0.00     0.069 A 
HETATM    8  C   UNL     1      -7.368   0.289 -32.059  1.00  0.00     0.096 A 
HETATM    9  C   UNL     1      -6.335  -0.209 -31.259  1.00  0.00     0.039 A 
HETATM   10  C   UNL     1      -5.818   0.560 -30.217  1.00  0.00     0.003 A 
HETATM   11  C   UNL     1      -6.333   1.830 -29.972  1.00  0.00     0.002 A 
HETATM   12  C   UNL     1      -7.386   2.319 -30.749  1.00  0.00     0.032 A 
BRANCH   8  13
HETATM   13  O   UNL     1      -7.729  -0.508 -33.116  1.00  0.00    -0.344 OA
BRANCH  13  14
HETATM   14  C   UNL     1      -6.713  -0.621 -34.125  1.00  0.00     0.121 C 
HETATM   15  C   UNL     1      -7.113   0.313 -35.264  1.00  0.00     0.040 C 
HETATM   16  C   UNL     1      -6.624  -2.058 -34.633  1.00  0.00     0.040 C 
ENDBRANCH  13  14
ENDBRANCH   8  13
ENDBRANCH   1   7
BRANCH   3  17
HETATM   17  C   UNL     1     -11.357   3.650 -32.991  1.00  0.00     0.183 C 
BRANCH  17  18
HETATM   18  C   UNL     1     -12.431   2.592 -33.194  1.00  0.00     0.053 A 
HETATM   19  N   UNL     1     -12.080   1.364 -33.666  1.00  0.00    -0.264 NA
HETATM   20  C   UNL     1     -13.049   0.425 -33.770  1.00  0.00     0.118 A 
HETATM   21  C   UNL     1     -14.362   0.633 -33.401  1.00  0.00     0.043 A 
HETATM   22  C   UNL     1     -14.696   1.883 -32.905  1.00  0.00     0.037 A 
HETATM   23 CL   UNL     1     -16.312   2.203 -32.409  1.00  0.00    -0.084 Cl
HETATM   24  C   UNL     1     -13.732   2.880 -32.792  1.00  0.00     0.052 A 
ENDBRANCH  17  18
ENDBRANCH   3  17
TORSDOF 5
ENDMDL
MODEL 8
REMARK VINA RESULT:      -7.0      5.622      8.070
REMARK  5 active torsions:
REMARK  status: ('A' for Active; 'I' for Inactive)
REMARK    1  A    between atoms: C_2  and  O_3 
REMARK    2  A    between atoms: O_3  and  C_4 
REMARK    3  A    between atoms: C_5  and  N_6 
REMARK       I    between atoms: N_6  and  C_7 
REMARK       I    between atoms: C_7  and  N_8 
REMARK    4  A    between atoms: N_8  and  C_9 
REMARK    5  A    between atoms: C_9  and  C_10 
ROOT
HETATM    1  N   UNL     1      -4.466   1.555 -32.505  1.00  0.00    -0.306 N 
HETATM    2  C   UNL     1      -4.780   2.387 -31.466  1.00  0.00     0.321 C 
HETATM    3  N   UNL     1      -3.764   3.222 -31.084  1.00  0.00    -0.337 N 
HETATM    4  O   UNL     1      -5.836   2.427 -30.845  1.00  0.00    -0.247 OA
HETATM    5  H   UNL     1      -3.501   1.234 -32.441  1.00  0.00     0.171 HD
HETATM    6  H   UNL     1      -4.079   3.815 -30.327  1.00  0.00     0.164 HD
ENDROOT
BRANCH   1   7
HETATM    7  C   UNL     1      -5.382   0.709 -33.161  1.00  0.00     0.069 A 
HETATM    8  C   UNL     1      -5.468  -0.675 -32.946  1.00  0.00     0.096 A 
HETATM    9  C   UNL     1      -6.349  -1.448 -33.709  1.00  0.00     0.039 A 
HETATM   10  C   UNL     1      -7.203  -0.841 -34.629  1.00  0.00     0.003 A 
HETATM   11  C   UNL     1      -7.179   0.542 -34.789  1.00  0.00     0.002 A 
HETATM   12  C   UNL     1      -6.279   1.314 -34.052  1.00  0.00     0.032 A 
BRANCH   8  13
HETATM   13  O   UNL     1      -4.748  -1.363 -32.002  1.00  0.00    -0.344 OA
BRANCH  13  14
HETATM   14  C   UNL     1      -3.448  -1.772 -32.455  1.00  0.00     0.121 C 
HETATM   15  C   UNL     1      -3.321  -3.262 -32.151  1.00  0.00     0.040 C 
HETATM   16  C   UNL     1      -2.358  -0.994 -31.720  1.00  0.00     0.040 C 
ENDBRANCH  13  14
ENDBRANCH   8  13
ENDBRANCH   1   7
BRANCH   3  17
HETATM   17  C   UNL     1      -2.793   3.801 -31.997  1.00  0.00     0.183 C 
BRANCH  17  18
HETATM   18  C   UNL     1      -1.924   4.922 -31.445  1.00  0.00     0.053 A 
HETATM   19  N   UNL     1      -0.700   4.627 -30.927  1.00  0.00    -0.264 NA
HETATM   20  C   UNL     1       0.074   5.655 -30.508  1.00  0.00     0.118 A 
HETATM   21  C   UNL     1      -0.295   6.981 -30.599  1.00  0.00     0.043 A 
HETATM   22  C   UNL     1      -1.537   7.262 -31.146  1.00  0.00     0.037 A 
HETATM   23 CL   UNL     1      -2.052   8.896 -31.305  1.00  0.00    -0.084 Cl
HETATM   24  C   UNL     1      -2.368   6.234 -31.578  1.00  0.00     0.052 A 
ENDBRANCH  17  18
ENDBRANCH   3  17
TORSDOF 5
ENDMDL
MODEL 9
REMARK VINA RESULT:      -6.9     14.100     15.350
REMARK  5 active torsions:
REMARK  status: ('A' for Active; 'I' for Inactive)
REMARK    1  A    between atoms: C_2  and  O_3 
REMARK    2  A    between atoms: O_3  and  C_4 
REMARK    3  A    between atoms: C_5  and  N_6 
REMARK       I    between atoms: N_6  and  C_7 
REMARK       I    between atoms: C_7  and  N_8 
REMARK    4  A    between atoms: N_8  and  C_9 
REMARK    5  A    between atoms: C_9  and  C_10 
ROOT
HETATM    1  N   UNL     1      -3.506 -13.855 -38.730  1.00  0.00    -0.306 N 
HETATM    2  C   UNL     1      -3.831 -12.541 -38.922  1.00  0.00     0.321 C 
HETATM    3  N   UNL     1      -4.506 -12.290 -40.087  1.00  0.00    -0.337 N 
HETATM    4  O   UNL     1      -3.552 -11.597 -38.192  1.00  0.00    -0.247 OA
HETATM    5  H   UNL     1      -3.248 -14.303 -39.608  1.00  0.00     0.171 HD
HETATM    6  H   UNL     1      -4.725 -11.304 -40.146  1.00  0.00     0.164 HD
ENDROOT
BRANCH   1   7
HETATM    7  C   UNL     1      -2.938 -14.377 -37.551  1.00  0.00     0.069 A 
HETATM    8  C   UNL     1      -1.563 -14.370 -37.271  1.00  0.00     0.096 A 
HETATM    9  C   UNL     1      -1.082 -14.991 -36.114  1.00  0.00     0.039 A 
HETATM   10  C   UNL     1      -1.968 -15.551 -35.194  1.00  0.00     0.003 A 
HETATM   11  C   UNL     1      -3.339 -15.491 -35.428  1.00  0.00     0.002 A 
HETATM   12  C   UNL     1      -3.822 -14.899 -36.597  1.00  0.00     0.032 A 
BRANCH   8  13
HETATM   13  O   UNL     1      -0.612 -13.765 -38.052  1.00  0.00    -0.344 OA
BRANCH  13  14
HETATM   14  C   UNL     1       0.033 -14.662 -38.971  1.00  0.00     0.121 C 
HETATM   15  C   UNL     1       1.536 -14.527 -38.741  1.00  0.00     0.040 C 
HETATM   16  C   UNL     1      -0.312 -14.287 -40.411  1.00  0.00     0.040 C 
ENDBRANCH  13  14
ENDBRANCH   8  13
ENDBRANCH   1   7
BRANCH   3  17
HETATM   17  C   UNL     1      -5.462 -13.202 -40.692  1.00  0.00     0.183 C 
BRANCH  17  18
HETATM   18  C   UNL     1      -6.824 -13.304 -40.022  1.00  0.00     0.053 A 
HETATM   19  N   UNL     1      -6.967 -14.079 -38.911  1.00  0.00    -0.264 NA
HETATM   20  C   UNL     1      -8.174 -14.093 -38.301  1.00  0.00     0.118 A 
HETATM   21  C   UNL     1      -9.257 -13.350 -38.723  1.00  0.00     0.043 A 
HETATM   22  C   UNL     1      -9.086 -12.553 -39.845  1.00  0.00     0.037 A 
HETATM   23 CL   UNL     1     -10.391 -11.588 -40.414  1.00  0.00    -0.084 Cl
HETATM   24  C   UNL     1      -7.865 -12.519 -40.508  1.00  0.00     0.052 A 
ENDBRANCH  17  18
ENDBRANCH   3  17
TORSDOF 5
ENDMDL
MODEL 10
REMARK VINA RESULT:      -6.8      3.479      6.429
REMARK  5 active torsions:
REMARK  status: ('A' for Active; 'I' for Inactive)
REMARK    1  A    between atoms: C_2  and  O_3 
REMARK    2  A    between atoms: O_3  and  C_4 
REMARK    3  A    between atoms: C_5  and  N_6 
REMARK       I    between atoms: N_6  and  C_7 
REMARK       I    between atoms: C_7  and  N_8 
REMARK    4  A    between atoms: N_8  and  C_9 
REMARK    5  A    between atoms: C_9  and  C_10 
ROOT
HETATM    1  N   UNL     1      -7.711   2.051 -32.748  1.00  0.00    -0.306 N 
HETATM    2  C   UNL     1      -8.547   0.978 -32.599  1.00  0.00     0.321 C 
HETATM    3  N   UNL     1      -8.832   0.318 -33.765  1.00  0.00    -0.337 N 
HETATM    4  O   UNL     1      -9.074   0.591 -31.563  1.00  0.00    -0.247 OA
HETATM    5  H   UNL     1      -7.903   2.549 -33.616  1.00  0.00     0.171 HD
HETATM    6  H   UNL     1      -9.438  -0.469 -33.569  1.00  0.00     0.164 HD
ENDROOT
BRANCH   1   7
HETATM    7  C   UNL     1      -7.167   2.798 -31.685  1.00  0.00     0.069 A 
HETATM    8  C   UNL     1      -6.038   2.408 -30.947  1.00  0.00     0.096 A 
HETATM    9  C   UNL     1      -5.623   3.171 -29.851  1.00  0.00     0.039 A 
HETATM   10  C   UNL     1      -6.276   4.361 -29.531  1.00  0.00     0.003 A 
HETATM   11  C   UNL     1      -7.347   4.793 -30.309  1.00  0.00     0.002 A 
HETATM   12  C   UNL     1      -7.785   4.019 -31.386  1.00  0.00     0.032 A 
BRANCH   8  13
HETATM   13  O   UNL     1      -5.263   1.313 -31.230  1.00  0.00    -0.344 OA
BRANCH  13  14
HETATM   14  C   UNL     1      -3.852   1.579 -31.183  1.00  0.00     0.121 C 
HETATM   15  C   UNL     1      -3.489   2.279 -32.490  1.00  0.00     0.040 C 
HETATM   16  C   UNL     1      -3.068   0.275 -31.052  1.00  0.00     0.040 C 
ENDBRANCH  13  14
ENDBRANCH   8  13
ENDBRANCH   1   7
BRANCH   3  17
HETATM   17  C   UNL     1      -7.896   0.155 -34.864  1.00  0.00     0.183 C 
BRANCH  17  18
HETATM   18  C   UNL     1      -6.735  -0.800 -34.633  1.00  0.00     0.053 A 
HETATM   19  N   UNL     1      -5.583  -0.332 -34.078  1.00  0.00    -0.264 NA
HETATM   20  C   UNL     1      -4.595  -1.221 -33.823  1.00  0.00     0.118 A 
HETATM   21  C   UNL     1      -4.699  -2.574 -34.069  1.00  0.00     0.043 A 
HETATM   22  C   UNL     1      -5.886  -3.035 -34.617  1.00  0.00     0.037 A 
HETATM   23 CL   UNL     1      -6.087  -4.714 -34.932  1.00  0.00    -0.084 Cl
HETATM   24  C   UNL     1      -6.921  -2.152 -34.904  1.00  0.00     0.052 A 
ENDBRANCH  17  18
ENDBRANCH   3  17
TORSDOF 5
ENDMDL
