MODEL 1
REMARK VINA RESULT:      -8.8      0.000      0.000
REMARK  6 active torsions:
REMARK  status: ('A' for Active; 'I' for Inactive)
REMARK    1  A    between atoms: C_2  and  C_3 
REMARK    2  A    between atoms: C_3  and  C_4 
REMARK    3  A    between atoms: C_7  and  C_8 
REMARK    4  A    between atoms: C_8  and  C_9 
REMARK       I    between atoms: C_9  and  N_10 
REMARK    5  A    between atoms: N_10  and  C_11 
REMARK    6  A    between atoms: C_18  and  C_19 
REMARK       I    between atoms: C_19  and  N_20 
ROOT
HETATM    1  C   UNL     1      -3.824   3.993 -32.507  1.00  0.00     0.035 A 
HETATM    2  C   UNL     1      -2.625   4.137 -31.796  1.00  0.00     0.046 A 
HETATM    3  C   UNL     1      -1.766   5.219 -32.084  1.00  0.00     0.030 A 
HETATM    4  C   UNL     1      -2.133   6.120 -33.076  1.00  0.00     0.063 A 
HETATM    5  N   UNL     1      -1.122   7.038 -33.125  1.00  0.00    -0.277 N 
HETATM    6  H   UNL     1      -1.053   7.844 -33.736  1.00  0.00     0.189 HD
HETATM    7  N   UNL     1      -0.126   6.817 -32.252  1.00  0.00    -0.168 NA
HETATM    8  C   UNL     1      -0.509   5.696 -31.599  1.00  0.00     0.156 A 
HETATM    9  C   UNL     1      -3.319   6.010 -33.805  1.00  0.00     0.034 A 
HETATM   10  C   UNL     1      -4.155   4.929 -33.497  1.00  0.00     0.032 A 
ENDROOT
BRANCH   1  11
HETATM   11  N   UNL     1      -4.754   2.955 -32.278  1.00  0.00    -0.327 N 
HETATM   12  C   UNL     1      -5.417   2.660 -31.099  1.00  0.00     0.226 C 
HETATM   13  O   UNL     1      -5.273   3.225 -30.020  1.00  0.00    -0.273 OA
HETATM   14  H   UNL     1      -4.918   2.320 -33.052  1.00  0.00     0.169 HD
BRANCH  12  15
HETATM   15  C   UNL     1      -6.435   1.540 -31.252  1.00  0.00     0.141 C 
BRANCH  15  16
HETATM   16  C   UNL     1      -6.054   0.463 -32.240  1.00  0.00    -0.049 A 
HETATM   17  C   UNL     1      -4.981  -0.405 -31.995  1.00  0.00     0.008 A 
HETATM   18  C   UNL     1      -4.679  -1.433 -32.891  1.00  0.00     0.007 A 
HETATM   19  C   UNL     1      -5.457  -1.634 -34.038  1.00  0.00    -0.058 A 
HETATM   20  C   UNL     1      -6.534  -0.773 -34.279  1.00  0.00     0.007 A 
HETATM   21  C   UNL     1      -6.832   0.261 -33.388  1.00  0.00     0.008 A 
BRANCH  19  22
HETATM   22  C   UNL     1      -5.151  -2.766 -34.990  1.00  0.00     0.042 C 
BRANCH  22  23
HETATM   23  C   UNL     1      -5.700  -4.156 -34.600  1.00  0.00    -0.019 C 
HETATM   24  C   UNL     1      -4.597  -5.149 -34.226  1.00  0.00     0.010 C 
HETATM   25  C   UNL     1      -6.618  -4.755 -35.666  1.00  0.00     0.010 C 
ENDBRANCH  22  23
ENDBRANCH  19  22
ENDBRANCH  15  16
ENDBRANCH  12  15
ENDBRANCH   1  11
BRANCH   8  26
HETATM   26  C   UNL     1       0.322   5.112 -30.537  1.00  0.00     0.270 C 
HETATM   27  N   UNL     1      -0.136   5.359 -29.271  1.00  0.00    -0.365 N 
HETATM   28  H   UNL     1      -0.984   5.902 -29.159  1.00  0.00     0.159 HD
HETATM   29  H   UNL     1       0.369   4.996 -28.479  1.00  0.00     0.159 HD
HETATM   30  O   UNL     1       1.341   4.457 -30.725  1.00  0.00    -0.266 OA
ENDBRANCH   8  26
TORSDOF 6
ENDMDL
MODEL 2
REMARK VINA RESULT:      -8.6      1.980      2.335
REMARK  6 active torsions:
REMARK  status: ('A' for Active; 'I' for Inactive)
REMARK    1  A    between atoms: C_2  and  C_3 
REMARK    2  A    between atoms: C_3  and  C_4 
REMARK    3  A    between atoms: C_7  and  C_8 
REMARK    4  A    between atoms: C_8  and  C_9 
REMARK       I    between atoms: C_9  and  N_10 
REMARK    5  A    between atoms: N_10  and  C_11 
REMARK    6  A    between atoms: C_18  and  C_19 
REMARK       I    between atoms: C_19  and  N_20 
ROOT
HETATM    1  C   UNL     1      -2.990   4.087 -31.770  1.00  0.00     0.035 A 
HETATM    2  C   UNL     1      -2.960   5.320 -31.105  1.00  0.00     0.046 A 
HETATM    3  C   UNL     1      -2.481   6.466 -31.777  1.00  0.00     0.030 A 
HETATM    4  C   UNL     1      -2.045   6.339 -33.089  1.00  0.00     0.063 A 
HETATM    5  N   UNL     1      -1.647   7.592 -33.463  1.00  0.00    -0.277 N 
HETATM    6  H   UNL     1      -1.271   7.875 -34.360  1.00  0.00     0.189 HD
HETATM    7  N   UNL     1      -1.785   8.528 -32.510  1.00  0.00    -0.168 NA
HETATM    8  C   UNL     1      -2.301   7.847 -31.460  1.00  0.00     0.156 A 
HETATM    9  C   UNL     1      -2.060   5.128 -33.784  1.00  0.00     0.034 A 
HETATM   10  C   UNL     1      -2.543   4.008 -33.096  1.00  0.00     0.032 A 
ENDROOT
BRANCH   1  11
HETATM   11  N   UNL     1      -3.467   2.892 -31.188  1.00  0.00    -0.327 N 
HETATM   12  C   UNL     1      -4.761   2.608 -30.783  1.00  0.00     0.226 C 
HETATM   13  O   UNL     1      -5.720   3.372 -30.814  1.00  0.00    -0.273 OA
HETATM   14  H   UNL     1      -2.774   2.178 -30.996  1.00  0.00     0.169 HD
BRANCH  12  15
HETATM   15  C   UNL     1      -4.934   1.174 -30.304  1.00  0.00     0.141 C 
BRANCH  15  16
HETATM   16  C   UNL     1      -4.991   0.138 -31.402  1.00  0.00    -0.049 A 
HETATM   17  C   UNL     1      -6.129  -0.013 -32.203  1.00  0.00     0.008 A 
HETATM   18  C   UNL     1      -6.144  -0.937 -33.252  1.00  0.00     0.007 A 
HETATM   19  C   UNL     1      -5.013  -1.711 -33.539  1.00  0.00    -0.058 A 
HETATM   20  C   UNL     1      -3.872  -1.555 -32.743  1.00  0.00     0.007 A 
HETATM   21  C   UNL     1      -3.859  -0.638 -31.689  1.00  0.00     0.008 A 
BRANCH  19  22
HETATM   22  C   UNL     1      -5.017  -2.685 -34.692  1.00  0.00     0.042 C 
BRANCH  22  23
HETATM   23  C   UNL     1      -5.584  -4.092 -34.399  1.00  0.00    -0.019 C 
HETATM   24  C   UNL     1      -4.492  -5.137 -34.163  1.00  0.00     0.010 C 
HETATM   25  C   UNL     1      -6.563  -4.576 -35.469  1.00  0.00     0.010 C 
ENDBRANCH  22  23
ENDBRANCH  19  22
ENDBRANCH  15  16
ENDBRANCH  12  15
ENDBRANCH   1  11
BRANCH   8  26
HETATM   26  C   UNL     1      -2.610   8.525 -30.192  1.00  0.00     0.270 C 
HETATM   27  N   UNL     1      -1.648   8.375 -29.230  1.00  0.00    -0.365 N 
HETATM   28  H   UNL     1      -0.822   7.832 -29.451  1.00  0.00     0.159 HD
HETATM   29  H   UNL     1      -1.773   8.806 -28.329  1.00  0.00     0.159 HD
HETATM   30  O   UNL     1      -3.626   9.175 -29.976  1.00  0.00    -0.266 OA
ENDBRANCH   8  26
TORSDOF 6
ENDMDL
MODEL 3
REMARK VINA RESULT:      -8.2      6.014      9.277
REMARK  6 active torsions:
REMARK  status: ('A' for Active; 'I' for Inactive)
REMARK    1  A    between atoms: C_2  and  C_3 
REMARK    2  A    between atoms: C_3  and  C_4 
REMARK    3  A    between atoms: C_7  and  C_8 
REMARK    4  A    between atoms: C_8  and  C_9 
REMARK       I    between atoms: C_9  and  N_10 
REMARK    5  A    between atoms: N_10  and  C_11 
REMARK    6  A    between atoms: C_18  and  C_19 
REMARK       I    between atoms: C_19  and  N_20 
ROOT
HETATM    1  C   UNL     1     -11.546   2.150 -33.404  1.00  0.00     0.035 A 
HETATM    2  C   UNL     1     -12.365   3.133 -32.832  1.00  0.00     0.046 A 
HETATM    3  C   UNL     1     -13.755   2.908 -32.723  1.00  0.00     0.030 A 
HETATM    4  C   UNL     1     -14.278   1.709 -33.190  1.00  0.00     0.063 A 
HETATM    5  N   UNL     1     -15.622   1.783 -32.952  1.00  0.00    -0.277 N 
HETATM    6  H   UNL     1     -16.323   1.082 -33.165  1.00  0.00     0.189 HD
HETATM    7  N   UNL     1     -16.023   2.923 -32.369  1.00  0.00    -0.168 NA
HETATM    8  C   UNL     1     -14.879   3.631 -32.220  1.00  0.00     0.156 A 
HETATM    9  C   UNL     1     -13.494   0.707 -33.765  1.00  0.00     0.034 A 
HETATM   10  C   UNL     1     -12.118   0.953 -33.859  1.00  0.00     0.032 A 
ENDROOT
BRANCH   1  11
HETATM   11  N   UNL     1     -10.146   2.276 -33.540  1.00  0.00    -0.327 N 
HETATM   12  C   UNL     1      -9.174   1.950 -32.610  1.00  0.00     0.226 C 
HETATM   13  O   UNL     1      -9.363   1.536 -31.470  1.00  0.00    -0.273 OA
HETATM   14  H   UNL     1      -9.815   2.702 -34.399  1.00  0.00     0.169 HD
BRANCH  12  15
HETATM   15  C   UNL     1      -7.759   2.111 -33.145  1.00  0.00     0.141 C 
BRANCH  15  16
HETATM   16  C   UNL     1      -7.086   0.826 -33.567  1.00  0.00    -0.049 A 
HETATM   17  C   UNL     1      -7.480   0.144 -34.726  1.00  0.00     0.008 A 
HETATM   18  C   UNL     1      -6.809  -1.012 -35.134  1.00  0.00     0.007 A 
HETATM   19  C   UNL     1      -5.713  -1.497 -34.408  1.00  0.00    -0.058 A 
HETATM   20  C   UNL     1      -5.315  -0.811 -33.255  1.00  0.00     0.007 A 
HETATM   21  C   UNL     1      -5.990   0.340 -32.841  1.00  0.00     0.008 A 
BRANCH  19  22
HETATM   22  C   UNL     1      -4.968  -2.727 -34.867  1.00  0.00     0.042 C 
BRANCH  22  23
HETATM   23  C   UNL     1      -5.583  -4.088 -34.475  1.00  0.00    -0.019 C 
HETATM   24  C   UNL     1      -4.532  -5.125 -34.076  1.00  0.00     0.010 C 
HETATM   25  C   UNL     1      -6.511  -4.654 -35.549  1.00  0.00     0.010 C 
ENDBRANCH  22  23
ENDBRANCH  19  22
ENDBRANCH  15  16
ENDBRANCH  12  15
ENDBRANCH   1  11
BRANCH   8  26
HETATM   26  C   UNL     1     -14.886   4.965 -31.603  1.00  0.00     0.270 C 
HETATM   27  N   UNL     1     -15.420   5.944 -32.396  1.00  0.00    -0.365 N 
HETATM   28  H   UNL     1     -15.764   5.691 -33.315  1.00  0.00     0.159 HD
HETATM   29  H   UNL     1     -15.468   6.891 -32.055  1.00  0.00     0.159 HD
HETATM   30  O   UNL     1     -14.460   5.221 -30.482  1.00  0.00    -0.266 OA
ENDBRANCH   8  26
TORSDOF 6
ENDMDL
MODEL 4
REMARK VINA RESULT:      -8.2      2.265      2.638
REMARK  6 active torsions:
REMARK  status: ('A' for Active; 'I' for Inactive)
REMARK    1  A    between atoms: C_2  and  C_3 
REMARK    2  A    between atoms: C_3  and  C_4 
REMARK    3  A    between atoms: C_7  and  C_8 
REMARK    4  A    between atoms: C_8  and  C_9 
REMARK       I    between atoms: C_9  and  N_10 
REMARK    5  A    between atoms: N_10  and  C_11 
REMARK    6  A    between atoms: C_18  and  C_19 
REMARK       I    between atoms: C_19  and  N_20 
ROOT
HETATM    1  C   UNL     1      -3.907   4.595 -32.199  1.00  0.00     0.035 A 
HETATM    2  C   UNL     1      -3.643   5.473 -31.139  1.00  0.00     0.046 A 
HETATM    3  C   UNL     1      -2.330   5.956 -30.942  1.00  0.00     0.030 A 
HETATM    4  C   UNL     1      -1.327   5.543 -31.809  1.00  0.00     0.063 A 
HETATM    5  N   UNL     1      -0.191   6.165 -31.372  1.00  0.00    -0.277 N 
HETATM    6  H   UNL     1       0.739   6.095 -31.769  1.00  0.00     0.189 HD
HETATM    7  N   UNL     1      -0.363   6.949 -30.296  1.00  0.00    -0.168 NA
HETATM    8  C   UNL     1      -1.682   6.832 -30.017  1.00  0.00     0.156 A 
HETATM    9  C   UNL     1      -1.552   4.671 -32.875  1.00  0.00     0.034 A 
HETATM   10  C   UNL     1      -2.863   4.209 -33.051  1.00  0.00     0.032 A 
ENDROOT
BRANCH   1  11
HETATM   11  N   UNL     1      -5.188   4.074 -32.486  1.00  0.00    -0.327 N 
HETATM   12  C   UNL     1      -5.832   4.044 -33.712  1.00  0.00     0.226 C 
HETATM   13  O   UNL     1      -5.418   4.516 -34.766  1.00  0.00    -0.273 OA
HETATM   14  H   UNL     1      -5.719   3.728 -31.696  1.00  0.00     0.169 HD
BRANCH  12  15
HETATM   15  C   UNL     1      -7.158   3.300 -33.670  1.00  0.00     0.141 C 
BRANCH  15  16
HETATM   16  C   UNL     1      -7.052   1.799 -33.811  1.00  0.00    -0.049 A 
HETATM   17  C   UNL     1      -6.905   0.971 -32.691  1.00  0.00     0.008 A 
HETATM   18  C   UNL     1      -6.868  -0.419 -32.834  1.00  0.00     0.007 A 
HETATM   19  C   UNL     1      -7.003  -1.012 -34.096  1.00  0.00    -0.058 A 
HETATM   20  C   UNL     1      -7.158  -0.184 -35.214  1.00  0.00     0.007 A 
HETATM   21  C   UNL     1      -7.187   1.206 -35.073  1.00  0.00     0.008 A 
BRANCH  19  22
HETATM   22  C   UNL     1      -6.996  -2.514 -34.247  1.00  0.00     0.042 C 
BRANCH  22  23
HETATM   23  C   UNL     1      -5.815  -3.117 -35.038  1.00  0.00    -0.019 C 
HETATM   24  C   UNL     1      -6.001  -4.605 -35.343  1.00  0.00     0.010 C 
HETATM   25  C   UNL     1      -4.462  -2.875 -34.369  1.00  0.00     0.010 C 
ENDBRANCH  22  23
ENDBRANCH  19  22
ENDBRANCH  15  16
ENDBRANCH  12  15
ENDBRANCH   1  11
BRANCH   8  26
HETATM   26  C   UNL     1      -2.288   7.553 -28.889  1.00  0.00     0.270 C 
HETATM   27  N   UNL     1      -2.662   6.747 -27.847  1.00  0.00    -0.365 N 
HETATM   28  H   UNL     1      -2.498   5.750 -27.922  1.00  0.00     0.159 HD
HETATM   29  H   UNL     1      -3.084   7.155 -27.029  1.00  0.00     0.159 HD
HETATM   30  O   UNL     1      -2.462   8.765 -28.844  1.00  0.00    -0.266 OA
ENDBRANCH   8  26
TORSDOF 6
ENDMDL
MODEL 5
REMARK VINA RESULT:      -8.2      2.347      3.837
REMARK  6 active torsions:
REMARK  status: ('A' for Active; 'I' for Inactive)
REMARK    1  A    between atoms: C_2  and  C_3 
REMARK    2  A    between atoms: C_3  and  C_4 
REMARK    3  A    between atoms: C_7  and  C_8 
REMARK    4  A    between atoms: C_8  and  C_9 
REMARK       I    between atoms: C_9  and  N_10 
REMARK    5  A    between atoms: N_10  and  C_11 
REMARK    6  A    between atoms: C_18  and  C_19 
REMARK       I    between atoms: C_19  and  N_20 
ROOT
HETATM    1  C   UNL     1      -3.781   3.250 -32.299  1.00  0.00     0.035 A 
HETATM    2  C   UNL     1      -2.618   3.601 -31.600  1.00  0.00     0.046 A 
HETATM    3  C   UNL     1      -1.923   4.780 -31.946  1.00  0.00     0.030 A 
HETATM    4  C   UNL     1      -2.412   5.567 -32.980  1.00  0.00     0.063 A 
HETATM    5  N   UNL     1      -1.543   6.618 -33.079  1.00  0.00    -0.277 N 
HETATM    6  H   UNL     1      -1.589   7.394 -33.730  1.00  0.00     0.189 HD
HETATM    7  N   UNL     1      -0.529   6.587 -32.200  1.00  0.00    -0.168 NA
HETATM    8  C   UNL     1      -0.750   5.456 -31.490  1.00  0.00     0.156 A 
HETATM    9  C   UNL     1      -3.567   5.251 -33.698  1.00  0.00     0.034 A 
HETATM   10  C   UNL     1      -4.240   4.078 -33.334  1.00  0.00     0.032 A 
ENDROOT
BRANCH   1  11
HETATM   11  N   UNL     1      -4.553   2.102 -32.015  1.00  0.00    -0.327 N 
HETATM   12  C   UNL     1      -4.227   0.781 -32.274  1.00  0.00     0.226 C 
HETATM   13  O   UNL     1      -3.222   0.376 -32.847  1.00  0.00    -0.273 OA
HETATM   14  H   UNL     1      -5.473   2.265 -31.623  1.00  0.00     0.169 HD
BRANCH  12  15
HETATM   15  C   UNL     1      -5.250  -0.202 -31.725  1.00  0.00     0.141 C 
BRANCH  15  16
HETATM   16  C   UNL     1      -6.670   0.030 -32.185  1.00  0.00    -0.049 A 
HETATM   17  C   UNL     1      -7.071  -0.274 -33.493  1.00  0.00     0.008 A 
HETATM   18  C   UNL     1      -8.402  -0.108 -33.885  1.00  0.00     0.007 A 
HETATM   19  C   UNL     1      -9.366   0.341 -32.974  1.00  0.00    -0.058 A 
HETATM   20  C   UNL     1      -8.967   0.638 -31.666  1.00  0.00     0.007 A 
HETATM   21  C   UNL     1      -7.635   0.480 -31.274  1.00  0.00     0.008 A 
BRANCH  19  22
HETATM   22  C   UNL     1     -10.810   0.489 -33.390  1.00  0.00     0.042 C 
BRANCH  22  23
HETATM   23  C   UNL     1     -11.097   1.497 -34.524  1.00  0.00    -0.019 C 
HETATM   24  C   UNL     1     -10.640   2.918 -34.188  1.00  0.00     0.010 C 
HETATM   25  C   UNL     1     -12.560   1.498 -34.966  1.00  0.00     0.010 C 
ENDBRANCH  22  23
ENDBRANCH  19  22
ENDBRANCH  15  16
ENDBRANCH  12  15
ENDBRANCH   1  11
BRANCH   8  26
HETATM   26  C   UNL     1       0.153   5.053 -30.402  1.00  0.00     0.270 C 
HETATM   27  N   UNL     1      -0.256   5.454 -29.159  1.00  0.00    -0.365 N 
HETATM   28  H   UNL     1      -1.119   5.977 -29.078  1.00  0.00     0.159 HD
HETATM   29  H   UNL     1       0.300   5.221 -28.353  1.00  0.00     0.159 HD
HETATM   30  O   UNL     1       1.189   4.415 -30.552  1.00  0.00    -0.266 OA
ENDBRANCH   8  26
TORSDOF 6
ENDMDL
MODEL 6
REMARK VINA RESULT:      -8.2      3.000      9.281
REMARK  6 active torsions:
REMARK  status: ('A' for Active; 'I' for Inactive)
REMARK    1  A    between atoms: C_2  and  C_3 
REMARK    2  A    between atoms: C_3  and  C_4 
REMARK    3  A    between atoms: C_7  and  C_8 
REMARK    4  A    between atoms: C_8  and  C_9 
REMARK       I    between atoms: C_9  and  N_10 
REMARK    5  A    between atoms: N_10  and  C_11 
REMARK    6  A    between atoms: C_18  and  C_19 
REMARK       I    between atoms: C_19  and  N_20 
ROOT
HETATM    1  C   UNL     1      -4.348   2.915 -31.973  1.00  0.00     0.035 A 
HETATM    2  C   UNL     1      -5.027   1.953 -32.733  1.00  0.00     0.046 A 
HETATM    3  C   UNL     1      -6.240   1.411 -32.253  1.00  0.00     0.030 A 
HETATM    4  C   UNL     1      -6.731   1.848 -31.030  1.00  0.00     0.063 A 
HETATM    5  N   UNL     1      -7.894   1.157 -30.838  1.00  0.00    -0.277 N 
HETATM    6  H   UNL     1      -8.524   1.221 -30.046  1.00  0.00     0.189 HD
HETATM    7  N   UNL     1      -8.207   0.307 -31.829  1.00  0.00    -0.168 NA
HETATM    8  C   UNL     1      -7.194   0.453 -32.714  1.00  0.00     0.156 A 
HETATM    9  C   UNL     1      -6.083   2.804 -30.245  1.00  0.00     0.034 A 
HETATM   10  C   UNL     1      -4.884   3.328 -30.745  1.00  0.00     0.032 A 
ENDROOT
BRANCH   1  11
HETATM   11  N   UNL     1      -3.140   3.526 -32.377  1.00  0.00    -0.327 N 
HETATM   12  C   UNL     1      -2.984   4.610 -33.224  1.00  0.00     0.226 C 
HETATM   13  O   UNL     1      -3.876   5.206 -33.819  1.00  0.00    -0.273 OA
HETATM   14  H   UNL     1      -2.285   3.089 -32.050  1.00  0.00     0.169 HD
BRANCH  12  15
HETATM   15  C   UNL     1      -1.539   5.070 -33.343  1.00  0.00     0.141 C 
BRANCH  15  16
HETATM   16  C   UNL     1      -0.977   5.733 -32.107  1.00  0.00    -0.049 A 
HETATM   17  C   UNL     1       0.198   5.269 -31.501  1.00  0.00     0.008 A 
HETATM   18  C   UNL     1       0.736   5.930 -30.394  1.00  0.00     0.007 A 
HETATM   19  C   UNL     1       0.128   7.083 -29.883  1.00  0.00    -0.058 A 
HETATM   20  C   UNL     1      -1.041   7.551 -30.493  1.00  0.00     0.007 A 
HETATM   21  C   UNL     1      -1.586   6.887 -31.596  1.00  0.00     0.008 A 
BRANCH  19  22
HETATM   22  C   UNL     1       0.728   7.816 -28.708  1.00  0.00     0.042 C 
BRANCH  22  23
HETATM   23  C   UNL     1       0.982   6.977 -27.436  1.00  0.00    -0.019 C 
HETATM   24  C   UNL     1      -0.290   6.331 -26.884  1.00  0.00     0.010 C 
HETATM   25  C   UNL     1       1.702   7.762 -26.338  1.00  0.00     0.010 C 
ENDBRANCH  22  23
ENDBRANCH  19  22
ENDBRANCH  15  16
ENDBRANCH  12  15
ENDBRANCH   1  11
BRANCH   8  26
HETATM   26  C   UNL     1      -7.161  -0.315 -33.967  1.00  0.00     0.270 C 
HETATM   27  N   UNL     1      -7.343   0.443 -35.091  1.00  0.00    -0.365 N 
HETATM   28  H   UNL     1      -7.479   1.441 -34.986  1.00  0.00     0.159 HD
HETATM   29  H   UNL     1      -7.335   0.002 -35.996  1.00  0.00     0.159 HD
HETATM   30  O   UNL     1      -6.989  -1.527 -34.041  1.00  0.00    -0.266 OA
ENDBRANCH   8  26
TORSDOF 6
ENDMDL
MODEL 7
REMARK VINA RESULT:      -8.2      3.316      8.899
REMARK  6 active torsions:
REMARK  status: ('A' for Active; 'I' for Inactive)
REMARK    1  A    between atoms: C_2  and  C_3 
REMARK    2  A    between atoms: C_3  and  C_4 
REMARK    3  A    between atoms: C_7  and  C_8 
REMARK    4  A    between atoms: C_8  and  C_9 
REMARK       I    between atoms: C_9  and  N_10 
REMARK    5  A    between atoms: N_10  and  C_11 
REMARK    6  A    between atoms: C_18  and  C_19 
REMARK       I    between atoms: C_19  and  N_20 
ROOT
HETATM    1  C   UNL     1      -3.854   4.107 -33.079  1.00  0.00     0.035 A 
HETATM    2  C   UNL     1      -3.400   2.900 -32.532  1.00  0.00     0.046 A 
HETATM    3  C   UNL     1      -4.259   1.779 -32.502  1.00  0.00     0.030 A 
HETATM    4  C   UNL     1      -5.541   1.904 -33.019  1.00  0.00     0.063 A 
HETATM    5  N   UNL     1      -6.121   0.677 -32.853  1.00  0.00    -0.277 N 
HETATM    6  H   UNL     1      -7.060   0.400 -33.116  1.00  0.00     0.189 HD
HETATM    7  N   UNL     1      -5.329  -0.239 -32.273  1.00  0.00    -0.168 NA
HETATM    8  C   UNL     1      -4.172   0.426 -32.050  1.00  0.00     0.156 A 
HETATM    9  C   UNL     1      -6.028   3.089 -33.573  1.00  0.00     0.034 A 
HETATM   10  C   UNL     1      -5.157   4.185 -33.593  1.00  0.00     0.032 A 
ENDROOT
BRANCH   1  11
HETATM   11  N   UNL     1      -3.065   5.275 -33.169  1.00  0.00    -0.327 N 
HETATM   12  C   UNL     1      -2.226   5.650 -34.204  1.00  0.00     0.226 C 
HETATM   13  O   UNL     1      -1.980   5.001 -35.216  1.00  0.00    -0.273 OA
HETATM   14  H   UNL     1      -3.073   5.885 -32.359  1.00  0.00     0.169 HD
BRANCH  12  15
HETATM   15  C   UNL     1      -1.621   7.032 -34.010  1.00  0.00     0.141 C 
BRANCH  15  16
HETATM   16  C   UNL     1      -1.325   7.403 -32.576  1.00  0.00    -0.049 A 
HETATM   17  C   UNL     1      -2.149   8.285 -31.866  1.00  0.00     0.008 A 
HETATM   18  C   UNL     1      -1.895   8.572 -30.522  1.00  0.00     0.007 A 
HETATM   19  C   UNL     1      -0.826   7.964 -29.851  1.00  0.00    -0.058 A 
HETATM   20  C   UNL     1      -0.006   7.077 -30.558  1.00  0.00     0.007 A 
HETATM   21  C   UNL     1      -0.255   6.796 -31.904  1.00  0.00     0.008 A 
BRANCH  19  22
HETATM   22  C   UNL     1      -0.570   8.249 -28.391  1.00  0.00     0.042 C 
BRANCH  22  23
HETATM   23  C   UNL     1       0.556   7.431 -27.720  1.00  0.00    -0.019 C 
HETATM   24  C   UNL     1       0.030   6.416 -26.704  1.00  0.00     0.010 C 
HETATM   25  C   UNL     1       1.635   8.310 -27.088  1.00  0.00     0.010 C 
ENDBRANCH  22  23
ENDBRANCH  19  22
ENDBRANCH  15  16
ENDBRANCH  12  15
ENDBRANCH   1  11
BRANCH   8  26
HETATM   26  C   UNL     1      -3.022  -0.238 -31.421  1.00  0.00     0.270 C 
HETATM   27  N   UNL     1      -2.973  -1.590 -31.634  1.00  0.00    -0.365 N 
HETATM   28  H   UNL     1      -3.702  -2.020 -32.190  1.00  0.00     0.159 HD
HETATM   29  H   UNL     1      -2.218  -2.128 -31.241  1.00  0.00     0.159 HD
HETATM   30  O   UNL     1      -2.162   0.330 -30.758  1.00  0.00    -0.266 OA
ENDBRANCH   8  26
TORSDOF 6
ENDMDL
MODEL 8
REMARK VINA RESULT:      -8.0      1.681      2.476
REMARK  6 active torsions:
REMARK  status: ('A' for Active; 'I' for Inactive)
REMARK    1  A    between atoms: C_2  and  C_3 
REMARK    2  A    between atoms: C_3  and  C_4 
REMARK    3  A    between atoms: C_7  and  C_8 
REMARK    4  A    between atoms: C_8  and  C_9 
REMARK       I    between atoms: C_9  and  N_10 
REMARK    5  A    between atoms: N_10  and  C_11 
REMARK    6  A    between atoms: C_18  and  C_19 
REMARK       I    between atoms: C_19  and  N_20 
ROOT
HETATM    1  C   UNL     1      -5.982   4.165 -32.046  1.00  0.00     0.035 A 
HETATM    2  C   UNL     1      -4.607   4.279 -32.288  1.00  0.00     0.046 A 
HETATM    3  C   UNL     1      -3.971   5.531 -32.138  1.00  0.00     0.030 A 
HETATM    4  C   UNL     1      -4.733   6.626 -31.752  1.00  0.00     0.063 A 
HETATM    5  N   UNL     1      -3.857   7.674 -31.692  1.00  0.00    -0.277 N 
HETATM    6  H   UNL     1      -4.065   8.635 -31.443  1.00  0.00     0.189 HD
HETATM    7  N   UNL     1      -2.590   7.360 -32.004  1.00  0.00    -0.168 NA
HETATM    8  C   UNL     1      -2.643   6.037 -32.282  1.00  0.00     0.156 A 
HETATM    9  C   UNL     1      -6.104   6.552 -31.501  1.00  0.00     0.034 A 
HETATM   10  C   UNL     1      -6.710   5.298 -31.655  1.00  0.00     0.032 A 
ENDROOT
BRANCH   1  11
HETATM   11  N   UNL     1      -6.701   2.954 -32.154  1.00  0.00    -0.327 N 
HETATM   12  C   UNL     1      -7.092   2.110 -31.127  1.00  0.00     0.226 C 
HETATM   13  O   UNL     1      -6.835   2.243 -29.935  1.00  0.00    -0.273 OA
HETATM   14  H   UNL     1      -6.912   2.639 -33.094  1.00  0.00     0.169 HD
BRANCH  12  15
HETATM   15  C   UNL     1      -7.954   0.951 -31.605  1.00  0.00     0.141 C 
BRANCH  15  16
HETATM   16  C   UNL     1      -7.256  -0.029 -32.519  1.00  0.00    -0.049 A 
HETATM   17  C   UNL     1      -7.752  -0.312 -33.798  1.00  0.00     0.008 A 
HETATM   18  C   UNL     1      -7.063  -1.176 -34.653  1.00  0.00     0.007 A 
HETATM   19  C   UNL     1      -5.850  -1.755 -34.259  1.00  0.00    -0.058 A 
HETATM   20  C   UNL     1      -5.350  -1.466 -32.984  1.00  0.00     0.007 A 
HETATM   21  C   UNL     1      -6.043  -0.609 -32.125  1.00  0.00     0.008 A 
BRANCH  19  22
HETATM   22  C   UNL     1      -5.089  -2.663 -35.195  1.00  0.00     0.042 C 
BRANCH  22  23
HETATM   23  C   UNL     1      -5.385  -4.174 -35.076  1.00  0.00    -0.019 C 
HETATM   24  C   UNL     1      -6.849  -4.469 -34.747  1.00  0.00     0.010 C 
HETATM   25  C   UNL     1      -4.461  -4.887 -34.089  1.00  0.00     0.010 C 
ENDBRANCH  22  23
ENDBRANCH  19  22
ENDBRANCH  15  16
ENDBRANCH  12  15
ENDBRANCH   1  11
BRANCH   8  26
HETATM   26  C   UNL     1      -1.436   5.292 -32.670  1.00  0.00     0.270 C 
HETATM   27  N   UNL     1      -1.247   5.204 -34.023  1.00  0.00    -0.365 N 
HETATM   28  H   UNL     1      -1.922   5.642 -34.637  1.00  0.00     0.159 HD
HETATM   29  H   UNL     1      -0.444   4.713 -34.382  1.00  0.00     0.159 HD
HETATM   30  O   UNL     1      -0.645   4.782 -31.886  1.00  0.00    -0.266 OA
ENDBRANCH   8  26
TORSDOF 6
ENDMDL
MODEL 9
REMARK VINA RESULT:      -7.9      4.874      7.924
REMARK  6 active torsions:
REMARK  status: ('A' for Active; 'I' for Inactive)
REMARK    1  A    between atoms: C_2  and  C_3 
REMARK    2  A    between atoms: C_3  and  C_4 
REMARK    3  A    between atoms: C_7  and  C_8 
REMARK    4  A    between atoms: C_8  and  C_9 
REMARK       I    between atoms: C_9  and  N_10 
REMARK    5  A    between atoms: N_10  and  C_11 
REMARK    6  A    between atoms: C_18  and  C_19 
REMARK       I    between atoms: C_19  and  N_20 
ROOT
HETATM    1  C   UNL     1      -6.765   0.397 -33.403  1.00  0.00     0.035 A 
HETATM    2  C   UNL     1      -5.625  -0.190 -32.838  1.00  0.00     0.046 A 
HETATM    3  C   UNL     1      -5.149  -1.420 -33.342  1.00  0.00     0.030 A 
HETATM    4  C   UNL     1      -5.831  -2.023 -34.391  1.00  0.00     0.063 A 
HETATM    5  N   UNL     1      -5.147  -3.177 -34.653  1.00  0.00    -0.277 N 
HETATM    6  H   UNL     1      -5.361  -3.871 -35.360  1.00  0.00     0.189 HD
HETATM    7  N   UNL     1      -4.077  -3.381 -33.868  1.00  0.00    -0.168 NA
HETATM    8  C   UNL     1      -4.063  -2.302 -33.051  1.00  0.00     0.156 A 
HETATM    9  C   UNL     1      -6.970  -1.469 -34.979  1.00  0.00     0.034 A 
HETATM   10  C   UNL     1      -7.419  -0.247 -34.463  1.00  0.00     0.032 A 
ENDROOT
BRANCH   1  11
HETATM   11  N   UNL     1      -7.305   1.632 -32.979  1.00  0.00    -0.327 N 
HETATM   12  C   UNL     1      -6.977   2.897 -33.436  1.00  0.00     0.226 C 
HETATM   13  O   UNL     1      -6.114   3.175 -34.262  1.00  0.00    -0.273 OA
HETATM   14  H   UNL     1      -7.972   1.592 -32.217  1.00  0.00     0.169 HD
BRANCH  12  15
HETATM   15  C   UNL     1      -7.846   3.991 -32.833  1.00  0.00     0.141 C 
BRANCH  15  16
HETATM   16  C   UNL     1      -9.329   3.836 -33.078  1.00  0.00    -0.049 A 
HETATM   17  C   UNL     1      -9.839   3.662 -34.371  1.00  0.00     0.008 A 
HETATM   18  C   UNL     1     -11.207   3.461 -34.575  1.00  0.00     0.007 A 
HETATM   19  C   UNL     1     -12.091   3.403 -33.490  1.00  0.00    -0.058 A 
HETATM   20  C   UNL     1     -11.580   3.569 -32.198  1.00  0.00     0.007 A 
HETATM   21  C   UNL     1     -10.214   3.778 -31.993  1.00  0.00     0.008 A 
BRANCH  19  22
HETATM   22  C   UNL     1     -13.564   3.153 -33.708  1.00  0.00     0.042 C 
BRANCH  22  23
HETATM   23  C   UNL     1     -14.131   1.843 -33.120  1.00  0.00    -0.019 C 
HETATM   24  C   UNL     1     -14.427   0.789 -34.189  1.00  0.00     0.010 C 
HETATM   25  C   UNL     1     -15.359   2.067 -32.237  1.00  0.00     0.010 C 
ENDBRANCH  22  23
ENDBRANCH  19  22
ENDBRANCH  15  16
ENDBRANCH  12  15
ENDBRANCH   1  11
BRANCH   8  26
HETATM   26  C   UNL     1      -3.023  -2.138 -32.026  1.00  0.00     0.270 C 
HETATM   27  N   UNL     1      -2.635  -3.309 -31.432  1.00  0.00    -0.365 N 
HETATM   28  H   UNL     1      -3.072  -4.173 -31.731  1.00  0.00     0.159 HD
HETATM   29  H   UNL     1      -1.925  -3.294 -30.718  1.00  0.00     0.159 HD
HETATM   30  O   UNL     1      -2.523  -1.068 -31.701  1.00  0.00    -0.266 OA
ENDBRANCH   8  26
TORSDOF 6
ENDMDL
MODEL 10
REMARK VINA RESULT:      -7.8      4.825      9.451
REMARK  6 active torsions:
REMARK  status: ('A' for Active; 'I' for Inactive)
REMARK    1  A    between atoms: C_2  and  C_3 
REMARK    2  A    between atoms: C_3  and  C_4 
REMARK    3  A    between atoms: C_7  and  C_8 
REMARK    4  A    between atoms: C_8  and  C_9 
REMARK       I    between atoms: C_9  and  N_10 
REMARK    5  A    between atoms: N_10  and  C_11 
REMARK    6  A    between atoms: C_18  and  C_19 
REMARK       I    between atoms: C_19  and  N_20 
ROOT
HETATM    1  C   UNL     1      -9.271   1.930 -33.090  1.00  0.00     0.035 A 
HETATM    2  C   UNL     1     -10.455   1.186 -33.179  1.00  0.00     0.046 A 
HETATM    3  C   UNL     1     -11.479   1.603 -34.057  1.00  0.00     0.030 A 
HETATM    4  C   UNL     1     -11.286   2.750 -34.815  1.00  0.00     0.063 A 
HETATM    5  N   UNL     1     -12.427   2.895 -35.553  1.00  0.00    -0.277 N 
HETATM    6  H   UNL     1     -12.638   3.628 -36.221  1.00  0.00     0.189 HD
HETATM    7  N   UNL     1     -13.350   1.943 -35.344  1.00  0.00    -0.168 NA
HETATM    8  C   UNL     1     -12.779   1.134 -34.422  1.00  0.00     0.156 A 
HETATM    9  C   UNL     1     -10.120   3.517 -34.754  1.00  0.00     0.034 A 
HETATM   10  C   UNL     1      -9.119   3.081 -33.878  1.00  0.00     0.032 A 
ENDROOT
BRANCH   1  11
HETATM   11  N   UNL     1      -8.186   1.584 -32.255  1.00  0.00    -0.327 N 
HETATM   12  C   UNL     1      -7.339   0.495 -32.380  1.00  0.00     0.226 C 
HETATM   13  O   UNL     1      -7.415  -0.397 -33.219  1.00  0.00    -0.273 OA
HETATM   14  H   UNL     1      -8.041   2.170 -31.441  1.00  0.00     0.169 HD
BRANCH  12  15
HETATM   15  C   UNL     1      -6.207   0.503 -31.364  1.00  0.00     0.141 C 
BRANCH  15  16
HETATM   16  C   UNL     1      -5.317   1.723 -31.408  1.00  0.00    -0.049 A 
HETATM   17  C   UNL     1      -5.526   2.809 -30.548  1.00  0.00     0.008 A 
HETATM   18  C   UNL     1      -4.658   3.904 -30.562  1.00  0.00     0.007 A 
HETATM   19  C   UNL     1      -3.549   3.928 -31.417  1.00  0.00    -0.058 A 
HETATM   20  C   UNL     1      -3.337   2.840 -32.271  1.00  0.00     0.007 A 
HETATM   21  C   UNL     1      -4.208   1.747 -32.264  1.00  0.00     0.008 A 
BRANCH  19  22
HETATM   22  C   UNL     1      -2.594   5.097 -31.409  1.00  0.00     0.042 C 
BRANCH  22  23
HETATM   23  C   UNL     1      -1.298   4.928 -32.232  1.00  0.00    -0.019 C 
HETATM   24  C   UNL     1      -0.042   5.323 -31.453  1.00  0.00     0.010 C 
HETATM   25  C   UNL     1      -1.345   5.658 -33.574  1.00  0.00     0.010 C 
ENDBRANCH  22  23
ENDBRANCH  19  22
ENDBRANCH  15  16
ENDBRANCH  12  15
ENDBRANCH   1  11
BRANCH   8  26
HETATM   26  C   UNL     1     -13.477  -0.057 -33.918  1.00  0.00     0.270 C 
HETATM   27  N   UNL     1     -14.822  -0.065 -34.173  1.00  0.00    -0.365 N 
HETATM   28  H   UNL     1     -15.226   0.717 -34.674  1.00  0.00     0.159 HD
HETATM   29  H   UNL     1     -15.383  -0.843 -33.865  1.00  0.00     0.159 HD
HETATM   30  O   UNL     1     -12.941  -0.982 -33.318  1.00  0.00    -0.266 OA
ENDBRANCH   8  26
TORSDOF 6
ENDMDL
