MODEL 1
REMARK VINA RESULT:      -8.6      0.000      0.000
REMARK  4 active torsions:
REMARK  status: ('A' for Active; 'I' for Inactive)
REMARK    1  A    between atoms: C_9  and  C_10 
REMARK    2  A    between atoms: C_18  and  C_19 
REMARK       I    between atoms: C_19  and  N_20 
REMARK    3  A    between atoms: N_20  and  C_21 
REMARK    4  A    between atoms: C_24  and  O_25 
ROOT
HETATM    1  C   UNL     1      -9.761   2.384 -34.321  1.00  0.00     0.070 C 
HETATM    2  C   UNL     1      -8.740   3.065 -33.445  1.00  0.00     0.037 A 
HETATM    3  N   UNL     1      -9.214   4.138 -32.696  1.00  0.00    -0.192 N 
HETATM    4  C   UNL     1      -8.482   4.770 -31.758  1.00  0.00     0.725 A 
HETATM    5  N   UNL     1      -7.175   4.411 -31.571  1.00  0.00    -0.084 N 
HETATM    6  N   UNL     1      -6.622   5.088 -30.542  1.00  0.00    -0.149 NA
HETATM    7  C   UNL     1      -7.643   5.878 -30.192  1.00  0.00     0.275 A 
HETATM    8  N   UNL     1      -8.800   5.714 -30.909  1.00  0.00    -0.054 NA
HETATM    9  C   UNL     1      -6.508   3.331 -32.308  1.00  0.00     0.204 A 
HETATM   10  C   UNL     1      -7.451   2.668 -33.305  1.00  0.00     0.062 A 
HETATM   11  H   UNL     1     -10.196   4.384 -32.786  1.00  0.00     0.184 HD
ENDROOT
BRANCH  10  12
HETATM   12  C   UNL     1      -6.856   1.493 -33.995  1.00  0.00     0.256 C 
HETATM   13  N   UNL     1      -6.628   0.423 -33.160  1.00  0.00    -0.323 N 
HETATM   14  H   UNL     1      -6.876   0.537 -32.184  1.00  0.00     0.169 HD
HETATM   15  O   UNL     1      -6.684   1.555 -35.206  1.00  0.00    -0.267 OA
BRANCH  13  16
HETATM   16  C   UNL     1      -6.076  -0.826 -33.514  1.00  0.00     0.035 A 
HETATM   17  C   UNL     1      -4.783  -1.228 -33.184  1.00  0.00     0.032 A 
HETATM   18  C   UNL     1      -4.314  -2.491 -33.567  1.00  0.00     0.039 A 
HETATM   19  C   UNL     1      -5.129  -3.373 -34.274  1.00  0.00     0.068 A 
HETATM   20  C   UNL     1      -6.422  -2.976 -34.610  1.00  0.00     0.039 A 
HETATM   21  C   UNL     1      -6.889  -1.709 -34.235  1.00  0.00     0.032 A 
BRANCH  19  22
HETATM   22  O   UNL     1      -4.547  -4.573 -34.575  1.00  0.00    -0.356 OA
HETATM   23  C   UNL     1      -3.356  -4.907 -33.876  1.00  0.00     0.210 C 
ENDBRANCH  19  22
ENDBRANCH  13  16
ENDBRANCH  10  12
BRANCH   9  24
HETATM   24  C   UNL     1      -5.188   3.808 -32.915  1.00  0.00    -0.006 A 
HETATM   25  C   UNL     1      -3.915   3.383 -32.490  1.00  0.00     0.044 A 
HETATM   26 CL   UNL     1      -3.687   2.292 -31.171  1.00  0.00    -0.084 Cl
HETATM   27  C   UNL     1      -2.755   3.858 -33.114  1.00  0.00     0.048 A 
HETATM   28  C   UNL     1      -2.850   4.772 -34.157  1.00  0.00     0.035 A 
HETATM   29 CL   UNL     1      -1.421   5.354 -34.917  1.00  0.00    -0.084 Cl
HETATM   30  C   UNL     1      -4.093   5.223 -34.585  1.00  0.00     0.024 A 
HETATM   31  C   UNL     1      -5.252   4.744 -33.969  1.00  0.00     0.013 A 
ENDBRANCH   9  24
TORSDOF 4
ENDMDL
MODEL 2
REMARK VINA RESULT:      -8.5      1.314      1.791
REMARK  4 active torsions:
REMARK  status: ('A' for Active; 'I' for Inactive)
REMARK    1  A    between atoms: C_9  and  C_10 
REMARK    2  A    between atoms: C_18  and  C_19 
REMARK       I    between atoms: C_19  and  N_20 
REMARK    3  A    between atoms: N_20  and  C_21 
REMARK    4  A    between atoms: C_24  and  O_25 
ROOT
HETATM    1  C   UNL     1      -9.749   3.188 -32.342  1.00  0.00     0.070 C 
HETATM    2  C   UNL     1      -8.498   3.641 -31.634  1.00  0.00     0.037 A 
HETATM    3  N   UNL     1      -8.692   4.551 -30.598  1.00  0.00    -0.192 N 
HETATM    4  C   UNL     1      -7.709   4.952 -29.769  1.00  0.00     0.725 A 
HETATM    5  N   UNL     1      -6.428   4.521 -29.986  1.00  0.00    -0.084 N 
HETATM    6  N   UNL     1      -5.593   4.954 -29.017  1.00  0.00    -0.149 NA
HETATM    7  C   UNL     1      -6.435   5.686 -28.278  1.00  0.00     0.275 A 
HETATM    8  N   UNL     1      -7.739   5.710 -28.702  1.00  0.00    -0.054 NA
HETATM    9  C   UNL     1      -6.046   3.597 -31.060  1.00  0.00     0.204 A 
HETATM   10  C   UNL     1      -7.249   3.184 -31.899  1.00  0.00     0.062 A 
HETATM   11  H   UNL     1      -9.644   4.841 -30.392  1.00  0.00     0.184 HD
ENDROOT
BRANCH  10  12
HETATM   12  C   UNL     1      -6.933   2.159 -32.927  1.00  0.00     0.256 C 
HETATM   13  N   UNL     1      -6.723   0.903 -32.406  1.00  0.00    -0.323 N 
HETATM   14  H   UNL     1      -6.797   0.801 -31.401  1.00  0.00     0.169 HD
HETATM   15  O   UNL     1      -6.945   2.494 -34.106  1.00  0.00    -0.267 OA
BRANCH  13  16
HETATM   16  C   UNL     1      -6.405  -0.271 -33.122  1.00  0.00     0.035 A 
HETATM   17  C   UNL     1      -7.335  -1.021 -33.840  1.00  0.00     0.032 A 
HETATM   18  C   UNL     1      -6.935  -2.170 -34.532  1.00  0.00     0.039 A 
HETATM   19  C   UNL     1      -5.604  -2.584 -34.525  1.00  0.00     0.068 A 
HETATM   20  C   UNL     1      -4.670  -1.840 -33.806  1.00  0.00     0.039 A 
HETATM   21  C   UNL     1      -5.071  -0.694 -33.106  1.00  0.00     0.032 A 
BRANCH  19  22
HETATM   22  O   UNL     1      -5.353  -3.717 -35.247  1.00  0.00    -0.356 OA
HETATM   23  C   UNL     1      -6.412  -4.658 -35.361  1.00  0.00     0.210 C 
ENDBRANCH  19  22
ENDBRANCH  13  16
ENDBRANCH  10  12
BRANCH   9  24
HETATM   24  C   UNL     1      -4.873   4.148 -31.872  1.00  0.00    -0.006 A 
HETATM   25  C   UNL     1      -3.643   3.487 -32.047  1.00  0.00     0.044 A 
HETATM   26 CL   UNL     1      -3.285   1.970 -31.304  1.00  0.00    -0.084 Cl
HETATM   27  C   UNL     1      -2.626   4.056 -32.824  1.00  0.00     0.048 A 
HETATM   28  C   UNL     1      -2.820   5.296 -33.422  1.00  0.00     0.035 A 
HETATM   29 CL   UNL     1      -1.566   5.991 -34.373  1.00  0.00    -0.084 Cl
HETATM   30  C   UNL     1      -4.018   5.979 -33.253  1.00  0.00     0.024 A 
HETATM   31  C   UNL     1      -5.036   5.409 -32.484  1.00  0.00     0.013 A 
ENDBRANCH   9  24
TORSDOF 4
ENDMDL
MODEL 3
REMARK VINA RESULT:      -8.5      1.658      1.942
REMARK  4 active torsions:
REMARK  status: ('A' for Active; 'I' for Inactive)
REMARK    1  A    between atoms: C_9  and  C_10 
REMARK    2  A    between atoms: C_18  and  C_19 
REMARK       I    between atoms: C_19  and  N_20 
REMARK    3  A    between atoms: N_20  and  C_21 
REMARK    4  A    between atoms: C_24  and  O_25 
ROOT
HETATM    1  C   UNL     1     -10.612   0.345 -33.113  1.00  0.00     0.070 C 
HETATM    2  C   UNL     1      -9.973   1.607 -32.593  1.00  0.00     0.037 A 
HETATM    3  N   UNL     1     -10.812   2.714 -32.512  1.00  0.00    -0.192 N 
HETATM    4  C   UNL     1     -10.452   3.879 -31.940  1.00  0.00     0.725 A 
HETATM    5  N   UNL     1      -9.172   4.035 -31.480  1.00  0.00    -0.084 N 
HETATM    6  N   UNL     1      -9.011   5.227 -30.868  1.00  0.00    -0.149 NA
HETATM    7  C   UNL     1     -10.226   5.759 -31.046  1.00  0.00     0.275 A 
HETATM    8  N   UNL     1     -11.137   4.966 -31.695  1.00  0.00    -0.054 NA
HETATM    9  C   UNL     1      -8.150   2.983 -31.530  1.00  0.00     0.204 A 
HETATM   10  C   UNL     1      -8.692   1.704 -32.158  1.00  0.00     0.062 A 
HETATM   11  H   UNL     1     -11.780   2.599 -32.801  1.00  0.00     0.184 HD
ENDROOT
BRANCH  10  12
HETATM   12  C   UNL     1      -7.730   0.572 -32.127  1.00  0.00     0.256 C 
HETATM   13  N   UNL     1      -7.292   0.188 -33.374  1.00  0.00    -0.323 N 
HETATM   14  H   UNL     1      -7.660   0.695 -34.170  1.00  0.00     0.169 HD
HETATM   15  O   UNL     1      -7.378   0.137 -31.038  1.00  0.00    -0.267 OA
BRANCH  13  16
HETATM   16  C   UNL     1      -6.383  -0.849 -33.672  1.00  0.00     0.035 A 
HETATM   17  C   UNL     1      -5.036  -0.833 -33.313  1.00  0.00     0.032 A 
HETATM   18  C   UNL     1      -4.203  -1.909 -33.640  1.00  0.00     0.039 A 
HETATM   19  C   UNL     1      -4.700  -3.019 -34.321  1.00  0.00     0.068 A 
HETATM   20  C   UNL     1      -6.044  -3.041 -34.686  1.00  0.00     0.039 A 
HETATM   21  C   UNL     1      -6.878  -1.960 -34.366  1.00  0.00     0.032 A 
BRANCH  19  22
HETATM   22  O   UNL     1      -3.779  -3.998 -34.568  1.00  0.00    -0.356 OA
HETATM   23  C   UNL     1      -3.487  -4.894 -33.504  1.00  0.00     0.210 C 
ENDBRANCH  19  22
ENDBRANCH  13  16
ENDBRANCH  10  12
BRANCH   9  24
HETATM   24  C   UNL     1      -6.858   3.496 -32.168  1.00  0.00    -0.006 A 
HETATM   25  C   UNL     1      -5.603   3.504 -31.531  1.00  0.00     0.044 A 
HETATM   26 CL   UNL     1      -5.379   2.977 -29.902  1.00  0.00    -0.084 Cl
HETATM   27  C   UNL     1      -4.464   3.977 -32.195  1.00  0.00     0.048 A 
HETATM   28  C   UNL     1      -4.567   4.459 -33.495  1.00  0.00     0.035 A 
HETATM   29 CL   UNL     1      -3.165   5.040 -34.304  1.00  0.00    -0.084 Cl
HETATM   30  C   UNL     1      -5.796   4.478 -34.142  1.00  0.00     0.024 A 
HETATM   31  C   UNL     1      -6.932   4.000 -33.484  1.00  0.00     0.013 A 
ENDBRANCH   9  24
TORSDOF 4
ENDMDL
MODEL 4
REMARK VINA RESULT:      -8.2      3.312      6.429
REMARK  4 active torsions:
REMARK  status: ('A' for Active; 'I' for Inactive)
REMARK    1  A    between atoms: C_9  and  C_10 
REMARK    2  A    between atoms: C_18  and  C_19 
REMARK       I    between atoms: C_19  and  N_20 
REMARK    3  A    between atoms: N_20  and  C_21 
REMARK    4  A    between atoms: C_24  and  O_25 
ROOT
HETATM    1  C   UNL     1      -8.286   5.859 -33.692  1.00  0.00     0.070 C 
HETATM    2  C   UNL     1      -7.215   4.841 -33.396  1.00  0.00     0.037 A 
HETATM    3  N   UNL     1      -5.911   5.243 -33.676  1.00  0.00    -0.192 N 
HETATM    4  C   UNL     1      -4.824   4.523 -33.342  1.00  0.00     0.725 A 
HETATM    5  N   UNL     1      -4.984   3.288 -32.773  1.00  0.00    -0.084 N 
HETATM    6  N   UNL     1      -3.795   2.746 -32.432  1.00  0.00    -0.149 NA
HETATM    7  C   UNL     1      -2.959   3.691 -32.878  1.00  0.00     0.275 A 
HETATM    8  N   UNL     1      -3.548   4.795 -33.440  1.00  0.00    -0.054 NA
HETATM    9  C   UNL     1      -6.288   2.696 -32.453  1.00  0.00     0.204 A 
HETATM   10  C   UNL     1      -7.434   3.625 -32.837  1.00  0.00     0.062 A 
HETATM   11  H   UNL     1      -5.773   6.178 -34.051  1.00  0.00     0.184 HD
ENDROOT
BRANCH  10  12
HETATM   12  C   UNL     1      -8.771   3.120 -32.428  1.00  0.00     0.256 C 
HETATM   13  N   UNL     1      -9.645   2.965 -33.479  1.00  0.00    -0.323 N 
HETATM   14  H   UNL     1      -9.306   3.207 -34.403  1.00  0.00     0.169 HD
HETATM   15  O   UNL     1      -8.952   2.840 -31.249  1.00  0.00    -0.267 OA
BRANCH  13  16
HETATM   16  C   UNL     1     -10.978   2.509 -33.413  1.00  0.00     0.035 A 
HETATM   17  C   UNL     1     -12.065   3.318 -33.085  1.00  0.00     0.032 A 
HETATM   18  C   UNL     1     -13.360   2.787 -33.051  1.00  0.00     0.039 A 
HETATM   19  C   UNL     1     -13.592   1.446 -33.352  1.00  0.00     0.068 A 
HETATM   20  C   UNL     1     -12.510   0.630 -33.677  1.00  0.00     0.039 A 
HETATM   21  C   UNL     1     -11.213   1.159 -33.703  1.00  0.00     0.032 A 
BRANCH  19  22
HETATM   22  O   UNL     1     -14.903   1.065 -33.288  1.00  0.00    -0.356 OA
HETATM   23  C   UNL     1     -15.795   1.931 -32.599  1.00  0.00     0.210 C 
ENDBRANCH  19  22
ENDBRANCH  13  16
ENDBRANCH  10  12
BRANCH   9  24
HETATM   24  C   UNL     1      -6.409   1.282 -33.022  1.00  0.00    -0.006 A 
HETATM   25  C   UNL     1      -6.316   0.104 -32.257  1.00  0.00     0.044 A 
HETATM   26 CL   UNL     1      -5.992   0.115 -30.561  1.00  0.00    -0.084 Cl
HETATM   27  C   UNL     1      -6.456  -1.153 -32.857  1.00  0.00     0.048 A 
HETATM   28  C   UNL     1      -6.676  -1.250 -34.227  1.00  0.00     0.035 A 
HETATM   29 CL   UNL     1      -6.844  -2.799 -34.957  1.00  0.00    -0.084 Cl
HETATM   30  C   UNL     1      -6.755  -0.105 -35.009  1.00  0.00     0.024 A 
HETATM   31  C   UNL     1      -6.623   1.151 -34.410  1.00  0.00     0.013 A 
ENDBRANCH   9  24
TORSDOF 4
ENDMDL
MODEL 5
REMARK VINA RESULT:      -8.1      3.399      6.582
REMARK  4 active torsions:
REMARK  status: ('A' for Active; 'I' for Inactive)
REMARK    1  A    between atoms: C_9  and  C_10 
REMARK    2  A    between atoms: C_18  and  C_19 
REMARK       I    between atoms: C_19  and  N_20 
REMARK    3  A    between atoms: N_20  and  C_21 
REMARK    4  A    between atoms: C_24  and  O_25 
ROOT
HETATM    1  C   UNL     1      -9.229   4.526 -30.298  1.00  0.00     0.070 C 
HETATM    2  C   UNL     1      -9.563   3.673 -31.496  1.00  0.00     0.037 A 
HETATM    3  N   UNL     1     -10.911   3.362 -31.653  1.00  0.00    -0.192 N 
HETATM    4  C   UNL     1     -11.407   2.734 -32.736  1.00  0.00     0.725 A 
HETATM    5  N   UNL     1     -10.551   2.295 -33.710  1.00  0.00    -0.084 N 
HETATM    6  N   UNL     1     -11.223   1.765 -34.753  1.00  0.00    -0.149 NA
HETATM    7  C   UNL     1     -12.482   1.870 -34.311  1.00  0.00     0.275 A 
HETATM    8  N   UNL     1     -12.638   2.459 -33.083  1.00  0.00    -0.054 NA
HETATM    9  C   UNL     1      -9.098   2.502 -33.677  1.00  0.00     0.204 A 
HETATM   10  C   UNL     1      -8.668   3.259 -32.427  1.00  0.00     0.062 A 
HETATM   11  H   UNL     1     -11.565   3.725 -30.964  1.00  0.00     0.184 HD
ENDROOT
BRANCH  10  12
HETATM   12  C   UNL     1      -7.220   3.594 -32.403  1.00  0.00     0.256 C 
HETATM   13  N   UNL     1      -6.873   4.598 -33.278  1.00  0.00    -0.323 N 
HETATM   14  H   UNL     1      -7.615   4.998 -33.841  1.00  0.00     0.169 HD
HETATM   15  O   UNL     1      -6.501   3.014 -31.599  1.00  0.00    -0.267 OA
BRANCH  13  16
HETATM   16  C   UNL     1      -5.585   5.135 -33.487  1.00  0.00     0.035 A 
HETATM   17  C   UNL     1      -4.938   5.981 -32.587  1.00  0.00     0.032 A 
HETATM   18  C   UNL     1      -3.654   6.463 -32.867  1.00  0.00     0.039 A 
HETATM   19  C   UNL     1      -2.994   6.104 -34.040  1.00  0.00     0.068 A 
HETATM   20  C   UNL     1      -3.636   5.262 -34.946  1.00  0.00     0.039 A 
HETATM   21  C   UNL     1      -4.925   4.785 -34.671  1.00  0.00     0.032 A 
BRANCH  19  22
HETATM   22  O   UNL     1      -1.745   6.641 -34.181  1.00  0.00    -0.356 OA
HETATM   23  C   UNL     1      -1.281   7.481 -33.133  1.00  0.00     0.210 C 
ENDBRANCH  19  22
ENDBRANCH  13  16
ENDBRANCH  10  12
BRANCH   9  24
HETATM   24  C   UNL     1      -8.347   1.190 -33.905  1.00  0.00    -0.006 A 
HETATM   25  C   UNL     1      -8.353   0.101 -33.013  1.00  0.00     0.044 A 
HETATM   26 CL   UNL     1      -9.181   0.141 -31.498  1.00  0.00    -0.084 Cl
HETATM   27  C   UNL     1      -7.650  -1.073 -33.308  1.00  0.00     0.048 A 
HETATM   28  C   UNL     1      -6.922  -1.170 -34.489  1.00  0.00     0.035 A 
HETATM   29 CL   UNL     1      -6.059  -2.614 -34.845  1.00  0.00    -0.084 Cl
HETATM   30  C   UNL     1      -6.884  -0.105 -35.380  1.00  0.00     0.024 A 
HETATM   31  C   UNL     1      -7.591   1.065 -35.090  1.00  0.00     0.013 A 
ENDBRANCH   9  24
TORSDOF 4
ENDMDL
MODEL 6
REMARK VINA RESULT:      -8.1      3.452      6.146
REMARK  4 active torsions:
REMARK  status: ('A' for Active; 'I' for Inactive)
REMARK    1  A    between atoms: C_9  and  C_10 
REMARK    2  A    between atoms: C_18  and  C_19 
REMARK       I    between atoms: C_19  and  N_20 
REMARK    3  A    between atoms: N_20  and  C_21 
REMARK    4  A    between atoms: C_24  and  O_25 
ROOT
HETATM    1  C   UNL     1      -9.586   4.991 -31.144  1.00  0.00     0.070 C 
HETATM    2  C   UNL     1      -9.877   3.893 -32.134  1.00  0.00     0.037 A 
HETATM    3  N   UNL     1     -11.193   3.437 -32.154  1.00  0.00    -0.192 N 
HETATM    4  C   UNL     1     -11.663   2.566 -33.068  1.00  0.00     0.725 A 
HETATM    5  N   UNL     1     -10.803   2.023 -33.984  1.00  0.00    -0.084 N 
HETATM    6  N   UNL     1     -11.457   1.239 -34.868  1.00  0.00    -0.149 NA
HETATM    7  C   UNL     1     -12.704   1.315 -34.386  1.00  0.00     0.275 A 
HETATM    8  N   UNL     1     -12.873   2.119 -33.287  1.00  0.00    -0.054 NA
HETATM    9  C   UNL     1      -9.378   2.361 -34.071  1.00  0.00     0.204 A 
HETATM   10  C   UNL     1      -8.979   3.386 -33.016  1.00  0.00     0.062 A 
HETATM   11  H   UNL     1     -11.855   3.868 -31.514  1.00  0.00     0.184 HD
ENDROOT
BRANCH  10  12
HETATM   12  C   UNL     1      -7.572   3.847 -33.136  1.00  0.00     0.256 C 
HETATM   13  N   UNL     1      -6.736   3.319 -32.178  1.00  0.00    -0.323 N 
HETATM   14  H   UNL     1      -7.149   2.689 -31.501  1.00  0.00     0.169 HD
HETATM   15  O   UNL     1      -7.277   4.579 -34.073  1.00  0.00    -0.267 OA
BRANCH  13  16
HETATM   16  C   UNL     1      -5.355   3.564 -32.029  1.00  0.00     0.035 A 
HETATM   17  C   UNL     1      -4.357   2.726 -32.521  1.00  0.00     0.032 A 
HETATM   18  C   UNL     1      -3.007   3.047 -32.337  1.00  0.00     0.039 A 
HETATM   19  C   UNL     1      -2.632   4.212 -31.668  1.00  0.00     0.068 A 
HETATM   20  C   UNL     1      -3.626   5.053 -31.170  1.00  0.00     0.039 A 
HETATM   21  C   UNL     1      -4.977   4.727 -31.347  1.00  0.00     0.032 A 
BRANCH  19  22
HETATM   22  O   UNL     1      -1.283   4.405 -31.567  1.00  0.00    -0.356 OA
HETATM   23  C   UNL     1      -0.765   5.626 -32.080  1.00  0.00     0.210 C 
ENDBRANCH  19  22
ENDBRANCH  13  16
ENDBRANCH  10  12
BRANCH   9  24
HETATM   24  C   UNL     1      -8.510   1.103 -34.083  1.00  0.00    -0.006 A 
HETATM   25  C   UNL     1      -8.431   0.178 -33.025  1.00  0.00     0.044 A 
HETATM   26 CL   UNL     1      -9.279   0.388 -31.536  1.00  0.00    -0.084 Cl
HETATM   27  C   UNL     1      -7.622  -0.961 -33.126  1.00  0.00     0.048 A 
HETATM   28  C   UNL     1      -6.873  -1.182 -34.276  1.00  0.00     0.035 A 
HETATM   29 CL   UNL     1      -5.879  -2.581 -34.392  1.00  0.00    -0.084 Cl
HETATM   30  C   UNL     1      -6.918  -0.277 -35.329  1.00  0.00     0.024 A 
HETATM   31  C   UNL     1      -7.730   0.855 -35.233  1.00  0.00     0.013 A 
ENDBRANCH   9  24
TORSDOF 4
ENDMDL
MODEL 7
REMARK VINA RESULT:      -8.0      3.408      7.939
REMARK  4 active torsions:
REMARK  status: ('A' for Active; 'I' for Inactive)
REMARK    1  A    between atoms: C_9  and  C_10 
REMARK    2  A    between atoms: C_18  and  C_19 
REMARK       I    between atoms: C_19  and  N_20 
REMARK    3  A    between atoms: N_20  and  C_21 
REMARK    4  A    between atoms: C_24  and  O_25 
ROOT
HETATM    1  C   UNL     1      -3.306   0.619 -32.095  1.00  0.00     0.070 C 
HETATM    2  C   UNL     1      -4.488  -0.137 -32.647  1.00  0.00     0.037 A 
HETATM    3  N   UNL     1      -4.196  -1.055 -33.652  1.00  0.00    -0.192 N 
HETATM    4  C   UNL     1      -5.101  -1.915 -34.158  1.00  0.00     0.725 A 
HETATM    5  N   UNL     1      -6.402  -1.847 -33.737  1.00  0.00    -0.084 N 
HETATM    6  N   UNL     1      -7.148  -2.830 -34.285  1.00  0.00    -0.149 NA
HETATM    7  C   UNL     1      -6.237  -3.419 -35.069  1.00  0.00     0.275 A 
HETATM    8  N   UNL     1      -4.972  -2.892 -35.019  1.00  0.00    -0.054 NA
HETATM    9  C   UNL     1      -6.885  -0.908 -32.718  1.00  0.00     0.204 A 
HETATM   10  C   UNL     1      -5.761  -0.022 -32.194  1.00  0.00     0.062 A 
HETATM   11  H   UNL     1      -3.226  -1.153 -33.939  1.00  0.00     0.184 HD
ENDROOT
BRANCH  10  12
HETATM   12  C   UNL     1      -6.176   0.867 -31.078  1.00  0.00     0.256 C 
HETATM   13  N   UNL     1      -6.348   2.180 -31.456  1.00  0.00    -0.323 N 
HETATM   14  H   UNL     1      -6.176   2.408 -32.428  1.00  0.00     0.169 HD
HETATM   15  O   UNL     1      -6.379   0.367 -29.979  1.00  0.00    -0.267 OA
BRANCH  13  16
HETATM   16  C   UNL     1      -6.735   3.256 -30.630  1.00  0.00     0.035 A 
HETATM   17  C   UNL     1      -8.042   3.729 -30.527  1.00  0.00     0.032 A 
HETATM   18  C   UNL     1      -8.343   4.799 -29.676  1.00  0.00     0.039 A 
HETATM   19  C   UNL     1      -7.350   5.407 -28.909  1.00  0.00     0.068 A 
HETATM   20  C   UNL     1      -6.041   4.941 -29.010  1.00  0.00     0.039 A 
HETATM   21  C   UNL     1      -5.736   3.876 -29.868  1.00  0.00     0.032 A 
BRANCH  19  22
HETATM   22  O   UNL     1      -7.785   6.432 -28.118  1.00  0.00    -0.356 OA
HETATM   23  C   UNL     1      -8.985   7.087 -28.510  1.00  0.00     0.210 C 
ENDBRANCH  19  22
ENDBRANCH  13  16
ENDBRANCH  10  12
BRANCH   9  24
HETATM   24  C   UNL     1      -8.112  -0.139 -33.211  1.00  0.00    -0.006 A 
HETATM   25  C   UNL     1      -8.112   0.749 -34.302  1.00  0.00     0.044 A 
HETATM   26 CL   UNL     1      -6.684   1.127 -35.198  1.00  0.00    -0.084 Cl
HETATM   27  C   UNL     1      -9.286   1.400 -34.698  1.00  0.00     0.048 A 
HETATM   28  C   UNL     1     -10.470   1.183 -34.002  1.00  0.00     0.035 A 
HETATM   29 CL   UNL     1     -11.910   1.988 -34.492  1.00  0.00    -0.084 Cl
HETATM   30  C   UNL     1     -10.496   0.324 -32.910  1.00  0.00     0.024 A 
HETATM   31  C   UNL     1      -9.326  -0.332 -32.518  1.00  0.00     0.013 A 
ENDBRANCH   9  24
TORSDOF 4
ENDMDL
MODEL 8
REMARK VINA RESULT:      -7.8      3.227      6.590
REMARK  4 active torsions:
REMARK  status: ('A' for Active; 'I' for Inactive)
REMARK    1  A    between atoms: C_9  and  C_10 
REMARK    2  A    between atoms: C_18  and  C_19 
REMARK       I    between atoms: C_19  and  N_20 
REMARK    3  A    between atoms: N_20  and  C_21 
REMARK    4  A    between atoms: C_24  and  O_25 
ROOT
HETATM    1  C   UNL     1      -7.059  -2.470 -34.495  1.00  0.00     0.070 C 
HETATM    2  C   UNL     1      -6.131  -1.531 -33.769  1.00  0.00     0.037 A 
HETATM    3  N   UNL     1      -5.067  -2.134 -33.103  1.00  0.00    -0.192 N 
HETATM    4  C   UNL     1      -4.066  -1.444 -32.525  1.00  0.00     0.725 A 
HETATM    5  N   UNL     1      -4.115  -0.077 -32.505  1.00  0.00    -0.084 N 
HETATM    6  N   UNL     1      -2.996   0.448 -31.961  1.00  0.00    -0.149 NA
HETATM    7  C   UNL     1      -2.340  -0.670 -31.626  1.00  0.00     0.275 A 
HETATM    8  N   UNL     1      -2.959  -1.848 -31.955  1.00  0.00    -0.054 NA
HETATM    9  C   UNL     1      -5.187   0.713 -33.121  1.00  0.00     0.204 A 
HETATM   10  C   UNL     1      -6.234  -0.178 -33.778  1.00  0.00     0.062 A 
HETATM   11  H   UNL     1      -4.989  -3.147 -33.152  1.00  0.00     0.184 HD
ENDROOT
BRANCH  10  12
HETATM   12  C   UNL     1      -7.280   0.577 -34.515  1.00  0.00     0.256 C 
HETATM   13  N   UNL     1      -8.362   0.921 -33.736  1.00  0.00    -0.323 N 
HETATM   14  H   UNL     1      -8.343   0.631 -32.765  1.00  0.00     0.169 HD
HETATM   15  O   UNL     1      -7.072   0.868 -35.686  1.00  0.00    -0.267 OA
BRANCH  13  16
HETATM   16  C   UNL     1      -9.509   1.634 -34.144  1.00  0.00     0.035 A 
HETATM   17  C   UNL     1     -10.735   1.038 -34.432  1.00  0.00     0.032 A 
HETATM   18  C   UNL     1     -11.829   1.820 -34.822  1.00  0.00     0.039 A 
HETATM   19  C   UNL     1     -11.719   3.206 -34.923  1.00  0.00     0.068 A 
HETATM   20  C   UNL     1     -10.494   3.808 -34.640  1.00  0.00     0.039 A 
HETATM   21  C   UNL     1      -9.397   3.025 -34.257  1.00  0.00     0.032 A 
BRANCH  19  22
HETATM   22  O   UNL     1     -12.865   3.844 -35.306  1.00  0.00    -0.356 OA
HETATM   23  C   UNL     1     -12.801   5.258 -35.444  1.00  0.00     0.210 C 
ENDBRANCH  19  22
ENDBRANCH  13  16
ENDBRANCH  10  12
BRANCH   9  24
HETATM   24  C   UNL     1      -5.760   1.732 -32.135  1.00  0.00    -0.006 A 
HETATM   25  C   UNL     1      -6.356   1.403 -30.903  1.00  0.00     0.044 A 
HETATM   26 CL   UNL     1      -6.564  -0.227 -30.374  1.00  0.00    -0.084 Cl
HETATM   27  C   UNL     1      -6.841   2.402 -30.051  1.00  0.00     0.048 A 
HETATM   28  C   UNL     1      -6.750   3.739 -30.423  1.00  0.00     0.035 A 
HETATM   29 CL   UNL     1      -7.350   4.961 -29.372  1.00  0.00    -0.084 Cl
HETATM   30  C   UNL     1      -6.183   4.092 -31.641  1.00  0.00     0.024 A 
HETATM   31  C   UNL     1      -5.692   3.097 -32.489  1.00  0.00     0.013 A 
ENDBRANCH   9  24
TORSDOF 4
ENDMDL
MODEL 9
REMARK VINA RESULT:      -7.7      3.689      5.786
REMARK  4 active torsions:
REMARK  status: ('A' for Active; 'I' for Inactive)
REMARK    1  A    between atoms: C_9  and  C_10 
REMARK    2  A    between atoms: C_18  and  C_19 
REMARK       I    between atoms: C_19  and  N_20 
REMARK    3  A    between atoms: N_20  and  C_21 
REMARK    4  A    between atoms: C_24  and  O_25 
ROOT
HETATM    1  C   UNL     1      -7.463   3.996 -30.736  1.00  0.00     0.070 C 
HETATM    2  C   UNL     1      -8.462   4.316 -31.818  1.00  0.00     0.037 A 
HETATM    3  N   UNL     1      -8.811   5.659 -31.934  1.00  0.00    -0.192 N 
HETATM    4  C   UNL     1      -9.575   6.144 -32.932  1.00  0.00     0.725 A 
HETATM    5  N   UNL     1     -10.118   5.280 -33.845  1.00  0.00    -0.084 N 
HETATM    6  N   UNL     1     -10.783   5.943 -34.814  1.00  0.00    -0.149 NA
HETATM    7  C   UNL     1     -10.644   7.204 -34.387  1.00  0.00     0.275 A 
HETATM    8  N   UNL     1      -9.911   7.371 -33.241  1.00  0.00    -0.054 NA
HETATM    9  C   UNL     1      -9.886   3.831 -33.839  1.00  0.00     0.204 A 
HETATM   10  C   UNL     1      -8.974   3.413 -32.692  1.00  0.00     0.062 A 
HETATM   11  H   UNL     1      -8.377   6.320 -31.296  1.00  0.00     0.184 HD
ENDROOT
BRANCH  10  12
HETATM   12  C   UNL     1      -8.616   1.971 -32.711  1.00  0.00     0.256 C 
HETATM   13  N   UNL     1      -7.570   1.675 -33.555  1.00  0.00    -0.323 N 
HETATM   14  H   UNL     1      -7.159   2.445 -34.070  1.00  0.00     0.169 HD
HETATM   15  O   UNL     1      -9.218   1.212 -31.962  1.00  0.00    -0.267 OA
BRANCH  13  16
HETATM   16  C   UNL     1      -7.003   0.405 -33.791  1.00  0.00     0.035 A 
HETATM   17  C   UNL     1      -7.455  -0.481 -34.768  1.00  0.00     0.032 A 
HETATM   18  C   UNL     1      -6.830  -1.722 -34.943  1.00  0.00     0.039 A 
HETATM   19  C   UNL     1      -5.742  -2.093 -34.155  1.00  0.00     0.068 A 
HETATM   20  C   UNL     1      -5.287  -1.213 -33.175  1.00  0.00     0.039 A 
HETATM   21  C   UNL     1      -5.918   0.025 -32.993  1.00  0.00     0.032 A 
BRANCH  19  22
HETATM   22  O   UNL     1      -5.225  -3.326 -34.439  1.00  0.00    -0.356 OA
HETATM   23  C   UNL     1      -6.131  -4.314 -34.911  1.00  0.00     0.210 C 
ENDBRANCH  19  22
ENDBRANCH  13  16
ENDBRANCH  10  12
BRANCH   9  24
HETATM   24  C   UNL     1     -11.205   3.059 -33.905  1.00  0.00    -0.006 A 
HETATM   25  C   UNL     1     -12.215   3.121 -32.926  1.00  0.00     0.044 A 
HETATM   26 CL   UNL     1     -12.057   4.051 -31.480  1.00  0.00    -0.084 Cl
HETATM   27  C   UNL     1     -13.402   2.393 -33.073  1.00  0.00     0.048 A 
HETATM   28  C   UNL     1     -13.589   1.586 -34.190  1.00  0.00     0.035 A 
HETATM   29 CL   UNL     1     -15.049   0.693 -34.363  1.00  0.00    -0.084 Cl
HETATM   30  C   UNL     1     -12.602   1.493 -35.163  1.00  0.00     0.024 A 
HETATM   31  C   UNL     1     -11.420   2.224 -35.021  1.00  0.00     0.013 A 
ENDBRANCH   9  24
TORSDOF 4
ENDMDL
MODEL 10
REMARK VINA RESULT:      -7.5      3.706      6.353
REMARK  4 active torsions:
REMARK  status: ('A' for Active; 'I' for Inactive)
REMARK    1  A    between atoms: C_9  and  C_10 
REMARK    2  A    between atoms: C_18  and  C_19 
REMARK       I    between atoms: C_19  and  N_20 
REMARK    3  A    between atoms: N_20  and  C_21 
REMARK    4  A    between atoms: C_24  and  O_25 
ROOT
HETATM    1  C   UNL     1      -6.410  -0.288 -31.256  1.00  0.00     0.070 C 
HETATM    2  C   UNL     1      -5.979   1.155 -31.304  1.00  0.00     0.037 A 
HETATM    3  N   UNL     1      -4.609   1.376 -31.188  1.00  0.00    -0.192 N 
HETATM    4  C   UNL     1      -4.034   2.583 -31.352  1.00  0.00     0.725 A 
HETATM    5  N   UNL     1      -4.825   3.680 -31.563  1.00  0.00    -0.084 N 
HETATM    6  N   UNL     1      -4.082   4.786 -31.785  1.00  0.00    -0.149 NA
HETATM    7  C   UNL     1      -2.849   4.285 -31.638  1.00  0.00     0.275 A 
HETATM    8  N   UNL     1      -2.776   2.941 -31.375  1.00  0.00    -0.054 NA
HETATM    9  C   UNL     1      -6.288   3.629 -31.667  1.00  0.00     0.204 A 
HETATM   10  C   UNL     1      -6.811   2.206 -31.508  1.00  0.00     0.062 A 
HETATM   11  H   UNL     1      -4.004   0.565 -31.083  1.00  0.00     0.184 HD
ENDROOT
BRANCH  10  12
HETATM   12  C   UNL     1      -8.277   2.085 -31.721  1.00  0.00     0.256 C 
HETATM   13  N   UNL     1      -8.629   1.918 -33.041  1.00  0.00    -0.323 N 
HETATM   14  H   UNL     1      -7.878   1.898 -33.721  1.00  0.00     0.169 HD
HETATM   15  O   UNL     1      -9.009   2.084 -30.740  1.00  0.00    -0.267 OA
BRANCH  13  16
HETATM   16  C   UNL     1      -9.933   1.775 -33.559  1.00  0.00     0.035 A 
HETATM   17  C   UNL     1     -10.772   0.699 -33.274  1.00  0.00     0.032 A 
HETATM   18  C   UNL     1     -12.058   0.638 -33.824  1.00  0.00     0.039 A 
HETATM   19  C   UNL     1     -12.530   1.650 -34.658  1.00  0.00     0.068 A 
HETATM   20  C   UNL     1     -11.695   2.727 -34.950  1.00  0.00     0.039 A 
HETATM   21  C   UNL     1     -10.404   2.785 -34.407  1.00  0.00     0.032 A 
BRANCH  19  22
HETATM   22  O   UNL     1     -13.804   1.467 -35.117  1.00  0.00    -0.356 OA
HETATM   23  C   UNL     1     -14.692   0.735 -34.283  1.00  0.00     0.210 C 
ENDBRANCH  19  22
ENDBRANCH  13  16
ENDBRANCH  10  12
BRANCH   9  24
HETATM   24  C   UNL     1      -6.945   4.647 -30.735  1.00  0.00    -0.006 A 
HETATM   25  C   UNL     1      -7.798   5.684 -31.160  1.00  0.00     0.044 A 
HETATM   26 CL   UNL     1      -8.164   5.968 -32.823  1.00  0.00    -0.084 Cl
HETATM   27  C   UNL     1      -8.373   6.564 -30.235  1.00  0.00     0.048 A 
HETATM   28  C   UNL     1      -8.094   6.429 -28.880  1.00  0.00     0.035 A 
HETATM   29 CL   UNL     1      -8.802   7.516 -27.750  1.00  0.00    -0.084 Cl
HETATM   30  C   UNL     1      -7.243   5.426 -28.434  1.00  0.00     0.024 A 
HETATM   31  C   UNL     1      -6.674   4.542 -29.354  1.00  0.00     0.013 A 
ENDBRANCH   9  24
TORSDOF 4
ENDMDL
