MODEL 1
REMARK VINA RESULT:      -8.6      0.000      0.000
REMARK  3 active torsions:
REMARK  status: ('A' for Active; 'I' for Inactive)
REMARK    1  A    between atoms: C_2  and  O_3 
REMARK    2  A    between atoms: O_3  and  C_4 
REMARK    3  A    between atoms: C_5  and  N_6 
REMARK       I    between atoms: N_6  and  C_7 
REMARK       I    between atoms: C_7  and  N_8 
ROOT
HETATM    1  N   UNL     1      -4.046   4.179 -32.213  1.00  0.00    -0.306 N 
HETATM    2  C   UNL     1      -3.384   3.054 -31.747  1.00  0.00     0.323 C 
HETATM    3  N   UNL     1      -4.185   1.921 -31.667  1.00  0.00    -0.328 N 
HETATM    4  C   UNL     1      -3.662   0.772 -30.918  1.00  0.00     0.185 C 
HETATM    5  C   UNL     1      -3.837  -0.451 -31.744  1.00  0.00     0.035 A 
HETATM    6  C   UNL     1      -4.596  -0.578 -32.889  1.00  0.00    -0.020 A 
HETATM    7  C   UNL     1      -5.329   0.588 -33.460  1.00  0.00     0.061 C 
HETATM    8  C   UNL     1      -5.452   1.710 -32.401  1.00  0.00     0.132 C 
HETATM    9  N   UNL     1      -3.247  -1.655 -31.483  1.00  0.00    -0.357 N 
HETATM   10  H   UNL     1      -2.617  -1.849 -30.717  1.00  0.00     0.166 HD
HETATM   11  C   UNL     1      -3.616  -2.572 -32.445  1.00  0.00     0.043 A 
HETATM   12  C   UNL     1      -4.467  -1.919 -33.342  1.00  0.00    -0.001 A 
HETATM   13  C   UNL     1      -3.253  -3.916 -32.588  1.00  0.00     0.030 A 
HETATM   14  C   UNL     1      -3.773  -4.615 -33.681  1.00  0.00     0.002 A 
HETATM   15  C   UNL     1      -4.621  -3.991 -34.592  1.00  0.00     0.001 A 
HETATM   16  C   UNL     1      -4.976  -2.646 -34.436  1.00  0.00     0.014 A 
HETATM   17  O   UNL     1      -2.230   3.066 -31.329  1.00  0.00    -0.247 OA
HETATM   18  H   UNL     1      -4.954   4.256 -31.781  1.00  0.00     0.171 HD
ENDROOT
BRANCH   1  19
HETATM   19  C   UNL     1      -3.343   5.404 -32.355  1.00  0.00     0.069 C 
HETATM   20  C   UNL     1      -3.292   6.364 -31.328  1.00  0.00     0.096 C 
HETATM   21  C   UNL     1      -2.735   7.615 -31.592  1.00  0.00     0.039 C 
HETATM   22  C   UNL     1      -2.134   7.875 -32.825  1.00  0.00     0.003 C 
HETATM   23  C   UNL     1      -2.094   6.887 -33.804  1.00  0.00     0.002 C 
HETATM   24  C   UNL     1      -2.694   5.649 -33.570  1.00  0.00     0.032 C 
BRANCH  20  25
HETATM   25  O   UNL     1      -3.823   6.043 -30.112  1.00  0.00    -0.339 OA
BRANCH  25  26
HETATM   26  C   UNL     1      -5.182   6.400 -29.786  1.00  0.00     0.057 C 
HETATM   27  C   UNL     1      -5.882   5.170 -29.197  1.00  0.00     0.045 C 
HETATM   28  C   UNL     1      -6.026   7.025 -30.913  1.00  0.00     0.045 C 
HETATM   29  C   UNL     1      -5.050   7.459 -28.675  1.00  0.00     0.045 C 
ENDBRANCH  25  26
ENDBRANCH  20  25
ENDBRANCH   1  19
TORSDOF 3
ENDMDL
MODEL 2
REMARK VINA RESULT:      -8.6      5.529      8.495
REMARK  3 active torsions:
REMARK  status: ('A' for Active; 'I' for Inactive)
REMARK    1  A    between atoms: C_2  and  O_3 
REMARK    2  A    between atoms: O_3  and  C_4 
REMARK    3  A    between atoms: C_5  and  N_6 
REMARK       I    between atoms: N_6  and  C_7 
REMARK       I    between atoms: C_7  and  N_8 
ROOT
HETATM    1  N   UNL     1      -6.783   1.650 -33.070  1.00  0.00    -0.306 N 
HETATM    2  C   UNL     1      -7.790   2.144 -32.256  1.00  0.00     0.323 C 
HETATM    3  N   UNL     1      -8.881   2.652 -32.951  1.00  0.00    -0.328 N 
HETATM    4  C   UNL     1      -9.852   3.454 -32.197  1.00  0.00     0.185 C 
HETATM    5  C   UNL     1     -11.218   2.962 -32.514  1.00  0.00     0.035 A 
HETATM    6  C   UNL     1     -11.576   2.101 -33.531  1.00  0.00    -0.020 A 
HETATM    7  C   UNL     1     -10.551   1.518 -34.442  1.00  0.00     0.061 C 
HETATM    8  C   UNL     1      -9.235   2.328 -34.350  1.00  0.00     0.132 C 
HETATM    9  N   UNL     1     -12.344   3.296 -31.817  1.00  0.00    -0.357 N 
HETATM   10  H   UNL     1     -12.378   3.896 -31.004  1.00  0.00     0.166 HD
HETATM   11  C   UNL     1     -13.439   2.666 -32.370  1.00  0.00     0.043 A 
HETATM   12  C   UNL     1     -12.982   1.907 -33.452  1.00  0.00    -0.001 A 
HETATM   13  C   UNL     1     -14.785   2.704 -31.987  1.00  0.00     0.030 A 
HETATM   14  C   UNL     1     -15.692   1.945 -32.730  1.00  0.00     0.002 A 
HETATM   15  C   UNL     1     -15.267   1.178 -33.813  1.00  0.00     0.001 A 
HETATM   16  C   UNL     1     -13.917   1.150 -34.185  1.00  0.00     0.014 A 
HETATM   17  O   UNL     1      -7.694   2.238 -31.035  1.00  0.00    -0.247 OA
HETATM   18  H   UNL     1      -6.617   2.278 -33.842  1.00  0.00     0.171 HD
ENDROOT
BRANCH   1  19
HETATM   19  C   UNL     1      -5.616   1.090 -32.490  1.00  0.00     0.069 C 
HETATM   20  C   UNL     1      -5.453  -0.297 -32.317  1.00  0.00     0.096 C 
HETATM   21  C   UNL     1      -4.364  -0.769 -31.584  1.00  0.00     0.039 C 
HETATM   22  C   UNL     1      -3.387   0.114 -31.122  1.00  0.00     0.003 C 
HETATM   23  C   UNL     1      -3.496   1.477 -31.385  1.00  0.00     0.002 C 
HETATM   24  C   UNL     1      -4.608   1.967 -32.072  1.00  0.00     0.032 C 
BRANCH  20  25
HETATM   25  O   UNL     1      -6.392  -1.132 -32.849  1.00  0.00    -0.339 OA
BRANCH  25  26
HETATM   26  C   UNL     1      -6.166  -1.780 -34.118  1.00  0.00     0.057 C 
HETATM   27  C   UNL     1      -7.019  -3.052 -34.174  1.00  0.00     0.045 C 
HETATM   28  C   UNL     1      -4.703  -2.081 -34.493  1.00  0.00     0.045 C 
HETATM   29  C   UNL     1      -6.709  -0.787 -35.163  1.00  0.00     0.045 C 
ENDBRANCH  25  26
ENDBRANCH  20  25
ENDBRANCH   1  19
TORSDOF 3
ENDMDL
MODEL 3
REMARK VINA RESULT:      -8.1      5.619      7.935
REMARK  3 active torsions:
REMARK  status: ('A' for Active; 'I' for Inactive)
REMARK    1  A    between atoms: C_2  and  O_3 
REMARK    2  A    between atoms: O_3  and  C_4 
REMARK    3  A    between atoms: C_5  and  N_6 
REMARK       I    between atoms: N_6  and  C_7 
REMARK       I    between atoms: C_7  and  N_8 
ROOT
HETATM    1  N   UNL     1      -6.943   3.523 -33.090  1.00  0.00    -0.306 N 
HETATM    2  C   UNL     1      -8.018   3.590 -32.218  1.00  0.00     0.323 C 
HETATM    3  N   UNL     1      -9.218   3.940 -32.825  1.00  0.00    -0.328 N 
HETATM    4  C   UNL     1     -10.335   4.320 -31.953  1.00  0.00     0.185 C 
HETATM    5  C   UNL     1     -11.548   3.579 -32.388  1.00  0.00     0.035 A 
HETATM    6  C   UNL     1     -11.712   2.868 -33.560  1.00  0.00    -0.020 A 
HETATM    7  C   UNL     1     -10.600   2.740 -34.543  1.00  0.00     0.061 C 
HETATM    8  C   UNL     1      -9.520   3.814 -34.269  1.00  0.00     0.132 C 
HETATM    9  N   UNL     1     -12.703   3.487 -31.664  1.00  0.00    -0.357 N 
HETATM   10  H   UNL     1     -12.861   3.893 -30.753  1.00  0.00     0.166 HD
HETATM   11  C   UNL     1     -13.625   2.727 -32.352  1.00  0.00     0.043 A 
HETATM   12  C   UNL     1     -13.026   2.325 -33.550  1.00  0.00    -0.001 A 
HETATM   13  C   UNL     1     -14.929   2.361 -31.998  1.00  0.00     0.030 A 
HETATM   14  C   UNL     1     -15.642   1.560 -32.893  1.00  0.00     0.002 A 
HETATM   15  C   UNL     1     -15.072   1.143 -34.094  1.00  0.00     0.001 A 
HETATM   16  C   UNL     1     -13.766   1.517 -34.435  1.00  0.00     0.014 A 
HETATM   17  O   UNL     1      -7.917   3.469 -31.000  1.00  0.00    -0.247 OA
HETATM   18  H   UNL     1      -6.956   4.309 -33.723  1.00  0.00     0.171 HD
ENDROOT
BRANCH   1  19
HETATM   19  C   UNL     1      -5.660   3.165 -32.603  1.00  0.00     0.069 C 
HETATM   20  C   UNL     1      -5.136   1.868 -32.746  1.00  0.00     0.096 C 
HETATM   21  C   UNL     1      -3.948   1.535 -32.094  1.00  0.00     0.039 C 
HETATM   22  C   UNL     1      -3.228   2.509 -31.399  1.00  0.00     0.003 C 
HETATM   23  C   UNL     1      -3.697   3.819 -31.346  1.00  0.00     0.002 C 
HETATM   24  C   UNL     1      -4.910   4.150 -31.951  1.00  0.00     0.032 C 
BRANCH  20  25
HETATM   25  O   UNL     1      -5.833   0.966 -33.498  1.00  0.00    -0.339 OA
BRANCH  25  26
HETATM   26  C   UNL     1      -6.668  -0.027 -32.867  1.00  0.00     0.057 C 
HETATM   27  C   UNL     1      -8.068   0.049 -33.489  1.00  0.00     0.045 C 
HETATM   28  C   UNL     1      -6.747   0.006 -31.330  1.00  0.00     0.045 C 
HETATM   29  C   UNL     1      -6.036  -1.375 -33.264  1.00  0.00     0.045 C 
ENDBRANCH  25  26
ENDBRANCH  20  25
ENDBRANCH   1  19
TORSDOF 3
ENDMDL
MODEL 4
REMARK VINA RESULT:      -8.1      5.491      7.565
REMARK  3 active torsions:
REMARK  status: ('A' for Active; 'I' for Inactive)
REMARK    1  A    between atoms: C_2  and  O_3 
REMARK    2  A    between atoms: O_3  and  C_4 
REMARK    3  A    between atoms: C_5  and  N_6 
REMARK       I    between atoms: N_6  and  C_7 
REMARK       I    between atoms: C_7  and  N_8 
ROOT
HETATM    1  N   UNL     1      -6.865   1.843 -32.899  1.00  0.00    -0.306 N 
HETATM    2  C   UNL     1      -7.934   2.310 -32.150  1.00  0.00     0.323 C 
HETATM    3  N   UNL     1      -9.010   2.746 -32.914  1.00  0.00    -0.328 N 
HETATM    4  C   UNL     1     -10.055   3.520 -32.234  1.00  0.00     0.185 C 
HETATM    5  C   UNL     1     -11.379   2.955 -32.604  1.00  0.00     0.035 A 
HETATM    6  C   UNL     1     -11.644   2.051 -33.612  1.00  0.00    -0.020 A 
HETATM    7  C   UNL     1     -10.546   1.493 -34.453  1.00  0.00     0.061 C 
HETATM    8  C   UNL     1      -9.276   2.368 -34.319  1.00  0.00     0.132 C 
HETATM    9  N   UNL     1     -12.553   3.253 -31.974  1.00  0.00    -0.357 N 
HETATM   10  H   UNL     1     -12.657   3.872 -31.182  1.00  0.00     0.166 HD
HETATM   11  C   UNL     1     -13.588   2.556 -32.562  1.00  0.00     0.043 A 
HETATM   12  C   UNL     1     -13.041   1.791 -33.598  1.00  0.00    -0.001 A 
HETATM   13  C   UNL     1     -14.952   2.540 -32.248  1.00  0.00     0.030 A 
HETATM   14  C   UNL     1     -15.783   1.718 -33.014  1.00  0.00     0.002 A 
HETATM   15  C   UNL     1     -15.267   0.944 -34.051  1.00  0.00     0.001 A 
HETATM   16  C   UNL     1     -13.900   0.970 -34.354  1.00  0.00     0.014 A 
HETATM   17  O   UNL     1      -7.906   2.442 -30.930  1.00  0.00    -0.247 OA
HETATM   18  H   UNL     1      -6.688   2.457 -33.679  1.00  0.00     0.171 HD
ENDROOT
BRANCH   1  19
HETATM   19  C   UNL     1      -5.703   1.357 -32.244  1.00  0.00     0.069 C 
HETATM   20  C   UNL     1      -4.552   2.146 -32.070  1.00  0.00     0.096 C 
HETATM   21  C   UNL     1      -3.388   1.555 -31.577  1.00  0.00     0.039 C 
HETATM   22  C   UNL     1      -3.396   0.225 -31.155  1.00  0.00     0.003 C 
HETATM   23  C   UNL     1      -4.567  -0.525 -31.231  1.00  0.00     0.002 C 
HETATM   24  C   UNL     1      -5.722   0.040 -31.771  1.00  0.00     0.032 C 
BRANCH  20  25
HETATM   25  O   UNL     1      -4.608   3.463 -32.425  1.00  0.00    -0.339 OA
BRANCH  25  26
HETATM   26  C   UNL     1      -4.747   4.490 -31.422  1.00  0.00     0.057 C 
HETATM   27  C   UNL     1      -3.427   5.266 -31.334  1.00  0.00     0.045 C 
HETATM   28  C   UNL     1      -5.213   4.038 -30.025  1.00  0.00     0.045 C 
HETATM   29  C   UNL     1      -5.827   5.435 -31.980  1.00  0.00     0.045 C 
ENDBRANCH  25  26
ENDBRANCH  20  25
ENDBRANCH   1  19
TORSDOF 3
ENDMDL
MODEL 5
REMARK VINA RESULT:      -8.0     16.692     18.829
REMARK  3 active torsions:
REMARK  status: ('A' for Active; 'I' for Inactive)
REMARK    1  A    between atoms: C_2  and  O_3 
REMARK    2  A    between atoms: O_3  and  C_4 
REMARK    3  A    between atoms: C_5  and  N_6 
REMARK       I    between atoms: N_6  and  C_7 
REMARK       I    between atoms: C_7  and  N_8 
ROOT
HETATM    1  N   UNL     1      -7.045 -12.899 -38.128  1.00  0.00    -0.306 N 
HETATM    2  C   UNL     1      -5.899 -12.733 -38.891  1.00  0.00     0.323 C 
HETATM    3  N   UNL     1      -4.741 -12.563 -38.141  1.00  0.00    -0.328 N 
HETATM    4  C   UNL     1      -3.542 -12.092 -38.842  1.00  0.00     0.185 C 
HETATM    5  C   UNL     1      -2.399 -12.963 -38.462  1.00  0.00     0.035 A 
HETATM    6  C   UNL     1      -2.360 -13.880 -37.432  1.00  0.00    -0.020 A 
HETATM    7  C   UNL     1      -3.555 -14.124 -36.574  1.00  0.00     0.061 C 
HETATM    8  C   UNL     1      -4.566 -12.962 -36.727  1.00  0.00     0.132 C 
HETATM    9  N   UNL     1      -1.192 -12.984 -39.101  1.00  0.00    -0.357 N 
HETATM   10  H   UNL     1      -0.943 -12.430 -39.909  1.00  0.00     0.166 HD
HETATM   11  C   UNL     1      -0.361 -13.904 -38.498  1.00  0.00     0.043 A 
HETATM   12  C   UNL     1      -1.073 -14.483 -37.442  1.00  0.00    -0.001 A 
HETATM   13  C   UNL     1       0.953 -14.269 -38.815  1.00  0.00     0.030 A 
HETATM   14  C   UNL     1       1.558 -15.255 -38.031  1.00  0.00     0.002 A 
HETATM   15  C   UNL     1       0.873 -15.850 -36.973  1.00  0.00     0.001 A 
HETATM   16  C   UNL     1      -0.440 -15.474 -36.668  1.00  0.00     0.014 A 
HETATM   17  O   UNL     1      -5.903 -12.627 -40.114  1.00  0.00    -0.247 OA
HETATM   18  H   UNL     1      -7.055 -12.242 -37.363  1.00  0.00     0.171 HD
ENDROOT
BRANCH   1  19
HETATM   19  C   UNL     1      -8.296 -13.094 -38.768  1.00  0.00     0.069 C 
HETATM   20  C   UNL     1      -8.969 -14.329 -38.742  1.00  0.00     0.096 C 
HETATM   21  C   UNL     1     -10.104 -14.504 -39.533  1.00  0.00     0.039 C 
HETATM   22  C   UNL     1     -10.633 -13.433 -40.257  1.00  0.00     0.003 C 
HETATM   23  C   UNL     1     -10.024 -12.182 -40.198  1.00  0.00     0.002 C 
HETATM   24  C   UNL     1      -8.858 -12.010 -39.451  1.00  0.00     0.032 C 
BRANCH  20  25
HETATM   25  O   UNL     1      -8.462 -15.328 -37.962  1.00  0.00    -0.339 OA
BRANCH  25  26
HETATM   26  C   UNL     1      -7.594 -16.333 -38.527  1.00  0.00     0.057 C 
HETATM   27  C   UNL     1      -6.352 -16.460 -37.637  1.00  0.00     0.045 C 
HETATM   28  C   UNL     1      -7.197 -16.158 -40.004  1.00  0.00     0.045 C 
HETATM   29  C   UNL     1      -8.398 -17.643 -38.423  1.00  0.00     0.045 C 
ENDBRANCH  25  26
ENDBRANCH  20  25
ENDBRANCH   1  19
TORSDOF 3
ENDMDL
MODEL 6
REMARK VINA RESULT:      -8.0      1.507      2.124
REMARK  3 active torsions:
REMARK  status: ('A' for Active; 'I' for Inactive)
REMARK    1  A    between atoms: C_2  and  O_3 
REMARK    2  A    between atoms: O_3  and  C_4 
REMARK    3  A    between atoms: C_5  and  N_6 
REMARK       I    between atoms: N_6  and  C_7 
REMARK       I    between atoms: C_7  and  N_8 
ROOT
HETATM    1  N   UNL     1      -3.895   4.426 -30.766  1.00  0.00    -0.306 N 
HETATM    2  C   UNL     1      -3.249   3.356 -31.365  1.00  0.00     0.323 C 
HETATM    3  N   UNL     1      -3.858   2.128 -31.136  1.00  0.00    -0.328 N 
HETATM    4  C   UNL     1      -3.098   0.920 -31.475  1.00  0.00     0.185 C 
HETATM    5  C   UNL     1      -3.973   0.016 -32.267  1.00  0.00     0.035 A 
HETATM    6  C   UNL     1      -5.338   0.123 -32.439  1.00  0.00    -0.020 A 
HETATM    7  C   UNL     1      -6.103   1.252 -31.837  1.00  0.00     0.061 C 
HETATM    8  C   UNL     1      -5.266   1.930 -30.726  1.00  0.00     0.132 C 
HETATM    9  N   UNL     1      -3.536  -1.074 -32.963  1.00  0.00    -0.357 N 
HETATM   10  H   UNL     1      -2.576  -1.383 -33.034  1.00  0.00     0.166 HD
HETATM   11  C   UNL     1      -4.602  -1.687 -33.587  1.00  0.00     0.043 A 
HETATM   12  C   UNL     1      -5.750  -0.952 -33.273  1.00  0.00    -0.001 A 
HETATM   13  C   UNL     1      -4.631  -2.820 -34.408  1.00  0.00     0.030 A 
HETATM   14  C   UNL     1      -5.868  -3.215 -34.924  1.00  0.00     0.002 A 
HETATM   15  C   UNL     1      -7.028  -2.503 -34.629  1.00  0.00     0.001 A 
HETATM   16  C   UNL     1      -6.984  -1.371 -33.806  1.00  0.00     0.014 A 
HETATM   17  O   UNL     1      -2.173   3.450 -31.950  1.00  0.00    -0.247 OA
HETATM   18  H   UNL     1      -4.169   4.188 -29.825  1.00  0.00     0.171 HD
ENDROOT
BRANCH   1  19
HETATM   19  C   UNL     1      -3.385   5.740 -30.930  1.00  0.00     0.069 C 
HETATM   20  C   UNL     1      -4.081   6.733 -31.643  1.00  0.00     0.096 C 
HETATM   21  C   UNL     1      -3.448   7.946 -31.915  1.00  0.00     0.039 C 
HETATM   22  C   UNL     1      -2.183   8.216 -31.391  1.00  0.00     0.003 C 
HETATM   23  C   UNL     1      -1.539   7.271 -30.597  1.00  0.00     0.002 C 
HETATM   24  C   UNL     1      -2.140   6.034 -30.362  1.00  0.00     0.032 C 
BRANCH  20  25
HETATM   25  O   UNL     1      -5.346   6.457 -32.073  1.00  0.00    -0.339 OA
BRANCH  25  26
HETATM   26  C   UNL     1      -6.492   6.865 -31.298  1.00  0.00     0.057 C 
HETATM   27  C   UNL     1      -7.207   7.997 -32.045  1.00  0.00     0.045 C 
HETATM   28  C   UNL     1      -6.236   7.252 -29.830  1.00  0.00     0.045 C 
HETATM   29  C   UNL     1      -7.416   5.633 -31.291  1.00  0.00     0.045 C 
ENDBRANCH  25  26
ENDBRANCH  20  25
ENDBRANCH   1  19
TORSDOF 3
ENDMDL
MODEL 7
REMARK VINA RESULT:      -8.0      2.190      3.415
REMARK  3 active torsions:
REMARK  status: ('A' for Active; 'I' for Inactive)
REMARK    1  A    between atoms: C_2  and  O_3 
REMARK    2  A    between atoms: O_3  and  C_4 
REMARK    3  A    between atoms: C_5  and  N_6 
REMARK       I    between atoms: N_6  and  C_7 
REMARK       I    between atoms: C_7  and  N_8 
ROOT
HETATM    1  N   UNL     1      -4.005   5.393 -30.335  1.00  0.00    -0.306 N 
HETATM    2  C   UNL     1      -3.462   4.422 -31.161  1.00  0.00     0.323 C 
HETATM    3  N   UNL     1      -3.925   3.137 -30.903  1.00  0.00    -0.328 N 
HETATM    4  C   UNL     1      -3.200   2.019 -31.517  1.00  0.00     0.185 C 
HETATM    5  C   UNL     1      -4.187   1.109 -32.155  1.00  0.00     0.035 A 
HETATM    6  C   UNL     1      -5.557   1.122 -31.989  1.00  0.00    -0.020 A 
HETATM    7  C   UNL     1      -6.218   2.142 -31.126  1.00  0.00     0.061 C 
HETATM    8  C   UNL     1      -5.177   2.802 -30.190  1.00  0.00     0.132 C 
HETATM    9  N   UNL     1      -3.869   0.108 -33.028  1.00  0.00    -0.357 N 
HETATM   10  H   UNL     1      -2.939  -0.119 -33.352  1.00  0.00     0.166 HD
HETATM   11  C   UNL     1      -5.018  -0.539 -33.433  1.00  0.00     0.043 A 
HETATM   12  C   UNL     1      -6.096   0.080 -32.793  1.00  0.00    -0.001 A 
HETATM   13  C   UNL     1      -5.178  -1.610 -34.320  1.00  0.00     0.030 A 
HETATM   14  C   UNL     1      -6.478  -2.063 -34.561  1.00  0.00     0.002 A 
HETATM   15  C   UNL     1      -7.572  -1.465 -33.938  1.00  0.00     0.001 A 
HETATM   16  C   UNL     1      -7.396  -0.395 -33.053  1.00  0.00     0.014 A 
HETATM   17  O   UNL     1      -2.568   4.641 -31.974  1.00  0.00    -0.247 OA
HETATM   18  H   UNL     1      -4.028   5.069 -29.380  1.00  0.00     0.171 HD
ENDROOT
BRANCH   1  19
HETATM   19  C   UNL     1      -3.628   6.751 -30.498  1.00  0.00     0.069 C 
HETATM   20  C   UNL     1      -2.406   7.255 -30.016  1.00  0.00     0.096 C 
HETATM   21  C   UNL     1      -2.172   8.630 -30.054  1.00  0.00     0.039 C 
HETATM   22  C   UNL     1      -3.091   9.486 -30.664  1.00  0.00     0.003 C 
HETATM   23  C   UNL     1      -4.252   8.972 -31.234  1.00  0.00     0.002 C 
HETATM   24  C   UNL     1      -4.521   7.604 -31.156  1.00  0.00     0.032 C 
BRANCH  20  25
HETATM   25  O   UNL     1      -1.501   6.375 -29.495  1.00  0.00    -0.339 OA
BRANCH  25  26
HETATM   26  C   UNL     1      -0.120   6.408 -29.910  1.00  0.00     0.057 C 
HETATM   27  C   UNL     1       0.656   7.314 -28.947  1.00  0.00     0.045 C 
HETATM   28  C   UNL     1       0.157   6.797 -31.374  1.00  0.00     0.045 C 
HETATM   29  C   UNL     1       0.377   4.962 -29.719  1.00  0.00     0.045 C 
ENDBRANCH  25  26
ENDBRANCH  20  25
ENDBRANCH   1  19
TORSDOF 3
ENDMDL
MODEL 8
REMARK VINA RESULT:      -7.7      3.032      4.353
REMARK  3 active torsions:
REMARK  status: ('A' for Active; 'I' for Inactive)
REMARK    1  A    between atoms: C_2  and  O_3 
REMARK    2  A    between atoms: O_3  and  C_4 
REMARK    3  A    between atoms: C_5  and  N_6 
REMARK       I    between atoms: N_6  and  C_7 
REMARK       I    between atoms: C_7  and  N_8 
ROOT
HETATM    1  N   UNL     1      -2.791   4.366 -30.823  1.00  0.00    -0.306 N 
HETATM    2  C   UNL     1      -3.232   3.609 -31.897  1.00  0.00     0.323 C 
HETATM    3  N   UNL     1      -4.275   2.744 -31.587  1.00  0.00    -0.328 N 
HETATM    4  C   UNL     1      -4.609   1.705 -32.568  1.00  0.00     0.185 C 
HETATM    5  C   UNL     1      -6.080   1.712 -32.783  1.00  0.00     0.035 A 
HETATM    6  C   UNL     1      -7.027   2.364 -32.020  1.00  0.00    -0.020 A 
HETATM    7  C   UNL     1      -6.631   3.207 -30.856  1.00  0.00     0.061 C 
HETATM    8  C   UNL     1      -5.183   2.873 -30.426  1.00  0.00     0.132 C 
HETATM    9  N   UNL     1      -6.719   1.063 -33.800  1.00  0.00    -0.357 N 
HETATM   10  H   UNL     1      -6.272   0.521 -34.526  1.00  0.00     0.166 HD
HETATM   11  C   UNL     1      -8.078   1.279 -33.709  1.00  0.00     0.043 A 
HETATM   12  C   UNL     1      -8.299   2.096 -32.596  1.00  0.00    -0.001 A 
HETATM   13  C   UNL     1      -9.115   0.823 -34.531  1.00  0.00     0.030 A 
HETATM   14  C   UNL     1     -10.418   1.213 -34.208  1.00  0.00     0.002 A 
HETATM   15  C   UNL     1     -10.669   2.027 -33.105  1.00  0.00     0.001 A 
HETATM   16  C   UNL     1      -9.621   2.475 -32.292  1.00  0.00     0.014 A 
HETATM   17  O   UNL     1      -2.689   3.605 -32.998  1.00  0.00    -0.247 OA
HETATM   18  H   UNL     1      -2.716   3.793 -29.997  1.00  0.00     0.171 HD
ENDROOT
BRANCH   1  19
HETATM   19  C   UNL     1      -1.737   5.299 -31.004  1.00  0.00     0.069 C 
HETATM   20  C   UNL     1      -1.961   6.603 -31.483  1.00  0.00     0.096 C 
HETATM   21  C   UNL     1      -0.868   7.409 -31.803  1.00  0.00     0.039 C 
HETATM   22  C   UNL     1       0.432   6.971 -31.545  1.00  0.00     0.003 C 
HETATM   23  C   UNL     1       0.647   5.720 -30.972  1.00  0.00     0.002 C 
HETATM   24  C   UNL     1      -0.436   4.885 -30.697  1.00  0.00     0.032 C 
BRANCH  20  25
HETATM   25  O   UNL     1      -3.250   7.020 -31.650  1.00  0.00    -0.339 OA
BRANCH  25  26
HETATM   26  C   UNL     1      -3.947   7.699 -30.585  1.00  0.00     0.057 C 
HETATM   27  C   UNL     1      -4.183   9.154 -31.007  1.00  0.00     0.045 C 
HETATM   28  C   UNL     1      -3.312   7.629 -29.184  1.00  0.00     0.045 C 
HETATM   29  C   UNL     1      -5.313   6.992 -30.503  1.00  0.00     0.045 C 
ENDBRANCH  25  26
ENDBRANCH  20  25
ENDBRANCH   1  19
TORSDOF 3
ENDMDL
MODEL 9
REMARK VINA RESULT:      -7.6      4.670      8.308
REMARK  3 active torsions:
REMARK  status: ('A' for Active; 'I' for Inactive)
REMARK    1  A    between atoms: C_2  and  O_3 
REMARK    2  A    between atoms: O_3  and  C_4 
REMARK    3  A    between atoms: C_5  and  N_6 
REMARK       I    between atoms: N_6  and  C_7 
REMARK       I    between atoms: C_7  and  N_8 
ROOT
HETATM    1  N   UNL     1      -5.694   2.091 -32.332  1.00  0.00    -0.306 N 
HETATM    2  C   UNL     1      -6.675   2.171 -31.357  1.00  0.00     0.323 C 
HETATM    3  N   UNL     1      -7.531   3.256 -31.505  1.00  0.00    -0.328 N 
HETATM    4  C   UNL     1      -8.405   3.590 -30.374  1.00  0.00     0.185 C 
HETATM    5  C   UNL     1      -9.788   3.775 -30.884  1.00  0.00     0.035 A 
HETATM    6  C   UNL     1     -10.179   3.895 -32.202  1.00  0.00    -0.020 A 
HETATM    7  C   UNL     1      -9.185   3.808 -33.310  1.00  0.00     0.061 C 
HETATM    8  C   UNL     1      -7.753   4.010 -32.758  1.00  0.00     0.132 C 
HETATM    9  N   UNL     1     -10.903   3.844 -30.098  1.00  0.00    -0.357 N 
HETATM   10  H   UNL     1     -10.920   3.764 -29.091  1.00  0.00     0.166 HD
HETATM   11  C   UNL     1     -12.021   4.014 -30.887  1.00  0.00     0.043 A 
HETATM   12  C   UNL     1     -11.592   4.050 -32.218  1.00  0.00    -0.001 A 
HETATM   13  C   UNL     1     -13.368   4.127 -30.523  1.00  0.00     0.030 A 
HETATM   14  C   UNL     1     -14.305   4.280 -31.548  1.00  0.00     0.002 A 
HETATM   15  C   UNL     1     -13.908   4.318 -32.883  1.00  0.00     0.001 A 
HETATM   16  C   UNL     1     -12.557   4.205 -33.232  1.00  0.00     0.014 A 
HETATM   17  O   UNL     1      -6.727   1.430 -30.379  1.00  0.00    -0.247 OA
HETATM   18  H   UNL     1      -5.297   3.001 -32.507  1.00  0.00     0.171 HD
ENDROOT
BRANCH   1  19
HETATM   19  C   UNL     1      -4.759   1.023 -32.307  1.00  0.00     0.069 C 
HETATM   20  C   UNL     1      -4.791  -0.027 -33.242  1.00  0.00     0.096 C 
HETATM   21  C   UNL     1      -3.958  -1.130 -33.058  1.00  0.00     0.039 C 
HETATM   22  C   UNL     1      -3.023  -1.144 -32.021  1.00  0.00     0.003 C 
HETATM   23  C   UNL     1      -2.921  -0.056 -31.158  1.00  0.00     0.002 C 
HETATM   24  C   UNL     1      -3.785   1.030 -31.302  1.00  0.00     0.032 C 
BRANCH  20  25
HETATM   25  O   UNL     1      -5.667   0.060 -34.285  1.00  0.00    -0.339 OA
BRANCH  25  26
HETATM   26  C   UNL     1      -6.911  -0.670 -34.264  1.00  0.00     0.057 C 
HETATM   27  C   UNL     1      -7.910   0.041 -35.184  1.00  0.00     0.045 C 
HETATM   28  C   UNL     1      -7.534  -0.941 -32.882  1.00  0.00     0.045 C 
HETATM   29  C   UNL     1      -6.570  -2.037 -34.886  1.00  0.00     0.045 C 
ENDBRANCH  25  26
ENDBRANCH  20  25
ENDBRANCH   1  19
TORSDOF 3
ENDMDL
MODEL 10
REMARK VINA RESULT:      -7.6      3.830      4.911
REMARK  3 active torsions:
REMARK  status: ('A' for Active; 'I' for Inactive)
REMARK    1  A    between atoms: C_2  and  O_3 
REMARK    2  A    between atoms: O_3  and  C_4 
REMARK    3  A    between atoms: C_5  and  N_6 
REMARK       I    between atoms: N_6  and  C_7 
REMARK       I    between atoms: C_7  and  N_8 
ROOT
HETATM    1  N   UNL     1      -9.567   3.807 -33.037  1.00  0.00    -0.306 N 
HETATM    2  C   UNL     1      -8.238   3.415 -33.017  1.00  0.00     0.323 C 
HETATM    3  N   UNL     1      -8.037   2.124 -32.542  1.00  0.00    -0.328 N 
HETATM    4  C   UNL     1      -6.664   1.729 -32.210  1.00  0.00     0.185 C 
HETATM    5  C   UNL     1      -6.386   0.410 -32.836  1.00  0.00     0.035 A 
HETATM    6  C   UNL     1      -7.304  -0.452 -33.400  1.00  0.00    -0.020 A 
HETATM    7  C   UNL     1      -8.750  -0.096 -33.470  1.00  0.00     0.061 C 
HETATM    8  C   UNL     1      -9.063   1.059 -32.489  1.00  0.00     0.132 C 
HETATM    9  N   UNL     1      -5.145  -0.148 -32.953  1.00  0.00    -0.357 N 
HETATM   10  H   UNL     1      -4.278   0.272 -32.646  1.00  0.00     0.166 HD
HETATM   11  C   UNL     1      -5.240  -1.370 -33.584  1.00  0.00     0.043 A 
HETATM   12  C   UNL     1      -6.591  -1.585 -33.877  1.00  0.00    -0.001 A 
HETATM   13  C   UNL     1      -4.237  -2.285 -33.924  1.00  0.00     0.030 A 
HETATM   14  C   UNL     1      -4.624  -3.455 -34.582  1.00  0.00     0.002 A 
HETATM   15  C   UNL     1      -5.962  -3.697 -34.888  1.00  0.00     0.001 A 
HETATM   16  C   UNL     1      -6.954  -2.773 -34.541  1.00  0.00     0.014 A 
HETATM   17  O   UNL     1      -7.302   4.164 -33.280  1.00  0.00    -0.247 OA
HETATM   18  H   UNL     1     -10.029   3.527 -32.185  1.00  0.00     0.171 HD
ENDROOT
BRANCH   1  19
HETATM   19  C   UNL     1      -9.914   5.099 -33.510  1.00  0.00     0.069 C 
HETATM   20  C   UNL     1     -10.270   6.147 -32.641  1.00  0.00     0.096 C 
HETATM   21  C   UNL     1     -10.768   7.336 -33.175  1.00  0.00     0.039 C 
HETATM   22  C   UNL     1     -10.809   7.527 -34.558  1.00  0.00     0.003 C 
HETATM   23  C   UNL     1     -10.357   6.527 -35.415  1.00  0.00     0.002 C 
HETATM   24  C   UNL     1      -9.906   5.314 -34.893  1.00  0.00     0.032 C 
BRANCH  20  25
HETATM   25  O   UNL     1     -10.144   5.947 -31.297  1.00  0.00    -0.339 OA
BRANCH  25  26
HETATM   26  C   UNL     1      -9.016   6.482 -30.576  1.00  0.00     0.057 C 
HETATM   27  C   UNL     1      -9.525   7.540 -29.590  1.00  0.00     0.045 C 
HETATM   28  C   UNL     1      -7.851   7.033 -31.419  1.00  0.00     0.045 C 
HETATM   29  C   UNL     1      -8.470   5.291 -29.767  1.00  0.00     0.045 C 
ENDBRANCH  25  26
ENDBRANCH  20  25
ENDBRANCH   1  19
TORSDOF 3
ENDMDL
