MODEL 1
REMARK VINA RESULT:      -9.2      0.000      0.000
REMARK  7 active torsions:
REMARK  status: ('A' for Active; 'I' for Inactive)
REMARK    1  A    between atoms: C_3  and  N_4 
REMARK    2  A    between atoms: C_5  and  S_6 
REMARK    3  A    between atoms: S_6  and  C_7 
REMARK    4  A    between atoms: C_7  and  C_8 
REMARK       I    between atoms: C_8  and  N_9 
REMARK    5  A    between atoms: N_9  and  C_10 
REMARK    6  A    between atoms: C_13  and  C_14 
REMARK       I    between atoms: C_14  and  N_15 
REMARK    7  A    between atoms: C_22  and  C_23 
ROOT
HETATM    1  N   UNL     1      -5.276   2.864 -31.483  1.00  0.00    -0.271 N 
HETATM    2  C   UNL     1      -5.991   3.362 -30.408  1.00  0.00     0.197 C 
HETATM    3  N   UNL     1      -6.728   2.412 -29.880  1.00  0.00    -0.122 NA
HETATM    4  N   UNL     1      -6.425   1.244 -30.520  1.00  0.00    -0.128 NA
HETATM    5  C   UNL     1      -5.492   1.492 -31.425  1.00  0.00     0.171 C 
ENDROOT
BRANCH   2   6
HETATM    6  S   UNL     1      -6.029   5.023 -29.911  1.00  0.00    -0.080 SA
BRANCH   6   7
HETATM    7  C   UNL     1      -7.785   5.258 -29.529  1.00  0.00     0.185 C 
BRANCH   7   8
HETATM    8  C   UNL     1      -8.671   5.027 -30.745  1.00  0.00     0.231 C 
HETATM    9  N   UNL     1      -9.368   3.834 -30.688  1.00  0.00    -0.327 N 
HETATM   10  H   UNL     1      -9.408   3.383 -29.772  1.00  0.00     0.169 HD
HETATM   11  O   UNL     1      -8.695   5.836 -31.669  1.00  0.00    -0.272 OA
BRANCH   9  12
HETATM   12  C   UNL     1     -10.111   3.210 -31.707  1.00  0.00     0.034 A 
HETATM   13  C   UNL     1     -11.372   3.750 -31.992  1.00  0.00     0.030 A 
HETATM   14  C   UNL     1     -12.208   3.156 -32.945  1.00  0.00     0.019 A 
HETATM   15  C   UNL     1     -11.787   2.009 -33.622  1.00  0.00     0.032 A 
HETATM   16  C   UNL     1     -10.514   1.488 -33.366  1.00  0.00     0.019 A 
HETATM   17  C   UNL     1      -9.683   2.082 -32.408  1.00  0.00     0.030 A 
BRANCH  15  18
HETATM   18  C   UNL     1     -12.646   1.321 -34.621  1.00  0.00     0.249 C 
HETATM   19  N   UNL     1     -13.351   0.229 -34.193  1.00  0.00    -0.366 N 
HETATM   20  H   UNL     1     -13.141  -0.245 -33.327  1.00  0.00     0.159 HD
HETATM   21  H   UNL     1     -13.831  -0.299 -34.912  1.00  0.00     0.159 HD
HETATM   22  O   UNL     1     -12.694   1.679 -35.790  1.00  0.00    -0.268 OA
ENDBRANCH  15  18
ENDBRANCH   9  12
ENDBRANCH   7   8
ENDBRANCH   6   7
ENDBRANCH   2   6
BRANCH   1  23
HETATM   23  C   UNL     1      -4.591   3.599 -32.484  1.00  0.00     0.049 A 
HETATM   24  C   UNL     1      -5.272   4.094 -33.618  1.00  0.00    -0.035 A 
HETATM   25  C   UNL     1      -6.756   3.962 -33.838  1.00  0.00     0.050 C 
HETATM   26  C   UNL     1      -4.525   4.772 -34.597  1.00  0.00     0.009 A 
HETATM   27  C   UNL     1      -3.155   4.987 -34.435  1.00  0.00     0.001 A 
HETATM   28  C   UNL     1      -2.504   4.525 -33.294  1.00  0.00     0.002 A 
HETATM   29  C   UNL     1      -3.217   3.830 -32.318  1.00  0.00     0.031 A 
ENDBRANCH   1  23
BRANCH   5  30
HETATM   30  C   UNL     1      -4.776   0.402 -32.161  1.00  0.00     0.040 A 
HETATM   31  C   UNL     1      -5.362  -0.546 -33.058  1.00  0.00     0.006 A 
HETATM   32  C   UNL     1      -4.335  -1.386 -33.497  1.00  0.00     0.043 A 
HETATM   33  C   UNL     1      -6.663  -0.772 -33.556  1.00  0.00     0.015 A 
HETATM   34  C   UNL     1      -4.543  -2.434 -34.402  1.00  0.00     0.030 A 
HETATM   35  N   UNL     1      -3.179  -0.972 -32.878  1.00  0.00    -0.364 N 
HETATM   36  C   UNL     1      -5.842  -2.632 -34.877  1.00  0.00     0.002 A 
HETATM   37  C   UNL     1      -6.888  -1.815 -34.463  1.00  0.00     0.001 A 
HETATM   38  H   UNL     1      -2.276  -1.411 -33.000  1.00  0.00     0.165 HD
HETATM   39  C   UNL     1      -3.434   0.101 -32.065  1.00  0.00     0.104 A 
ENDBRANCH   5  30
TORSDOF 7
ENDMDL
MODEL 2
REMARK VINA RESULT:      -9.1      3.231      6.860
REMARK  7 active torsions:
REMARK  status: ('A' for Active; 'I' for Inactive)
REMARK    1  A    between atoms: C_3  and  N_4 
REMARK    2  A    between atoms: C_5  and  S_6 
REMARK    3  A    between atoms: S_6  and  C_7 
REMARK    4  A    between atoms: C_7  and  C_8 
REMARK       I    between atoms: C_8  and  N_9 
REMARK    5  A    between atoms: N_9  and  C_10 
REMARK    6  A    between atoms: C_13  and  C_14 
REMARK       I    between atoms: C_14  and  N_15 
REMARK    7  A    between atoms: C_22  and  C_23 
ROOT
HETATM    1  N   UNL     1      -5.240   4.385 -32.161  1.00  0.00    -0.271 N 
HETATM    2  C   UNL     1      -6.134   4.632 -33.187  1.00  0.00     0.197 C 
HETATM    3  N   UNL     1      -6.482   5.898 -33.186  1.00  0.00    -0.122 NA
HETATM    4  N   UNL     1      -5.735   6.535 -32.236  1.00  0.00    -0.128 NA
HETATM    5  C   UNL     1      -4.927   5.650 -31.676  1.00  0.00     0.171 C 
ENDROOT
BRANCH   2   6
HETATM    6  S   UNL     1      -6.815   3.430 -34.236  1.00  0.00    -0.080 SA
BRANCH   6   7
HETATM    7  C   UNL     1      -8.053   2.656 -33.162  1.00  0.00     0.185 C 
BRANCH   7   8
HETATM    8  C   UNL     1      -7.740   1.191 -32.892  1.00  0.00     0.231 C 
HETATM    9  N   UNL     1      -6.805   0.666 -33.766  1.00  0.00    -0.327 N 
HETATM   10  H   UNL     1      -6.267   1.347 -34.304  1.00  0.00     0.169 HD
HETATM   11  O   UNL     1      -8.318   0.578 -31.998  1.00  0.00    -0.272 OA
BRANCH   9  12
HETATM   12  C   UNL     1      -6.433  -0.679 -33.938  1.00  0.00     0.034 A 
HETATM   13  C   UNL     1      -5.094  -1.004 -33.680  1.00  0.00     0.030 A 
HETATM   14  C   UNL     1      -4.618  -2.304 -33.887  1.00  0.00     0.019 A 
HETATM   15  C   UNL     1      -5.483  -3.295 -34.359  1.00  0.00     0.032 A 
HETATM   16  C   UNL     1      -6.827  -2.983 -34.584  1.00  0.00     0.019 A 
HETATM   17  C   UNL     1      -7.299  -1.679 -34.381  1.00  0.00     0.030 A 
BRANCH  15  18
HETATM   18  C   UNL     1      -5.023  -4.683 -34.624  1.00  0.00     0.249 C 
HETATM   19  N   UNL     1      -3.838  -5.068 -34.060  1.00  0.00    -0.366 N 
HETATM   20  H   UNL     1      -3.179  -4.404 -33.678  1.00  0.00     0.159 HD
HETATM   21  H   UNL     1      -3.480  -5.969 -34.351  1.00  0.00     0.159 HD
HETATM   22  O   UNL     1      -5.646  -5.443 -35.353  1.00  0.00    -0.268 OA
ENDBRANCH  15  18
ENDBRANCH   9  12
ENDBRANCH   7   8
ENDBRANCH   6   7
ENDBRANCH   2   6
BRANCH   1  23
HETATM   23  C   UNL     1      -4.840   3.127 -31.642  1.00  0.00     0.049 A 
HETATM   24  C   UNL     1      -5.500   2.554 -30.533  1.00  0.00    -0.035 A 
HETATM   25  C   UNL     1      -6.700   3.162 -29.855  1.00  0.00     0.050 C 
HETATM   26  C   UNL     1      -5.022   1.328 -30.038  1.00  0.00     0.009 A 
HETATM   27  C   UNL     1      -3.953   0.673 -30.650  1.00  0.00     0.001 A 
HETATM   28  C   UNL     1      -3.335   1.233 -31.765  1.00  0.00     0.002 A 
HETATM   29  C   UNL     1      -3.775   2.459 -32.264  1.00  0.00     0.031 A 
ENDBRANCH   1  23
BRANCH   5  30
HETATM   30  C   UNL     1      -3.823   6.046 -30.743  1.00  0.00     0.040 A 
HETATM   31  C   UNL     1      -2.420   5.882 -30.967  1.00  0.00     0.006 A 
HETATM   32  C   UNL     1      -1.763   6.368 -29.834  1.00  0.00     0.043 A 
HETATM   33  C   UNL     1      -1.633   5.380 -32.027  1.00  0.00     0.015 A 
HETATM   34  C   UNL     1      -0.369   6.376 -29.707  1.00  0.00     0.030 A 
HETATM   35  N   UNL     1      -2.731   6.793 -28.954  1.00  0.00    -0.364 N 
HETATM   36  C   UNL     1       0.382   5.873 -30.772  1.00  0.00     0.002 A 
HETATM   37  C   UNL     1      -0.238   5.382 -31.917  1.00  0.00     0.001 A 
HETATM   38  H   UNL     1      -2.543   7.180 -28.039  1.00  0.00     0.165 HD
HETATM   39  C   UNL     1      -3.977   6.597 -29.489  1.00  0.00     0.104 A 
ENDBRANCH   5  30
TORSDOF 7
ENDMDL
MODEL 3
REMARK VINA RESULT:      -9.1      2.859      7.493
REMARK  7 active torsions:
REMARK  status: ('A' for Active; 'I' for Inactive)
REMARK    1  A    between atoms: C_3  and  N_4 
REMARK    2  A    between atoms: C_5  and  S_6 
REMARK    3  A    between atoms: S_6  and  C_7 
REMARK    4  A    between atoms: C_7  and  C_8 
REMARK       I    between atoms: C_8  and  N_9 
REMARK    5  A    between atoms: N_9  and  C_10 
REMARK    6  A    between atoms: C_13  and  C_14 
REMARK       I    between atoms: C_14  and  N_15 
REMARK    7  A    between atoms: C_22  and  C_23 
ROOT
HETATM    1  N   UNL     1      -8.952   3.563 -33.481  1.00  0.00    -0.271 N 
HETATM    2  C   UNL     1      -8.025   4.533 -33.817  1.00  0.00     0.197 C 
HETATM    3  N   UNL     1      -8.640   5.636 -34.178  1.00  0.00    -0.122 NA
HETATM    4  N   UNL     1      -9.978   5.453 -33.976  1.00  0.00    -0.128 NA
HETATM    5  C   UNL     1     -10.164   4.242 -33.477  1.00  0.00     0.171 C 
ENDROOT
BRANCH   2   6
HETATM    6  S   UNL     1      -6.308   4.299 -33.893  1.00  0.00    -0.080 SA
BRANCH   6   7
HETATM    7  C   UNL     1      -5.841   4.393 -32.144  1.00  0.00     0.185 C 
BRANCH   7   8
HETATM    8  C   UNL     1      -5.281   3.073 -31.630  1.00  0.00     0.231 C 
HETATM    9  N   UNL     1      -4.694   2.310 -32.624  1.00  0.00    -0.327 N 
HETATM   10  H   UNL     1      -4.485   2.799 -33.496  1.00  0.00     0.169 HD
HETATM   11  O   UNL     1      -5.400   2.757 -30.449  1.00  0.00    -0.272 OA
BRANCH   9  12
HETATM   12  C   UNL     1      -4.262   0.973 -32.554  1.00  0.00     0.034 A 
HETATM   13  C   UNL     1      -4.902   0.057 -33.398  1.00  0.00     0.030 A 
HETATM   14  C   UNL     1      -4.583  -1.306 -33.351  1.00  0.00     0.019 A 
HETATM   15  C   UNL     1      -3.616  -1.764 -32.452  1.00  0.00     0.032 A 
HETATM   16  C   UNL     1      -2.951  -0.846 -31.633  1.00  0.00     0.019 A 
HETATM   17  C   UNL     1      -3.277   0.515 -31.679  1.00  0.00     0.030 A 
BRANCH  15  18
HETATM   18  C   UNL     1      -3.262  -3.202 -32.340  1.00  0.00     0.249 C 
HETATM   19  N   UNL     1      -2.524  -3.582 -31.252  1.00  0.00    -0.366 N 
HETATM   20  H   UNL     1      -2.037  -2.917 -30.670  1.00  0.00     0.159 HD
HETATM   21  H   UNL     1      -2.187  -4.537 -31.255  1.00  0.00     0.159 HD
HETATM   22  O   UNL     1      -3.571  -4.015 -33.201  1.00  0.00    -0.268 OA
ENDBRANCH  15  18
ENDBRANCH   9  12
ENDBRANCH   7   8
ENDBRANCH   6   7
ENDBRANCH   2   6
BRANCH   1  23
HETATM   23  C   UNL     1      -8.728   2.173 -33.312  1.00  0.00     0.049 A 
HETATM   24  C   UNL     1      -8.644   1.601 -32.023  1.00  0.00    -0.035 A 
HETATM   25  C   UNL     1      -8.848   2.366 -30.742  1.00  0.00     0.050 C 
HETATM   26  C   UNL     1      -8.371   0.225 -31.925  1.00  0.00     0.009 A 
HETATM   27  C   UNL     1      -8.229  -0.563 -33.068  1.00  0.00     0.001 A 
HETATM   28  C   UNL     1      -8.351   0.008 -34.331  1.00  0.00     0.002 A 
HETATM   29  C   UNL     1      -8.599   1.374 -34.458  1.00  0.00     0.031 A 
ENDBRANCH   1  23
BRANCH   5  30
HETATM   30  C   UNL     1     -11.487   3.788 -32.939  1.00  0.00     0.040 A 
HETATM   31  C   UNL     1     -12.331   2.777 -33.497  1.00  0.00     0.006 A 
HETATM   32  C   UNL     1     -13.467   2.696 -32.687  1.00  0.00     0.043 A 
HETATM   33  C   UNL     1     -12.243   1.908 -34.606  1.00  0.00     0.015 A 
HETATM   34  C   UNL     1     -14.512   1.797 -32.929  1.00  0.00     0.030 A 
HETATM   35  N   UNL     1     -13.322   3.632 -31.690  1.00  0.00    -0.364 N 
HETATM   36  C   UNL     1     -14.396   0.949 -34.034  1.00  0.00     0.002 A 
HETATM   37  C   UNL     1     -13.279   1.001 -34.862  1.00  0.00     0.001 A 
HETATM   38  H   UNL     1     -14.004   3.805 -30.964  1.00  0.00     0.165 HD
HETATM   39  C   UNL     1     -12.135   4.301 -31.836  1.00  0.00     0.104 A 
ENDBRANCH   5  30
TORSDOF 7
ENDMDL
MODEL 4
REMARK VINA RESULT:      -8.8      3.591      7.104
REMARK  7 active torsions:
REMARK  status: ('A' for Active; 'I' for Inactive)
REMARK    1  A    between atoms: C_3  and  N_4 
REMARK    2  A    between atoms: C_5  and  S_6 
REMARK    3  A    between atoms: S_6  and  C_7 
REMARK    4  A    between atoms: C_7  and  C_8 
REMARK       I    between atoms: C_8  and  N_9 
REMARK    5  A    between atoms: N_9  and  C_10 
REMARK    6  A    between atoms: C_13  and  C_14 
REMARK       I    between atoms: C_14  and  N_15 
REMARK    7  A    between atoms: C_22  and  C_23 
ROOT
HETATM    1  N   UNL     1      -4.663   5.235 -31.609  1.00  0.00    -0.271 N 
HETATM    2  C   UNL     1      -5.855   4.538 -31.692  1.00  0.00     0.197 C 
HETATM    3  N   UNL     1      -6.403   4.441 -30.502  1.00  0.00    -0.122 NA
HETATM    4  N   UNL     1      -5.644   5.171 -29.633  1.00  0.00    -0.128 NA
HETATM    5  C   UNL     1      -4.647   5.720 -30.306  1.00  0.00     0.171 C 
ENDROOT
BRANCH   2   6
HETATM    6  S   UNL     1      -6.474   3.776 -33.121  1.00  0.00    -0.080 SA
BRANCH   6   7
HETATM    7  C   UNL     1      -7.760   2.696 -32.441  1.00  0.00     0.185 C 
BRANCH   7   8
HETATM    8  C   UNL     1      -7.293   1.251 -32.328  1.00  0.00     0.231 C 
HETATM    9  N   UNL     1      -6.509   0.851 -33.396  1.00  0.00    -0.327 N 
HETATM   10  H   UNL     1      -6.138   1.600 -33.983  1.00  0.00     0.169 HD
HETATM   11  O   UNL     1      -7.639   0.550 -31.381  1.00  0.00    -0.272 OA
BRANCH   9  12
HETATM   12  C   UNL     1      -6.078  -0.449 -33.720  1.00  0.00     0.034 A 
HETATM   13  C   UNL     1      -7.012  -1.288 -34.341  1.00  0.00     0.030 A 
HETATM   14  C   UNL     1      -6.693  -2.618 -34.641  1.00  0.00     0.019 A 
HETATM   15  C   UNL     1      -5.429  -3.121 -34.320  1.00  0.00     0.032 A 
HETATM   16  C   UNL     1      -4.483  -2.275 -33.732  1.00  0.00     0.019 A 
HETATM   17  C   UNL     1      -4.808  -0.947 -33.428  1.00  0.00     0.030 A 
BRANCH  15  18
HETATM   18  C   UNL     1      -5.049  -4.532 -34.589  1.00  0.00     0.249 C 
HETATM   19  N   UNL     1      -3.794  -4.925 -34.213  1.00  0.00    -0.366 N 
HETATM   20  H   UNL     1      -3.067  -4.263 -33.981  1.00  0.00     0.159 HD
HETATM   21  H   UNL     1      -3.509  -5.848 -34.514  1.00  0.00     0.159 HD
HETATM   22  O   UNL     1      -5.802  -5.306 -35.164  1.00  0.00    -0.268 OA
ENDBRANCH  15  18
ENDBRANCH   9  12
ENDBRANCH   7   8
ENDBRANCH   6   7
ENDBRANCH   2   6
BRANCH   1  23
HETATM   23  C   UNL     1      -3.639   5.321 -32.585  1.00  0.00     0.049 A 
HETATM   24  C   UNL     1      -2.851   4.195 -32.916  1.00  0.00    -0.035 A 
HETATM   25  C   UNL     1      -3.058   2.820 -32.339  1.00  0.00     0.050 C 
HETATM   26  C   UNL     1      -1.820   4.361 -33.856  1.00  0.00     0.009 A 
HETATM   27  C   UNL     1      -1.605   5.591 -34.480  1.00  0.00     0.001 A 
HETATM   28  C   UNL     1      -2.413   6.682 -34.171  1.00  0.00     0.002 A 
HETATM   29  C   UNL     1      -3.429   6.552 -33.225  1.00  0.00     0.031 A 
ENDBRANCH   1  23
BRANCH   5  30
HETATM   30  C   UNL     1      -3.745   6.755 -29.706  1.00  0.00     0.040 A 
HETATM   31  C   UNL     1      -2.315   6.752 -29.727  1.00  0.00     0.006 A 
HETATM   32  C   UNL     1      -1.891   7.890 -29.035  1.00  0.00     0.043 A 
HETATM   33  C   UNL     1      -1.329   5.903 -30.275  1.00  0.00     0.015 A 
HETATM   34  C   UNL     1      -0.541   8.219 -28.865  1.00  0.00     0.030 A 
HETATM   35  N   UNL     1      -3.020   8.545 -28.600  1.00  0.00    -0.364 N 
HETATM   36  C   UNL     1       0.411   7.359 -29.419  1.00  0.00     0.002 A 
HETATM   37  C   UNL     1       0.026   6.218 -30.115  1.00  0.00     0.001 A 
HETATM   38  H   UNL     1      -3.013   9.398 -28.057  1.00  0.00     0.165 HD
HETATM   39  C   UNL     1      -4.143   7.867 -28.994  1.00  0.00     0.104 A 
ENDBRANCH   5  30
TORSDOF 7
ENDMDL
MODEL 5
REMARK VINA RESULT:      -8.8      4.274      8.341
REMARK  7 active torsions:
REMARK  status: ('A' for Active; 'I' for Inactive)
REMARK    1  A    between atoms: C_3  and  N_4 
REMARK    2  A    between atoms: C_5  and  S_6 
REMARK    3  A    between atoms: S_6  and  C_7 
REMARK    4  A    between atoms: C_7  and  C_8 
REMARK       I    between atoms: C_8  and  N_9 
REMARK    5  A    between atoms: N_9  and  C_10 
REMARK    6  A    between atoms: C_13  and  C_14 
REMARK       I    between atoms: C_14  and  N_15 
REMARK    7  A    between atoms: C_22  and  C_23 
ROOT
HETATM    1  N   UNL     1      -4.986   1.112 -32.666  1.00  0.00    -0.271 N 
HETATM    2  C   UNL     1      -3.824   1.760 -32.286  1.00  0.00     0.197 C 
HETATM    3  N   UNL     1      -2.823   0.910 -32.265  1.00  0.00    -0.122 NA
HETATM    4  N   UNL     1      -3.280  -0.284 -32.743  1.00  0.00    -0.128 NA
HETATM    5  C   UNL     1      -4.555  -0.147 -33.066  1.00  0.00     0.171 C 
ENDROOT
BRANCH   2   6
HETATM    6  S   UNL     1      -3.719   3.413 -31.772  1.00  0.00    -0.080 SA
BRANCH   6   7
HETATM    7  C   UNL     1      -2.627   4.126 -33.030  1.00  0.00     0.185 C 
BRANCH   7   8
HETATM    8  C   UNL     1      -1.605   5.080 -32.427  1.00  0.00     0.231 C 
HETATM    9  N   UNL     1      -1.594   5.058 -31.044  1.00  0.00    -0.327 N 
HETATM   10  H   UNL     1      -2.065   4.264 -30.607  1.00  0.00     0.169 HD
HETATM   11  O   UNL     1      -0.915   5.799 -33.145  1.00  0.00    -0.272 OA
BRANCH   9  12
HETATM   12  C   UNL     1      -0.936   5.936 -30.164  1.00  0.00     0.034 A 
HETATM   13  C   UNL     1       0.144   5.414 -29.439  1.00  0.00     0.030 A 
HETATM   14  C   UNL     1       0.817   6.195 -28.493  1.00  0.00     0.019 A 
HETATM   15  C   UNL     1       0.413   7.512 -28.262  1.00  0.00     0.032 A 
HETATM   16  C   UNL     1      -0.642   8.048 -29.009  1.00  0.00     0.019 A 
HETATM   17  C   UNL     1      -1.317   7.261 -29.951  1.00  0.00     0.030 A 
BRANCH  15  18
HETATM   18  C   UNL     1       1.073   8.375 -27.248  1.00  0.00     0.249 C 
HETATM   19  N   UNL     1       0.497   8.438 -26.009  1.00  0.00    -0.366 N 
HETATM   20  H   UNL     1      -0.445   8.119 -25.834  1.00  0.00     0.159 HD
HETATM   21  H   UNL     1       0.886   9.123 -25.373  1.00  0.00     0.159 HD
HETATM   22  O   UNL     1       2.065   9.042 -27.513  1.00  0.00    -0.268 OA
ENDBRANCH  15  18
ENDBRANCH   9  12
ENDBRANCH   7   8
ENDBRANCH   6   7
ENDBRANCH   2   6
BRANCH   1  23
HETATM   23  C   UNL     1      -6.319   1.583 -32.548  1.00  0.00     0.049 A 
HETATM   24  C   UNL     1      -7.152   1.155 -31.491  1.00  0.00    -0.035 A 
HETATM   25  C   UNL     1      -6.705   0.246 -30.377  1.00  0.00     0.050 C 
HETATM   26  C   UNL     1      -8.478   1.621 -31.461  1.00  0.00     0.009 A 
HETATM   27  C   UNL     1      -8.948   2.515 -32.425  1.00  0.00     0.001 A 
HETATM   28  C   UNL     1      -8.104   2.956 -33.441  1.00  0.00     0.002 A 
HETATM   29  C   UNL     1      -6.791   2.493 -33.507  1.00  0.00     0.031 A 
ENDBRANCH   1  23
BRANCH   5  30
HETATM   30  C   UNL     1      -5.312  -1.198 -33.818  1.00  0.00     0.040 A 
HETATM   31  C   UNL     1      -4.954  -2.577 -33.947  1.00  0.00     0.006 A 
HETATM   32  C   UNL     1      -5.927  -3.182 -34.745  1.00  0.00     0.043 A 
HETATM   33  C   UNL     1      -3.903  -3.382 -33.455  1.00  0.00     0.015 A 
HETATM   34  C   UNL     1      -5.903  -4.542 -35.076  1.00  0.00     0.030 A 
HETATM   35  N   UNL     1      -6.828  -2.205 -35.099  1.00  0.00    -0.364 N 
HETATM   36  C   UNL     1      -4.851  -5.314 -34.574  1.00  0.00     0.002 A 
HETATM   37  C   UNL     1      -3.865  -4.745 -33.775  1.00  0.00     0.001 A 
HETATM   38  H   UNL     1      -7.635  -2.357 -35.689  1.00  0.00     0.165 HD
HETATM   39  C   UNL     1      -6.464  -1.004 -34.550  1.00  0.00     0.104 A 
ENDBRANCH   5  30
TORSDOF 7
ENDMDL
MODEL 6
REMARK VINA RESULT:      -8.7      4.844      8.740
REMARK  7 active torsions:
REMARK  status: ('A' for Active; 'I' for Inactive)
REMARK    1  A    between atoms: C_3  and  N_4 
REMARK    2  A    between atoms: C_5  and  S_6 
REMARK    3  A    between atoms: S_6  and  C_7 
REMARK    4  A    between atoms: C_7  and  C_8 
REMARK       I    between atoms: C_8  and  N_9 
REMARK    5  A    between atoms: N_9  and  C_10 
REMARK    6  A    between atoms: C_13  and  C_14 
REMARK       I    between atoms: C_14  and  N_15 
REMARK    7  A    between atoms: C_22  and  C_23 
ROOT
HETATM    1  N   UNL     1      -5.082   2.067 -32.172  1.00  0.00    -0.271 N 
HETATM    2  C   UNL     1      -3.954   2.675 -31.650  1.00  0.00     0.197 C 
HETATM    3  N   UNL     1      -2.967   1.811 -31.588  1.00  0.00    -0.122 NA
HETATM    4  N   UNL     1      -3.388   0.653 -32.177  1.00  0.00    -0.128 NA
HETATM    5  C   UNL     1      -4.627   0.828 -32.606  1.00  0.00     0.171 C 
ENDROOT
BRANCH   2   6
HETATM    6  S   UNL     1      -3.881   4.293 -31.029  1.00  0.00    -0.080 SA
BRANCH   6   7
HETATM    7  C   UNL     1      -2.182   4.773 -31.437  1.00  0.00     0.185 C 
BRANCH   7   8
HETATM    8  C   UNL     1      -1.718   5.976 -30.628  1.00  0.00     0.231 C 
HETATM    9  N   UNL     1      -0.702   5.672 -29.739  1.00  0.00    -0.327 N 
HETATM   10  H   UNL     1      -0.225   4.782 -29.894  1.00  0.00     0.169 HD
HETATM   11  O   UNL     1      -2.254   7.072 -30.767  1.00  0.00    -0.272 OA
BRANCH   9  12
HETATM   12  C   UNL     1      -0.177   6.474 -28.709  1.00  0.00     0.034 A 
HETATM   13  C   UNL     1       0.715   7.485 -29.087  1.00  0.00     0.030 A 
HETATM   14  C   UNL     1       1.337   8.289 -28.124  1.00  0.00     0.019 A 
HETATM   15  C   UNL     1       1.069   8.085 -26.768  1.00  0.00     0.032 A 
HETATM   16  C   UNL     1       0.152   7.100 -26.390  1.00  0.00     0.019 A 
HETATM   17  C   UNL     1      -0.464   6.293 -27.356  1.00  0.00     0.030 A 
BRANCH  15  18
HETATM   18  C   UNL     1       1.724   8.890 -25.704  1.00  0.00     0.249 C 
HETATM   19  N   UNL     1       2.623   8.247 -24.897  1.00  0.00    -0.366 N 
HETATM   20  H   UNL     1       2.682   7.241 -24.848  1.00  0.00     0.159 HD
HETATM   21  H   UNL     1       2.964   8.776 -24.103  1.00  0.00     0.159 HD
HETATM   22  O   UNL     1       1.446  10.067 -25.519  1.00  0.00    -0.268 OA
ENDBRANCH  15  18
ENDBRANCH   9  12
ENDBRANCH   7   8
ENDBRANCH   6   7
ENDBRANCH   2   6
BRANCH   1  23
HETATM   23  C   UNL     1      -6.416   2.549 -32.148  1.00  0.00     0.049 A 
HETATM   24  C   UNL     1      -6.861   3.508 -33.085  1.00  0.00    -0.035 A 
HETATM   25  C   UNL     1      -6.017   4.045 -34.211  1.00  0.00     0.050 C 
HETATM   26  C   UNL     1      -8.180   3.980 -32.974  1.00  0.00     0.009 A 
HETATM   27  C   UNL     1      -9.041   3.485 -31.994  1.00  0.00     0.001 A 
HETATM   28  C   UNL     1      -8.600   2.513 -31.100  1.00  0.00     0.002 A 
HETATM   29  C   UNL     1      -7.289   2.043 -31.173  1.00  0.00     0.031 A 
ENDBRANCH   1  23
BRANCH   5  30
HETATM   30  C   UNL     1      -5.321  -0.167 -33.485  1.00  0.00     0.040 A 
HETATM   31  C   UNL     1      -4.961  -1.538 -33.668  1.00  0.00     0.006 A 
HETATM   32  C   UNL     1      -5.864  -2.082 -34.585  1.00  0.00     0.043 A 
HETATM   33  C   UNL     1      -3.963  -2.385 -33.137  1.00  0.00     0.015 A 
HETATM   34  C   UNL     1      -5.819  -3.420 -34.996  1.00  0.00     0.030 A 
HETATM   35  N   UNL     1      -6.725  -1.075 -34.954  1.00  0.00    -0.364 N 
HETATM   36  C   UNL     1      -4.820  -4.232 -34.453  1.00  0.00     0.002 A 
HETATM   37  C   UNL     1      -3.905  -3.725 -33.537  1.00  0.00     0.001 A 
HETATM   38  H   UNL     1      -7.477  -1.181 -35.622  1.00  0.00     0.165 HD
HETATM   39  C   UNL     1      -6.403   0.086 -34.302  1.00  0.00     0.104 A 
ENDBRANCH   5  30
TORSDOF 7
ENDMDL
MODEL 7
REMARK VINA RESULT:      -8.7      1.926      3.177
REMARK  7 active torsions:
REMARK  status: ('A' for Active; 'I' for Inactive)
REMARK    1  A    between atoms: C_3  and  N_4 
REMARK    2  A    between atoms: C_5  and  S_6 
REMARK    3  A    between atoms: S_6  and  C_7 
REMARK    4  A    between atoms: C_7  and  C_8 
REMARK       I    between atoms: C_8  and  N_9 
REMARK    5  A    between atoms: N_9  and  C_10 
REMARK    6  A    between atoms: C_13  and  C_14 
REMARK       I    between atoms: C_14  and  N_15 
REMARK    7  A    between atoms: C_22  and  C_23 
ROOT
HETATM    1  N   UNL     1      -5.014   1.953 -32.986  1.00  0.00    -0.271 N 
HETATM    2  C   UNL     1      -4.685   3.287 -33.148  1.00  0.00     0.197 C 
HETATM    3  N   UNL     1      -3.535   3.540 -32.566  1.00  0.00    -0.122 NA
HETATM    4  N   UNL     1      -3.028   2.357 -32.112  1.00  0.00    -0.128 NA
HETATM    5  C   UNL     1      -3.869   1.389 -32.436  1.00  0.00     0.171 C 
ENDROOT
BRANCH   2   6
HETATM    6  S   UNL     1      -5.698   4.488 -33.882  1.00  0.00    -0.080 SA
BRANCH   6   7
HETATM    7  C   UNL     1      -6.426   5.298 -32.433  1.00  0.00     0.185 C 
BRANCH   7   8
HETATM    8  C   UNL     1      -7.932   5.084 -32.355  1.00  0.00     0.231 C 
HETATM    9  N   UNL     1      -8.360   3.985 -33.077  1.00  0.00    -0.327 N 
HETATM   10  H   UNL     1      -7.634   3.325 -33.358  1.00  0.00     0.169 HD
HETATM   11  O   UNL     1      -8.646   5.863 -31.729  1.00  0.00    -0.272 OA
BRANCH   9  12
HETATM   12  C   UNL     1      -9.680   3.610 -33.390  1.00  0.00     0.034 A 
HETATM   13  C   UNL     1     -10.470   3.136 -32.335  1.00  0.00     0.030 A 
HETATM   14  C   UNL     1     -11.773   2.679 -32.564  1.00  0.00     0.019 A 
HETATM   15  C   UNL     1     -12.298   2.692 -33.859  1.00  0.00     0.032 A 
HETATM   16  C   UNL     1     -11.524   3.198 -34.909  1.00  0.00     0.019 A 
HETATM   17  C   UNL     1     -10.219   3.649 -34.676  1.00  0.00     0.030 A 
BRANCH  15  18
HETATM   18  C   UNL     1     -13.664   2.191 -34.163  1.00  0.00     0.249 C 
HETATM   19  N   UNL     1     -14.690   2.666 -33.393  1.00  0.00    -0.366 N 
HETATM   20  H   UNL     1     -14.533   3.144 -32.518  1.00  0.00     0.159 HD
HETATM   21  H   UNL     1     -15.590   2.222 -33.531  1.00  0.00     0.159 HD
HETATM   22  O   UNL     1     -13.868   1.353 -35.031  1.00  0.00    -0.268 OA
ENDBRANCH  15  18
ENDBRANCH   9  12
ENDBRANCH   7   8
ENDBRANCH   6   7
ENDBRANCH   2   6
BRANCH   1  23
HETATM   23  C   UNL     1      -6.271   1.337 -33.208  1.00  0.00     0.049 A 
HETATM   24  C   UNL     1      -7.059   0.880 -32.128  1.00  0.00    -0.035 A 
HETATM   25  C   UNL     1      -6.693   1.058 -30.679  1.00  0.00     0.050 C 
HETATM   26  C   UNL     1      -8.273   0.233 -32.421  1.00  0.00     0.009 A 
HETATM   27  C   UNL     1      -8.710   0.085 -33.738  1.00  0.00     0.001 A 
HETATM   28  C   UNL     1      -7.940   0.573 -34.790  1.00  0.00     0.002 A 
HETATM   29  C   UNL     1      -6.721   1.199 -34.530  1.00  0.00     0.031 A 
ENDBRANCH   1  23
BRANCH   5  30
HETATM   30  C   UNL     1      -3.525  -0.061 -32.279  1.00  0.00     0.040 A 
HETATM   31  C   UNL     1      -4.013  -1.142 -33.078  1.00  0.00     0.006 A 
HETATM   32  C   UNL     1      -3.452  -2.316 -32.569  1.00  0.00     0.043 A 
HETATM   33  C   UNL     1      -4.867  -1.246 -34.198  1.00  0.00     0.015 A 
HETATM   34  C   UNL     1      -3.701  -3.580 -33.117  1.00  0.00     0.030 A 
HETATM   35  N   UNL     1      -2.671  -1.960 -31.494  1.00  0.00    -0.364 N 
HETATM   36  C   UNL     1      -4.551  -3.651 -34.224  1.00  0.00     0.002 A 
HETATM   37  C   UNL     1      -5.127  -2.502 -34.759  1.00  0.00     0.001 A 
HETATM   38  H   UNL     1      -2.153  -2.613 -30.922  1.00  0.00     0.165 HD
HETATM   39  C   UNL     1      -2.713  -0.604 -31.306  1.00  0.00     0.104 A 
ENDBRANCH   5  30
TORSDOF 7
ENDMDL
MODEL 8
REMARK VINA RESULT:      -8.7      4.895      8.142
REMARK  7 active torsions:
REMARK  status: ('A' for Active; 'I' for Inactive)
REMARK    1  A    between atoms: C_3  and  N_4 
REMARK    2  A    between atoms: C_5  and  S_6 
REMARK    3  A    between atoms: S_6  and  C_7 
REMARK    4  A    between atoms: C_7  and  C_8 
REMARK       I    between atoms: C_8  and  N_9 
REMARK    5  A    between atoms: N_9  and  C_10 
REMARK    6  A    between atoms: C_13  and  C_14 
REMARK       I    between atoms: C_14  and  N_15 
REMARK    7  A    between atoms: C_22  and  C_23 
ROOT
HETATM    1  N   UNL     1      -4.683   3.558 -31.646  1.00  0.00    -0.271 N 
HETATM    2  C   UNL     1      -5.162   4.216 -30.527  1.00  0.00     0.197 C 
HETATM    3  N   UNL     1      -5.966   3.426 -29.852  1.00  0.00    -0.122 NA
HETATM    4  N   UNL     1      -5.938   2.197 -30.446  1.00  0.00    -0.128 NA
HETATM    5  C   UNL     1      -5.105   2.246 -31.472  1.00  0.00     0.171 C 
ENDROOT
BRANCH   2   6
HETATM    6  S   UNL     1      -4.871   5.880 -30.139  1.00  0.00    -0.080 SA
BRANCH   6   7
HETATM    7  C   UNL     1      -5.247   5.922 -28.367  1.00  0.00     0.185 C 
BRANCH   7   8
HETATM    8  C   UNL     1      -4.267   6.794 -27.594  1.00  0.00     0.231 C 
HETATM    9  N   UNL     1      -3.062   6.967 -28.251  1.00  0.00    -0.327 N 
HETATM   10  H   UNL     1      -3.054   6.718 -29.242  1.00  0.00     0.169 HD
HETATM   11  O   UNL     1      -4.558   7.239 -26.487  1.00  0.00    -0.272 OA
BRANCH   9  12
HETATM   12  C   UNL     1      -1.873   7.532 -27.755  1.00  0.00     0.034 A 
HETATM   13  C   UNL     1      -1.043   6.695 -26.997  1.00  0.00     0.030 A 
HETATM   14  C   UNL     1       0.128   7.188 -26.409  1.00  0.00     0.019 A 
HETATM   15  C   UNL     1       0.479   8.531 -26.575  1.00  0.00     0.032 A 
HETATM   16  C   UNL     1      -0.329   9.359 -27.360  1.00  0.00     0.019 A 
HETATM   17  C   UNL     1      -1.503   8.864 -27.943  1.00  0.00     0.030 A 
BRANCH  15  18
HETATM   18  C   UNL     1       1.694   9.112 -25.948  1.00  0.00     0.249 C 
HETATM   19  N   UNL     1       1.835  10.472 -26.000  1.00  0.00    -0.366 N 
HETATM   20  H   UNL     1       1.288  11.049 -26.622  1.00  0.00     0.159 HD
HETATM   21  H   UNL     1       2.724  10.838 -25.681  1.00  0.00     0.159 HD
HETATM   22  O   UNL     1       2.561   8.411 -25.443  1.00  0.00    -0.268 OA
ENDBRANCH  15  18
ENDBRANCH   9  12
ENDBRANCH   7   8
ENDBRANCH   6   7
ENDBRANCH   2   6
BRANCH   1  23
HETATM   23  C   UNL     1      -4.027   4.124 -32.769  1.00  0.00     0.049 A 
HETATM   24  C   UNL     1      -4.762   4.608 -33.874  1.00  0.00    -0.035 A 
HETATM   25  C   UNL     1      -6.266   4.640 -33.941  1.00  0.00     0.050 C 
HETATM   26  C   UNL     1      -4.048   5.110 -34.975  1.00  0.00     0.009 A 
HETATM   27  C   UNL     1      -2.653   5.170 -34.963  1.00  0.00     0.001 A 
HETATM   28  C   UNL     1      -1.944   4.723 -33.852  1.00  0.00     0.002 A 
HETATM   29  C   UNL     1      -2.625   4.199 -32.754  1.00  0.00     0.031 A 
ENDBRANCH   1  23
BRANCH   5  30
HETATM   30  C   UNL     1      -4.674   1.019 -32.217  1.00  0.00     0.040 A 
HETATM   31  C   UNL     1      -5.513   0.148 -32.980  1.00  0.00     0.006 A 
HETATM   32  C   UNL     1      -4.700  -0.871 -33.482  1.00  0.00     0.043 A 
HETATM   33  C   UNL     1      -6.886   0.126 -33.310  1.00  0.00     0.015 A 
HETATM   34  C   UNL     1      -5.188  -1.905 -34.290  1.00  0.00     0.030 A 
HETATM   35  N   UNL     1      -3.424  -0.635 -33.026  1.00  0.00    -0.364 N 
HETATM   36  C   UNL     1      -6.550  -1.900 -34.599  1.00  0.00     0.002 A 
HETATM   37  C   UNL     1      -7.390  -0.900 -34.118  1.00  0.00     0.001 A 
HETATM   38  H   UNL     1      -2.628  -1.225 -33.224  1.00  0.00     0.165 HD
HETATM   39  C   UNL     1      -3.398   0.499 -32.258  1.00  0.00     0.104 A 
ENDBRANCH   5  30
TORSDOF 7
ENDMDL
MODEL 9
REMARK VINA RESULT:      -8.5      2.835      6.380
REMARK  7 active torsions:
REMARK  status: ('A' for Active; 'I' for Inactive)
REMARK    1  A    between atoms: C_3  and  N_4 
REMARK    2  A    between atoms: C_5  and  S_6 
REMARK    3  A    between atoms: S_6  and  C_7 
REMARK    4  A    between atoms: C_7  and  C_8 
REMARK       I    between atoms: C_8  and  N_9 
REMARK    5  A    between atoms: N_9  and  C_10 
REMARK    6  A    between atoms: C_13  and  C_14 
REMARK       I    between atoms: C_14  and  N_15 
REMARK    7  A    between atoms: C_22  and  C_23 
ROOT
HETATM    1  N   UNL     1      -6.696   5.281 -32.132  1.00  0.00    -0.271 N 
HETATM    2  C   UNL     1      -7.677   5.142 -33.098  1.00  0.00     0.197 C 
HETATM    3  N   UNL     1      -7.125   5.005 -34.281  1.00  0.00    -0.122 NA
HETATM    4  N   UNL     1      -5.773   4.932 -34.105  1.00  0.00    -0.128 NA
HETATM    5  C   UNL     1      -5.514   5.011 -32.810  1.00  0.00     0.171 C 
ENDROOT
BRANCH   2   6
HETATM    6  S   UNL     1      -9.384   5.273 -32.821  1.00  0.00    -0.080 SA
BRANCH   6   7
HETATM    7  C   UNL     1      -9.966   3.622 -33.290  1.00  0.00     0.185 C 
BRANCH   7   8
HETATM    8  C   UNL     1      -9.004   2.529 -32.845  1.00  0.00     0.231 C 
HETATM    9  N   UNL     1      -8.218   2.047 -33.877  1.00  0.00    -0.327 N 
HETATM   10  H   UNL     1      -8.189   2.620 -34.721  1.00  0.00     0.169 HD
HETATM   11  O   UNL     1      -8.997   2.131 -31.683  1.00  0.00    -0.272 OA
BRANCH   9  12
HETATM   12  C   UNL     1      -7.377   0.918 -33.877  1.00  0.00     0.034 A 
HETATM   13  C   UNL     1      -6.140   1.051 -33.233  1.00  0.00     0.030 A 
HETATM   14  C   UNL     1      -5.213   0.002 -33.239  1.00  0.00     0.019 A 
HETATM   15  C   UNL     1      -5.517  -1.193 -33.895  1.00  0.00     0.032 A 
HETATM   16  C   UNL     1      -6.765  -1.341 -34.508  1.00  0.00     0.019 A 
HETATM   17  C   UNL     1      -7.689  -0.288 -34.505  1.00  0.00     0.030 A 
BRANCH  15  18
HETATM   18  C   UNL     1      -4.558  -2.326 -33.957  1.00  0.00     0.249 C 
HETATM   19  N   UNL     1      -3.736  -2.510 -32.879  1.00  0.00    -0.366 N 
HETATM   20  H   UNL     1      -3.601  -1.800 -32.174  1.00  0.00     0.159 HD
HETATM   21  H   UNL     1      -3.007  -3.205 -32.990  1.00  0.00     0.159 HD
HETATM   22  O   UNL     1      -4.465  -3.042 -34.945  1.00  0.00    -0.268 OA
ENDBRANCH  15  18
ENDBRANCH   9  12
ENDBRANCH   7   8
ENDBRANCH   6   7
ENDBRANCH   2   6
BRANCH   1  23
HETATM   23  C   UNL     1      -6.854   5.724 -30.794  1.00  0.00     0.049 A 
HETATM   24  C   UNL     1      -6.716   7.089 -30.458  1.00  0.00    -0.035 A 
HETATM   25  C   UNL     1      -6.468   8.186 -31.459  1.00  0.00     0.050 C 
HETATM   26  C   UNL     1      -6.835   7.454 -29.106  1.00  0.00     0.009 A 
HETATM   27  C   UNL     1      -7.125   6.503 -28.126  1.00  0.00     0.001 A 
HETATM   28  C   UNL     1      -7.295   5.167 -28.478  1.00  0.00     0.002 A 
HETATM   29  C   UNL     1      -7.160   4.773 -29.808  1.00  0.00     0.031 A 
ENDBRANCH   1  23
BRANCH   5  30
HETATM   30  C   UNL     1      -4.151   4.752 -32.245  1.00  0.00     0.040 A 
HETATM   31  C   UNL     1      -3.021   5.627 -32.314  1.00  0.00     0.006 A 
HETATM   32  C   UNL     1      -1.960   4.979 -31.678  1.00  0.00     0.043 A 
HETATM   33  C   UNL     1      -2.791   6.916 -32.843  1.00  0.00     0.015 A 
HETATM   34  C   UNL     1      -0.688   5.550 -31.546  1.00  0.00     0.030 A 
HETATM   35  N   UNL     1      -2.425   3.755 -31.256  1.00  0.00    -0.364 N 
HETATM   36  C   UNL     1      -0.491   6.826 -32.079  1.00  0.00     0.002 A 
HETATM   37  C   UNL     1      -1.526   7.502 -32.719  1.00  0.00     0.001 A 
HETATM   38  H   UNL     1      -1.865   3.065 -30.774  1.00  0.00     0.165 HD
HETATM   39  C   UNL     1      -3.743   3.605 -31.598  1.00  0.00     0.104 A 
ENDBRANCH   5  30
TORSDOF 7
ENDMDL
MODEL 10
REMARK VINA RESULT:      -8.3      4.136      7.665
REMARK  7 active torsions:
REMARK  status: ('A' for Active; 'I' for Inactive)
REMARK    1  A    between atoms: C_3  and  N_4 
REMARK    2  A    between atoms: C_5  and  S_6 
REMARK    3  A    between atoms: S_6  and  C_7 
REMARK    4  A    between atoms: C_7  and  C_8 
REMARK       I    between atoms: C_8  and  N_9 
REMARK    5  A    between atoms: N_9  and  C_10 
REMARK    6  A    between atoms: C_13  and  C_14 
REMARK       I    between atoms: C_14  and  N_15 
REMARK    7  A    between atoms: C_22  and  C_23 
ROOT
HETATM    1  N   UNL     1      -4.321   6.378 -31.925  1.00  0.00    -0.271 N 
HETATM    2  C   UNL     1      -4.439   5.792 -33.173  1.00  0.00     0.197 C 
HETATM    3  N   UNL     1      -3.523   6.274 -33.983  1.00  0.00    -0.122 NA
HETATM    4  N   UNL     1      -2.712   7.096 -33.254  1.00  0.00    -0.128 NA
HETATM    5  C   UNL     1      -3.134   7.096 -32.000  1.00  0.00     0.171 C 
ENDROOT
BRANCH   2   6
HETATM    6  S   UNL     1      -5.692   4.694 -33.652  1.00  0.00    -0.080 SA
BRANCH   6   7
HETATM    7  C   UNL     1      -5.238   3.191 -32.746  1.00  0.00     0.185 C 
BRANCH   7   8
HETATM    8  C   UNL     1      -5.796   1.936 -33.404  1.00  0.00     0.231 C 
HETATM    9  N   UNL     1      -5.167   0.779 -32.982  1.00  0.00    -0.327 N 
HETATM   10  H   UNL     1      -4.603   0.861 -32.135  1.00  0.00     0.169 HD
HETATM   11  O   UNL     1      -6.690   2.010 -34.243  1.00  0.00    -0.272 OA
BRANCH   9  12
HETATM   12  C   UNL     1      -5.282  -0.518 -33.515  1.00  0.00     0.034 A 
HETATM   13  C   UNL     1      -6.547  -0.902 -33.979  1.00  0.00     0.030 A 
HETATM   14  C   UNL     1      -6.771  -2.195 -34.465  1.00  0.00     0.019 A 
HETATM   15  C   UNL     1      -5.724  -3.121 -34.491  1.00  0.00     0.032 A 
HETATM   16  C   UNL     1      -4.451  -2.729 -34.062  1.00  0.00     0.019 A 
HETATM   17  C   UNL     1      -4.233  -1.436 -33.570  1.00  0.00     0.030 A 
BRANCH  15  18
HETATM   18  C   UNL     1      -5.914  -4.515 -34.969  1.00  0.00     0.249 C 
HETATM   19  N   UNL     1      -7.112  -4.818 -35.555  1.00  0.00    -0.366 N 
HETATM   20  H   UNL     1      -7.922  -4.220 -35.471  1.00  0.00     0.159 HD
HETATM   21  H   UNL     1      -7.271  -5.796 -35.761  1.00  0.00     0.159 HD
HETATM   22  O   UNL     1      -5.059  -5.376 -34.809  1.00  0.00    -0.268 OA
ENDBRANCH  15  18
ENDBRANCH   9  12
ENDBRANCH   7   8
ENDBRANCH   6   7
ENDBRANCH   2   6
BRANCH   1  23
HETATM   23  C   UNL     1      -5.262   6.354 -30.864  1.00  0.00     0.049 A 
HETATM   24  C   UNL     1      -6.351   7.254 -30.837  1.00  0.00    -0.035 A 
HETATM   25  C   UNL     1      -6.657   8.246 -31.927  1.00  0.00     0.050 C 
HETATM   26  C   UNL     1      -7.219   7.210 -29.731  1.00  0.00     0.009 A 
HETATM   27  C   UNL     1      -7.036   6.277 -28.710  1.00  0.00     0.001 A 
HETATM   28  C   UNL     1      -5.979   5.373 -28.769  1.00  0.00     0.002 A 
HETATM   29  C   UNL     1      -5.091   5.408 -29.842  1.00  0.00     0.031 A 
ENDBRANCH   1  23
BRANCH   5  30
HETATM   30  C   UNL     1      -2.349   7.723 -30.888  1.00  0.00     0.040 A 
HETATM   31  C   UNL     1      -1.311   7.103 -30.124  1.00  0.00     0.006 A 
HETATM   32  C   UNL     1      -0.874   8.041 -29.186  1.00  0.00     0.043 A 
HETATM   33  C   UNL     1      -0.684   5.838 -30.140  1.00  0.00     0.015 A 
HETATM   34  C   UNL     1       0.150   7.780 -28.268  1.00  0.00     0.030 A 
HETATM   35  N   UNL     1      -1.630   9.176 -29.364  1.00  0.00    -0.364 N 
HETATM   36  C   UNL     1       0.752   6.519 -28.309  1.00  0.00     0.002 A 
HETATM   37  C   UNL     1       0.343   5.561 -29.230  1.00  0.00     0.001 A 
HETATM   38  H   UNL     1      -1.539  10.017 -28.810  1.00  0.00     0.165 HD
HETATM   39  C   UNL     1      -2.527   8.994 -30.384  1.00  0.00     0.104 A 
ENDBRANCH   5  30
TORSDOF 7
ENDMDL
