MODEL 1
REMARK VINA RESULT:      -8.3      0.000      0.000
REMARK  7 active torsions:
REMARK  status: ('A' for Active; 'I' for Inactive)
REMARK    1  A    between atoms: N_3  and  N_4 
REMARK       I    between atoms: N_4  and  C_5 
REMARK    2  A    between atoms: C_5  and  C_6 
REMARK    3  A    between atoms: C_9  and  O_10 
REMARK    4  A    between atoms: O_10  and  C_11 
REMARK    5  A    between atoms: C_11  and  C_12 
REMARK       I    between atoms: C_12  and  N_13 
REMARK    6  A    between atoms: N_13  and  C_14 
REMARK    7  A    between atoms: C_17  and  O_18 
ROOT
HETATM    1  C   UNL     1      -4.874   1.528 -32.024  1.00  0.00     0.033 A 
HETATM    2  C   UNL     1      -5.682   2.614 -31.665  1.00  0.00     0.020 A 
HETATM    3  C   UNL     1      -5.096   3.849 -31.372  1.00  0.00     0.038 A 
HETATM    4  C   UNL     1      -3.708   4.003 -31.418  1.00  0.00     0.069 A 
HETATM    5  C   UNL     1      -2.903   2.930 -31.801  1.00  0.00     0.038 A 
HETATM    6  C   UNL     1      -3.486   1.696 -32.106  1.00  0.00     0.020 A 
ENDROOT
BRANCH   4   7
HETATM    7  O   UNL     1      -3.243   5.260 -31.148  1.00  0.00    -0.342 OA
BRANCH   7   8
HETATM    8  C   UNL     1      -1.921   5.539 -31.605  1.00  0.00     0.278 C 
BRANCH   8   9
HETATM    9  C   UNL     1      -0.860   5.618 -30.501  1.00  0.00     0.246 C 
HETATM   10  N   UNL     1      -1.051   6.686 -29.643  1.00  0.00    -0.325 N 
HETATM   11  H   UNL     1      -1.839   7.286 -29.870  1.00  0.00     0.169 HD
HETATM   12  O   UNL     1       0.037   4.782 -30.443  1.00  0.00    -0.271 OA
BRANCH  10  13
HETATM   13  C   UNL     1      -0.255   7.068 -28.548  1.00  0.00     0.035 A 
HETATM   14  C   UNL     1      -0.394   6.549 -27.262  1.00  0.00     0.032 A 
HETATM   15  C   UNL     1       0.454   6.972 -26.233  1.00  0.00     0.039 A 
HETATM   16  C   UNL     1       1.458   7.910 -26.473  1.00  0.00     0.068 A 
HETATM   17  C   UNL     1       1.592   8.446 -27.752  1.00  0.00     0.039 A 
HETATM   18  C   UNL     1       0.738   8.028 -28.782  1.00  0.00     0.032 A 
BRANCH  16  19
HETATM   19  O   UNL     1       2.225   8.223 -25.386  1.00  0.00    -0.356 OA
HETATM   20  C   UNL     1       2.121   9.552 -24.893  1.00  0.00     0.210 C 
ENDBRANCH  16  19
ENDBRANCH  10  13
ENDBRANCH   8   9
ENDBRANCH   7   8
ENDBRANCH   4   7
BRANCH   1  21
HETATM   21  C   UNL     1      -5.454   0.201 -32.367  1.00  0.00     0.270 C 
HETATM   22  N   UNL     1      -5.023  -0.338 -33.555  1.00  0.00    -0.259 N 
HETATM   23  H   UNL     1      -4.499   0.177 -34.244  1.00  0.00     0.191 HD
HETATM   24  O   UNL     1      -6.273  -0.307 -31.611  1.00  0.00    -0.266 OA
BRANCH  22  25
HETATM   25  N   UNL     1      -5.546  -1.500 -33.987  1.00  0.00    -0.263 N 
HETATM   26  C   UNL     1      -4.894  -2.697 -33.886  1.00  0.00     0.030 A 
HETATM   27  C   UNL     1      -3.640  -2.886 -33.115  1.00  0.00     0.070 C 
HETATM   28  C   UNL     1      -5.644  -3.612 -34.604  1.00  0.00     0.028 A 
HETATM   29  C   UNL     1      -6.747  -2.921 -35.166  1.00  0.00     0.028 A 
HETATM   30  C   UNL     1      -6.652  -1.594 -34.786  1.00  0.00     0.030 A 
HETATM   31  C   UNL     1      -7.545  -0.448 -35.092  1.00  0.00     0.070 C 
ENDBRANCH  22  25
ENDBRANCH   1  21
TORSDOF 7
ENDMDL
MODEL 2
REMARK VINA RESULT:      -8.1      2.826      3.595
REMARK  7 active torsions:
REMARK  status: ('A' for Active; 'I' for Inactive)
REMARK    1  A    between atoms: N_3  and  N_4 
REMARK       I    between atoms: N_4  and  C_5 
REMARK    2  A    between atoms: C_5  and  C_6 
REMARK    3  A    between atoms: C_9  and  O_10 
REMARK    4  A    between atoms: O_10  and  C_11 
REMARK    5  A    between atoms: C_11  and  C_12 
REMARK       I    between atoms: C_12  and  N_13 
REMARK    6  A    between atoms: N_13  and  C_14 
REMARK    7  A    between atoms: C_17  and  O_18 
ROOT
HETATM    1  C   UNL     1      -4.994   3.943 -33.668  1.00  0.00     0.033 A 
HETATM    2  C   UNL     1      -4.643   4.903 -34.625  1.00  0.00     0.020 A 
HETATM    3  C   UNL     1      -3.334   5.389 -34.673  1.00  0.00     0.038 A 
HETATM    4  C   UNL     1      -2.377   4.938 -33.761  1.00  0.00     0.069 A 
HETATM    5  C   UNL     1      -2.717   3.963 -32.823  1.00  0.00     0.038 A 
HETATM    6  C   UNL     1      -4.023   3.464 -32.779  1.00  0.00     0.020 A 
ENDROOT
BRANCH   4   7
HETATM    7  O   UNL     1      -1.120   5.454 -33.918  1.00  0.00    -0.342 OA
BRANCH   7   8
HETATM    8  C   UNL     1      -1.037   6.877 -33.951  1.00  0.00     0.278 C 
BRANCH   8   9
HETATM    9  C   UNL     1      -1.203   7.564 -32.591  1.00  0.00     0.246 C 
HETATM   10  N   UNL     1      -0.649   6.843 -31.549  1.00  0.00    -0.325 N 
HETATM   11  H   UNL     1      -0.239   5.951 -31.812  1.00  0.00     0.169 HD
HETATM   12  O   UNL     1      -1.776   8.647 -32.510  1.00  0.00    -0.271 OA
BRANCH  10  13
HETATM   13  C   UNL     1      -0.647   7.165 -30.179  1.00  0.00     0.035 A 
HETATM   14  C   UNL     1      -1.793   7.217 -29.388  1.00  0.00     0.032 A 
HETATM   15  C   UNL     1      -1.699   7.528 -28.027  1.00  0.00     0.039 A 
HETATM   16  C   UNL     1      -0.462   7.782 -27.435  1.00  0.00     0.068 A 
HETATM   17  C   UNL     1       0.685   7.748 -28.223  1.00  0.00     0.039 A 
HETATM   18  C   UNL     1       0.591   7.443 -29.588  1.00  0.00     0.032 A 
BRANCH  16  19
HETATM   19  O   UNL     1      -0.512   8.056 -26.097  1.00  0.00    -0.356 OA
HETATM   20  C   UNL     1      -1.804   8.223 -25.527  1.00  0.00     0.210 C 
ENDBRANCH  16  19
ENDBRANCH  10  13
ENDBRANCH   8   9
ENDBRANCH   7   8
ENDBRANCH   4   7
BRANCH   1  21
HETATM   21  C   UNL     1      -6.369   3.378 -33.593  1.00  0.00     0.270 C 
HETATM   22  N   UNL     1      -6.459   2.124 -33.040  1.00  0.00    -0.259 N 
HETATM   23  H   UNL     1      -5.661   1.536 -32.855  1.00  0.00     0.191 HD
HETATM   24  O   UNL     1      -7.308   4.027 -34.038  1.00  0.00    -0.266 OA
BRANCH  22  25
HETATM   25  N   UNL     1      -7.649   1.498 -32.996  1.00  0.00    -0.263 N 
HETATM   26  C   UNL     1      -8.470   1.527 -31.904  1.00  0.00     0.030 A 
HETATM   27  C   UNL     1      -8.243   2.407 -30.730  1.00  0.00     0.070 C 
HETATM   28  C   UNL     1      -9.488   0.625 -32.156  1.00  0.00     0.028 A 
HETATM   29  C   UNL     1      -9.235   0.028 -33.417  1.00  0.00     0.028 A 
HETATM   30  C   UNL     1      -8.064   0.574 -33.914  1.00  0.00     0.030 A 
HETATM   31  C   UNL     1      -7.357   0.308 -35.192  1.00  0.00     0.070 C 
ENDBRANCH  22  25
ENDBRANCH   1  21
TORSDOF 7
ENDMDL
MODEL 3
REMARK VINA RESULT:      -8.1      2.246     10.697
REMARK  7 active torsions:
REMARK  status: ('A' for Active; 'I' for Inactive)
REMARK    1  A    between atoms: N_3  and  N_4 
REMARK       I    between atoms: N_4  and  C_5 
REMARK    2  A    between atoms: C_5  and  C_6 
REMARK    3  A    between atoms: C_9  and  O_10 
REMARK    4  A    between atoms: O_10  and  C_11 
REMARK    5  A    between atoms: C_11  and  C_12 
REMARK       I    between atoms: C_12  and  N_13 
REMARK    6  A    between atoms: N_13  and  C_14 
REMARK    7  A    between atoms: C_17  and  O_18 
ROOT
HETATM    1  C   UNL     1      -2.928   5.520 -32.142  1.00  0.00     0.033 A 
HETATM    2  C   UNL     1      -3.017   4.124 -32.080  1.00  0.00     0.020 A 
HETATM    3  C   UNL     1      -4.075   3.467 -32.713  1.00  0.00     0.038 A 
HETATM    4  C   UNL     1      -5.054   4.194 -33.394  1.00  0.00     0.069 A 
HETATM    5  C   UNL     1      -4.954   5.583 -33.480  1.00  0.00     0.038 A 
HETATM    6  C   UNL     1      -3.890   6.244 -32.858  1.00  0.00     0.020 A 
ENDROOT
BRANCH   4   7
HETATM    7  O   UNL     1      -6.025   3.451 -34.007  1.00  0.00    -0.342 OA
BRANCH   7   8
HETATM    8  C   UNL     1      -7.005   2.882 -33.141  1.00  0.00     0.278 C 
BRANCH   8   9
HETATM    9  C   UNL     1      -6.931   1.358 -32.995  1.00  0.00     0.246 C 
HETATM   10  N   UNL     1      -6.032   0.774 -33.869  1.00  0.00    -0.325 N 
HETATM   11  H   UNL     1      -5.568   1.417 -34.504  1.00  0.00     0.169 HD
HETATM   12  O   UNL     1      -7.625   0.782 -32.162  1.00  0.00    -0.271 OA
BRANCH  10  13
HETATM   13  C   UNL     1      -5.740  -0.594 -34.021  1.00  0.00     0.035 A 
HETATM   14  C   UNL     1      -4.552  -1.190 -33.602  1.00  0.00     0.032 A 
HETATM   15  C   UNL     1      -4.350  -2.563 -33.776  1.00  0.00     0.039 A 
HETATM   16  C   UNL     1      -5.332  -3.363 -34.361  1.00  0.00     0.068 A 
HETATM   17  C   UNL     1      -6.515  -2.770 -34.798  1.00  0.00     0.039 A 
HETATM   18  C   UNL     1      -6.715  -1.393 -34.630  1.00  0.00     0.032 A 
BRANCH  16  19
HETATM   19  O   UNL     1      -5.013  -4.688 -34.456  1.00  0.00    -0.356 OA
HETATM   20  C   UNL     1      -3.750  -5.079 -33.935  1.00  0.00     0.210 C 
ENDBRANCH  16  19
ENDBRANCH  10  13
ENDBRANCH   8   9
ENDBRANCH   7   8
ENDBRANCH   4   7
BRANCH   1  21
HETATM   21  C   UNL     1      -1.807   6.262 -31.502  1.00  0.00     0.270 C 
HETATM   22  N   UNL     1      -1.793   6.234 -30.129  1.00  0.00    -0.259 N 
HETATM   23  H   UNL     1      -2.561   5.899 -29.569  1.00  0.00     0.191 HD
HETATM   24  O   UNL     1      -1.004   6.859 -32.210  1.00  0.00    -0.266 OA
BRANCH  22  25
HETATM   25  N   UNL     1      -0.862   6.937 -29.458  1.00  0.00    -0.263 N 
HETATM   26  C   UNL     1       0.299   6.387 -28.991  1.00  0.00     0.030 A 
HETATM   27  C   UNL     1       0.758   5.020 -29.342  1.00  0.00     0.070 C 
HETATM   28  C   UNL     1       0.896   7.350 -28.197  1.00  0.00     0.028 A 
HETATM   29  C   UNL     1       0.041   8.482 -28.173  1.00  0.00     0.028 A 
HETATM   30  C   UNL     1      -1.066   8.191 -28.952  1.00  0.00     0.030 A 
HETATM   31  C   UNL     1      -2.253   9.023 -29.269  1.00  0.00     0.070 C 
ENDBRANCH  22  25
ENDBRANCH   1  21
TORSDOF 7
ENDMDL
MODEL 4
REMARK VINA RESULT:      -8.0      2.732     10.667
REMARK  7 active torsions:
REMARK  status: ('A' for Active; 'I' for Inactive)
REMARK    1  A    between atoms: N_3  and  N_4 
REMARK       I    between atoms: N_4  and  C_5 
REMARK    2  A    between atoms: C_5  and  C_6 
REMARK    3  A    between atoms: C_9  and  O_10 
REMARK    4  A    between atoms: O_10  and  C_11 
REMARK    5  A    between atoms: C_11  and  C_12 
REMARK       I    between atoms: C_12  and  N_13 
REMARK    6  A    between atoms: N_13  and  C_14 
REMARK    7  A    between atoms: C_17  and  O_18 
ROOT
HETATM    1  C   UNL     1      -3.752   6.600 -32.295  1.00  0.00     0.033 A 
HETATM    2  C   UNL     1      -5.114   6.857 -32.098  1.00  0.00     0.020 A 
HETATM    3  C   UNL     1      -6.068   6.123 -32.808  1.00  0.00     0.038 A 
HETATM    4  C   UNL     1      -5.673   5.146 -33.724  1.00  0.00     0.069 A 
HETATM    5  C   UNL     1      -4.317   4.870 -33.903  1.00  0.00     0.038 A 
HETATM    6  C   UNL     1      -3.359   5.594 -33.186  1.00  0.00     0.020 A 
ENDROOT
BRANCH   4   7
HETATM    7  O   UNL     1      -6.688   4.464 -34.337  1.00  0.00    -0.342 OA
BRANCH   7   8
HETATM    8  C   UNL     1      -7.650   3.876 -33.465  1.00  0.00     0.278 C 
BRANCH   8   9
HETATM    9  C   UNL     1      -7.417   2.394 -33.151  1.00  0.00     0.246 C 
HETATM   10  N   UNL     1      -6.762   1.722 -34.167  1.00  0.00    -0.325 N 
HETATM   11  H   UNL     1      -6.551   2.283 -34.988  1.00  0.00     0.169 HD
HETATM   12  O   UNL     1      -7.797   1.920 -32.085  1.00  0.00    -0.271 OA
BRANCH  10  13
HETATM   13  C   UNL     1      -6.418   0.359 -34.222  1.00  0.00     0.035 A 
HETATM   14  C   UNL     1      -7.200  -0.619 -34.833  1.00  0.00     0.032 A 
HETATM   15  C   UNL     1      -6.774  -1.951 -34.858  1.00  0.00     0.039 A 
HETATM   16  C   UNL     1      -5.560  -2.325 -34.283  1.00  0.00     0.068 A 
HETATM   17  C   UNL     1      -4.782  -1.356 -33.655  1.00  0.00     0.039 A 
HETATM   18  C   UNL     1      -5.211  -0.022 -33.624  1.00  0.00     0.032 A 
BRANCH  16  19
HETATM   19  O   UNL     1      -5.257  -3.654 -34.392  1.00  0.00    -0.356 OA
HETATM   20  C   UNL     1      -6.264  -4.494 -34.942  1.00  0.00     0.210 C 
ENDBRANCH  16  19
ENDBRANCH  10  13
ENDBRANCH   8   9
ENDBRANCH   7   8
ENDBRANCH   4   7
BRANCH   1  21
HETATM   21  C   UNL     1      -2.699   7.340 -31.546  1.00  0.00     0.270 C 
HETATM   22  N   UNL     1      -2.146   6.661 -30.487  1.00  0.00    -0.259 N 
HETATM   23  H   UNL     1      -2.523   5.804 -30.114  1.00  0.00     0.191 HD
HETATM   24  O   UNL     1      -2.414   8.482 -31.885  1.00  0.00    -0.266 OA
BRANCH  22  25
HETATM   25  N   UNL     1      -1.239   7.273 -29.704  1.00  0.00    -0.263 N 
HETATM   26  C   UNL     1       0.107   7.222 -29.936  1.00  0.00     0.030 A 
HETATM   27  C   UNL     1       0.705   6.665 -31.175  1.00  0.00     0.070 C 
HETATM   28  C   UNL     1       0.716   7.790 -28.831  1.00  0.00     0.028 A 
HETATM   29  C   UNL     1      -0.304   8.152 -27.914  1.00  0.00     0.028 A 
HETATM   30  C   UNL     1      -1.519   7.798 -28.473  1.00  0.00     0.030 A 
HETATM   31  C   UNL     1      -2.896   7.959 -27.940  1.00  0.00     0.070 C 
ENDBRANCH  22  25
ENDBRANCH   1  21
TORSDOF 7
ENDMDL
MODEL 5
REMARK VINA RESULT:      -7.9      3.970     10.151
REMARK  7 active torsions:
REMARK  status: ('A' for Active; 'I' for Inactive)
REMARK    1  A    between atoms: N_3  and  N_4 
REMARK       I    between atoms: N_4  and  C_5 
REMARK    2  A    between atoms: C_5  and  C_6 
REMARK    3  A    between atoms: C_9  and  O_10 
REMARK    4  A    between atoms: O_10  and  C_11 
REMARK    5  A    between atoms: C_11  and  C_12 
REMARK       I    between atoms: C_12  and  N_13 
REMARK    6  A    between atoms: N_13  and  C_14 
REMARK    7  A    between atoms: C_17  and  O_18 
ROOT
HETATM    1  C   UNL     1      -5.872   4.423 -32.552  1.00  0.00     0.033 A 
HETATM    2  C   UNL     1      -6.615   4.634 -33.720  1.00  0.00     0.020 A 
HETATM    3  C   UNL     1      -7.879   4.055 -33.853  1.00  0.00     0.038 A 
HETATM    4  C   UNL     1      -8.402   3.253 -32.835  1.00  0.00     0.069 A 
HETATM    5  C   UNL     1      -7.675   3.062 -31.659  1.00  0.00     0.038 A 
HETATM    6  C   UNL     1      -6.414   3.650 -31.518  1.00  0.00     0.020 A 
ENDROOT
BRANCH   4   7
HETATM    7  O   UNL     1      -9.661   2.765 -33.053  1.00  0.00    -0.342 OA
BRANCH   7   8
HETATM    8  C   UNL     1      -9.801   1.350 -32.943  1.00  0.00     0.278 C 
BRANCH   8   9
HETATM    9  C   UNL     1      -8.790   0.537 -33.760  1.00  0.00     0.246 C 
HETATM   10  N   UNL     1      -7.986  -0.270 -32.976  1.00  0.00    -0.325 N 
HETATM   11  H   UNL     1      -8.146  -0.196 -31.975  1.00  0.00     0.169 HD
HETATM   12  O   UNL     1      -8.758   0.638 -34.982  1.00  0.00    -0.271 OA
BRANCH  10  13
HETATM   13  C   UNL     1      -6.943  -1.118 -33.393  1.00  0.00     0.035 A 
HETATM   14  C   UNL     1      -7.122  -2.229 -34.215  1.00  0.00     0.032 A 
HETATM   15  C   UNL     1      -6.026  -3.009 -34.599  1.00  0.00     0.039 A 
HETATM   16  C   UNL     1      -4.736  -2.687 -34.176  1.00  0.00     0.068 A 
HETATM   17  C   UNL     1      -4.552  -1.588 -33.340  1.00  0.00     0.039 A 
HETATM   18  C   UNL     1      -5.651  -0.810 -32.950  1.00  0.00     0.032 A 
BRANCH  16  19
HETATM   19  O   UNL     1      -3.756  -3.522 -34.636  1.00  0.00    -0.356 OA
HETATM   20  C   UNL     1      -3.578  -4.745 -33.934  1.00  0.00     0.210 C 
ENDBRANCH  16  19
ENDBRANCH  10  13
ENDBRANCH   8   9
ENDBRANCH   7   8
ENDBRANCH   4   7
BRANCH   1  21
HETATM   21  C   UNL     1      -4.530   5.038 -32.355  1.00  0.00     0.270 C 
HETATM   22  N   UNL     1      -4.243   6.096 -33.183  1.00  0.00    -0.259 N 
HETATM   23  H   UNL     1      -4.799   6.345 -33.985  1.00  0.00     0.191 HD
HETATM   24  O   UNL     1      -3.774   4.565 -31.516  1.00  0.00    -0.266 OA
BRANCH  22  25
HETATM   25  N   UNL     1      -3.027   6.670 -33.131  1.00  0.00    -0.263 N 
HETATM   26  C   UNL     1      -1.947   6.201 -33.826  1.00  0.00     0.030 A 
HETATM   27  C   UNL     1      -2.036   5.141 -34.862  1.00  0.00     0.070 C 
HETATM   28  C   UNL     1      -0.852   6.914 -33.374  1.00  0.00     0.028 A 
HETATM   29  C   UNL     1      -1.301   7.802 -32.363  1.00  0.00     0.028 A 
HETATM   30  C   UNL     1      -2.663   7.615 -32.212  1.00  0.00     0.030 A 
HETATM   31  C   UNL     1      -3.623   8.288 -31.301  1.00  0.00     0.070 C 
ENDBRANCH  22  25
ENDBRANCH   1  21
TORSDOF 7
ENDMDL
MODEL 6
REMARK VINA RESULT:      -7.7      2.965     10.194
REMARK  7 active torsions:
REMARK  status: ('A' for Active; 'I' for Inactive)
REMARK    1  A    between atoms: N_3  and  N_4 
REMARK       I    between atoms: N_4  and  C_5 
REMARK    2  A    between atoms: C_5  and  C_6 
REMARK    3  A    between atoms: C_9  and  O_10 
REMARK    4  A    between atoms: O_10  and  C_11 
REMARK    5  A    between atoms: C_11  and  C_12 
REMARK       I    between atoms: C_12  and  N_13 
REMARK    6  A    between atoms: N_13  and  C_14 
REMARK    7  A    between atoms: C_17  and  O_18 
ROOT
HETATM    1  C   UNL     1      -5.197   5.462 -30.941  1.00  0.00     0.033 A 
HETATM    2  C   UNL     1      -6.290   5.741 -31.771  1.00  0.00     0.020 A 
HETATM    3  C   UNL     1      -7.474   5.013 -31.627  1.00  0.00     0.038 A 
HETATM    4  C   UNL     1      -7.570   3.996 -30.674  1.00  0.00     0.069 A 
HETATM    5  C   UNL     1      -6.491   3.733 -29.829  1.00  0.00     0.038 A 
HETATM    6  C   UNL     1      -5.308   4.468 -29.961  1.00  0.00     0.020 A 
ENDROOT
BRANCH   4   7
HETATM    7  O   UNL     1      -8.784   3.371 -30.595  1.00  0.00    -0.342 OA
BRANCH   7   8
HETATM    8  C   UNL     1      -9.233   2.743 -31.794  1.00  0.00     0.278 C 
BRANCH   8   9
HETATM    9  C   UNL     1      -8.697   1.325 -32.020  1.00  0.00     0.246 C 
HETATM   10  N   UNL     1      -7.615   1.286 -32.881  1.00  0.00    -0.325 N 
HETATM   11  H   UNL     1      -7.341   2.184 -33.269  1.00  0.00     0.169 HD
HETATM   12  O   UNL     1      -9.221   0.368 -31.457  1.00  0.00    -0.271 OA
BRANCH  10  13
HETATM   13  C   UNL     1      -6.904   0.156 -33.326  1.00  0.00     0.035 A 
HETATM   14  C   UNL     1      -5.678  -0.249 -32.804  1.00  0.00     0.032 A 
HETATM   15  C   UNL     1      -5.047  -1.398 -33.293  1.00  0.00     0.039 A 
HETATM   16  C   UNL     1      -5.633  -2.164 -34.301  1.00  0.00     0.068 A 
HETATM   17  C   UNL     1      -6.851  -1.754 -34.838  1.00  0.00     0.039 A 
HETATM   18  C   UNL     1      -7.481  -0.599 -34.354  1.00  0.00     0.032 A 
BRANCH  16  19
HETATM   19  O   UNL     1      -4.920  -3.268 -34.673  1.00  0.00    -0.356 OA
HETATM   20  C   UNL     1      -3.961  -3.753 -33.742  1.00  0.00     0.210 C 
ENDBRANCH  16  19
ENDBRANCH  10  13
ENDBRANCH   8   9
ENDBRANCH   7   8
ENDBRANCH   4   7
BRANCH   1  21
HETATM   21  C   UNL     1      -3.923   6.226 -31.041  1.00  0.00     0.270 C 
HETATM   22  N   UNL     1      -2.814   5.583 -30.546  1.00  0.00    -0.259 N 
HETATM   23  H   UNL     1      -2.856   4.741 -29.994  1.00  0.00     0.191 HD
HETATM   24  O   UNL     1      -3.938   7.355 -31.516  1.00  0.00    -0.266 OA
BRANCH  22  25
HETATM   25  N   UNL     1      -1.630   6.221 -30.524  1.00  0.00    -0.263 N 
HETATM   26  C   UNL     1      -0.680   6.071 -31.494  1.00  0.00     0.030 A 
HETATM   27  C   UNL     1      -0.920   5.356 -32.773  1.00  0.00     0.070 C 
HETATM   28  C   UNL     1       0.455   6.715 -31.034  1.00  0.00     0.028 A 
HETATM   29  C   UNL     1       0.168   7.227 -29.743  1.00  0.00     0.028 A 
HETATM   30  C   UNL     1      -1.137   6.885 -29.434  1.00  0.00     0.030 A 
HETATM   31  C   UNL     1      -1.936   7.178 -28.218  1.00  0.00     0.070 C 
ENDBRANCH  22  25
ENDBRANCH   1  21
TORSDOF 7
ENDMDL
MODEL 7
REMARK VINA RESULT:      -7.7      3.322      4.330
REMARK  7 active torsions:
REMARK  status: ('A' for Active; 'I' for Inactive)
REMARK    1  A    between atoms: N_3  and  N_4 
REMARK       I    between atoms: N_4  and  C_5 
REMARK    2  A    between atoms: C_5  and  C_6 
REMARK    3  A    between atoms: C_9  and  O_10 
REMARK    4  A    between atoms: O_10  and  C_11 
REMARK    5  A    between atoms: C_11  and  C_12 
REMARK       I    between atoms: C_12  and  N_13 
REMARK    6  A    between atoms: N_13  and  C_14 
REMARK    7  A    between atoms: C_17  and  O_18 
ROOT
HETATM    1  C   UNL     1      -6.834   3.646 -33.215  1.00  0.00     0.033 A 
HETATM    2  C   UNL     1      -6.495   4.770 -33.978  1.00  0.00     0.020 A 
HETATM    3  C   UNL     1      -5.151   5.105 -34.161  1.00  0.00     0.038 A 
HETATM    4  C   UNL     1      -4.143   4.337 -33.575  1.00  0.00     0.069 A 
HETATM    5  C   UNL     1      -4.476   3.201 -32.836  1.00  0.00     0.038 A 
HETATM    6  C   UNL     1      -5.820   2.855 -32.660  1.00  0.00     0.020 A 
ENDROOT
BRANCH   4   7
HETATM    7  O   UNL     1      -2.862   4.732 -33.847  1.00  0.00    -0.342 OA
BRANCH   7   8
HETATM    8  C   UNL     1      -2.714   6.083 -34.281  1.00  0.00     0.278 C 
BRANCH   8   9
HETATM    9  C   UNL     1      -2.001   7.006 -33.286  1.00  0.00     0.246 C 
HETATM   10  N   UNL     1      -1.868   6.446 -32.028  1.00  0.00    -0.325 N 
HETATM   11  H   UNL     1      -2.281   5.524 -31.921  1.00  0.00     0.169 HD
HETATM   12  O   UNL     1      -1.611   8.115 -33.641  1.00  0.00    -0.271 OA
BRANCH  10  13
HETATM   13  C   UNL     1      -1.296   7.025 -30.881  1.00  0.00     0.035 A 
HETATM   14  C   UNL     1      -0.026   6.713 -30.401  1.00  0.00     0.032 A 
HETATM   15  C   UNL     1       0.476   7.351 -29.261  1.00  0.00     0.039 A 
HETATM   16  C   UNL     1      -0.278   8.314 -28.590  1.00  0.00     0.068 A 
HETATM   17  C   UNL     1      -1.555   8.618 -29.054  1.00  0.00     0.039 A 
HETATM   18  C   UNL     1      -2.061   7.975 -30.192  1.00  0.00     0.032 A 
BRANCH  16  19
HETATM   19  O   UNL     1       0.337   8.870 -27.502  1.00  0.00    -0.356 OA
HETATM   20  C   UNL     1       1.758   8.861 -27.499  1.00  0.00     0.210 C 
ENDBRANCH  16  19
ENDBRANCH  10  13
ENDBRANCH   8   9
ENDBRANCH   7   8
ENDBRANCH   4   7
BRANCH   1  21
HETATM   21  C   UNL     1      -8.250   3.236 -33.011  1.00  0.00     0.270 C 
HETATM   22  N   UNL     1      -8.796   2.486 -34.025  1.00  0.00    -0.259 N 
HETATM   23  H   UNL     1      -8.359   2.359 -34.924  1.00  0.00     0.191 HD
HETATM   24  O   UNL     1      -8.838   3.599 -31.999  1.00  0.00    -0.266 OA
BRANCH  22  25
HETATM   25  N   UNL     1     -10.092   2.130 -33.966  1.00  0.00    -0.263 N 
HETATM   26  C   UNL     1     -10.522   0.957 -33.413  1.00  0.00     0.030 A 
HETATM   27  C   UNL     1      -9.644   0.044 -32.639  1.00  0.00     0.070 C 
HETATM   28  C   UNL     1     -11.869   0.854 -33.711  1.00  0.00     0.028 A 
HETATM   29  C   UNL     1     -12.227   1.985 -34.490  1.00  0.00     0.028 A 
HETATM   30  C   UNL     1     -11.092   2.758 -34.656  1.00  0.00     0.030 A 
HETATM   31  C   UNL     1     -10.912   4.044 -35.377  1.00  0.00     0.070 C 
ENDBRANCH  22  25
ENDBRANCH   1  21
TORSDOF 7
ENDMDL
MODEL 8
REMARK VINA RESULT:      -7.6      2.992     10.127
REMARK  7 active torsions:
REMARK  status: ('A' for Active; 'I' for Inactive)
REMARK    1  A    between atoms: N_3  and  N_4 
REMARK       I    between atoms: N_4  and  C_5 
REMARK    2  A    between atoms: C_5  and  C_6 
REMARK    3  A    between atoms: C_9  and  O_10 
REMARK    4  A    between atoms: O_10  and  C_11 
REMARK    5  A    between atoms: C_11  and  C_12 
REMARK       I    between atoms: C_12  and  N_13 
REMARK    6  A    between atoms: N_13  and  C_14 
REMARK    7  A    between atoms: C_17  and  O_18 
ROOT
HETATM    1  C   UNL     1      -5.100   5.037 -31.028  1.00  0.00     0.033 A 
HETATM    2  C   UNL     1      -5.116   3.774 -30.424  1.00  0.00     0.020 A 
HETATM    3  C   UNL     1      -6.309   3.049 -30.363  1.00  0.00     0.038 A 
HETATM    4  C   UNL     1      -7.490   3.581 -30.885  1.00  0.00     0.069 A 
HETATM    5  C   UNL     1      -7.471   4.828 -31.511  1.00  0.00     0.038 A 
HETATM    6  C   UNL     1      -6.277   5.553 -31.585  1.00  0.00     0.020 A 
ENDROOT
BRANCH   4   7
HETATM    7  O   UNL     1      -8.591   2.774 -30.804  1.00  0.00    -0.342 OA
BRANCH   7   8
HETATM    8  C   UNL     1      -9.154   2.373 -32.051  1.00  0.00     0.278 C 
BRANCH   8   9
HETATM    9  C   UNL     1      -8.200   1.604 -32.973  1.00  0.00     0.246 C 
HETATM   10  N   UNL     1      -7.828   0.374 -32.462  1.00  0.00    -0.325 N 
HETATM   11  H   UNL     1      -8.206   0.157 -31.543  1.00  0.00     0.169 HD
HETATM   12  O   UNL     1      -7.847   2.091 -34.043  1.00  0.00    -0.271 OA
BRANCH  10  13
HETATM   13  C   UNL     1      -6.950  -0.568 -33.028  1.00  0.00     0.035 A 
HETATM   14  C   UNL     1      -7.311  -1.469 -34.027  1.00  0.00     0.032 A 
HETATM   15  C   UNL     1      -6.368  -2.362 -34.549  1.00  0.00     0.039 A 
HETATM   16  C   UNL     1      -5.051  -2.361 -34.090  1.00  0.00     0.068 A 
HETATM   17  C   UNL     1      -4.688  -1.474 -33.079  1.00  0.00     0.039 A 
HETATM   18  C   UNL     1      -5.634  -0.584 -32.551  1.00  0.00     0.032 A 
BRANCH  16  19
HETATM   19  O   UNL     1      -4.231  -3.271 -34.695  1.00  0.00    -0.356 OA
HETATM   20  C   UNL     1      -3.710  -4.307 -33.872  1.00  0.00     0.210 C 
ENDBRANCH  16  19
ENDBRANCH  10  13
ENDBRANCH   8   9
ENDBRANCH   7   8
ENDBRANCH   4   7
BRANCH   1  21
HETATM   21  C   UNL     1      -3.850   5.837 -31.138  1.00  0.00     0.270 C 
HETATM   22  N   UNL     1      -2.736   5.265 -30.573  1.00  0.00    -0.259 N 
HETATM   23  H   UNL     1      -2.766   4.457 -29.972  1.00  0.00     0.191 HD
HETATM   24  O   UNL     1      -3.888   6.935 -31.681  1.00  0.00    -0.266 OA
BRANCH  22  25
HETATM   25  N   UNL     1      -1.574   5.944 -30.556  1.00  0.00    -0.263 N 
HETATM   26  C   UNL     1      -1.242   6.836 -29.575  1.00  0.00     0.030 A 
HETATM   27  C   UNL     1      -2.022   7.006 -28.323  1.00  0.00     0.070 C 
HETATM   28  C   UNL     1      -0.087   7.469 -29.996  1.00  0.00     0.028 A 
HETATM   29  C   UNL     1       0.246   6.954 -31.275  1.00  0.00     0.028 A 
HETATM   30  C   UNL     1      -0.713   6.017 -31.616  1.00  0.00     0.030 A 
HETATM   31  C   UNL     1      -0.837   5.180 -32.836  1.00  0.00     0.070 C 
ENDBRANCH  22  25
ENDBRANCH   1  21
TORSDOF 7
ENDMDL
MODEL 9
REMARK VINA RESULT:      -7.6      2.373     10.999
REMARK  7 active torsions:
REMARK  status: ('A' for Active; 'I' for Inactive)
REMARK    1  A    between atoms: N_3  and  N_4 
REMARK       I    between atoms: N_4  and  C_5 
REMARK    2  A    between atoms: C_5  and  C_6 
REMARK    3  A    between atoms: C_9  and  O_10 
REMARK    4  A    between atoms: O_10  and  C_11 
REMARK    5  A    between atoms: C_11  and  C_12 
REMARK       I    between atoms: C_12  and  N_13 
REMARK    6  A    between atoms: N_13  and  C_14 
REMARK    7  A    between atoms: C_17  and  O_18 
ROOT
HETATM    1  C   UNL     1      -4.111   6.259 -29.606  1.00  0.00     0.033 A 
HETATM    2  C   UNL     1      -4.154   5.530 -30.801  1.00  0.00     0.020 A 
HETATM    3  C   UNL     1      -5.243   4.696 -31.065  1.00  0.00     0.038 A 
HETATM    4  C   UNL     1      -6.281   4.570 -30.138  1.00  0.00     0.069 A 
HETATM    5  C   UNL     1      -6.252   5.314 -28.959  1.00  0.00     0.038 A 
HETATM    6  C   UNL     1      -5.170   6.160 -28.696  1.00  0.00     0.020 A 
ENDROOT
BRANCH   4   7
HETATM    7  O   UNL     1      -7.313   3.754 -30.513  1.00  0.00    -0.342 OA
BRANCH   7   8
HETATM    8  C   UNL     1      -7.252   3.255 -31.847  1.00  0.00     0.278 C 
BRANCH   8   9
HETATM    9  C   UNL     1      -7.059   1.739 -31.961  1.00  0.00     0.246 C 
HETATM   10  N   UNL     1      -6.512   1.353 -33.171  1.00  0.00    -0.325 N 
HETATM   11  H   UNL     1      -6.341   2.109 -33.828  1.00  0.00     0.169 HD
HETATM   12  O   UNL     1      -7.376   1.003 -31.031  1.00  0.00    -0.271 OA
BRANCH  10  13
HETATM   13  C   UNL     1      -6.231   0.047 -33.616  1.00  0.00     0.035 A 
HETATM   14  C   UNL     1      -7.152  -0.769 -34.268  1.00  0.00     0.032 A 
HETATM   15  C   UNL     1      -6.784  -2.050 -34.694  1.00  0.00     0.039 A 
HETATM   16  C   UNL     1      -5.491  -2.530 -34.485  1.00  0.00     0.068 A 
HETATM   17  C   UNL     1      -4.570  -1.725 -33.819  1.00  0.00     0.039 A 
HETATM   18  C   UNL     1      -4.941  -0.445 -33.385  1.00  0.00     0.032 A 
BRANCH  16  19
HETATM   19  O   UNL     1      -5.261  -3.789 -34.965  1.00  0.00    -0.356 OA
HETATM   20  C   UNL     1      -6.403  -4.549 -35.338  1.00  0.00     0.210 C 
ENDBRANCH  16  19
ENDBRANCH  10  13
ENDBRANCH   8   9
ENDBRANCH   7   8
ENDBRANCH   4   7
BRANCH   1  21
HETATM   21  C   UNL     1      -2.983   7.178 -29.290  1.00  0.00     0.270 C 
HETATM   22  N   UNL     1      -1.901   6.591 -28.681  1.00  0.00    -0.259 N 
HETATM   23  H   UNL     1      -1.910   5.656 -28.305  1.00  0.00     0.191 HD
HETATM   24  O   UNL     1      -3.090   8.370 -29.556  1.00  0.00    -0.266 OA
BRANCH  22  25
HETATM   25  N   UNL     1      -0.862   7.353 -28.290  1.00  0.00    -0.263 N 
HETATM   26  C   UNL     1       0.277   7.503 -29.030  1.00  0.00     0.030 A 
HETATM   27  C   UNL     1       0.419   7.017 -30.425  1.00  0.00     0.070 C 
HETATM   28  C   UNL     1       1.177   8.182 -28.228  1.00  0.00     0.028 A 
HETATM   29  C   UNL     1       0.556   8.404 -26.972  1.00  0.00     0.028 A 
HETATM   30  C   UNL     1      -0.713   7.855 -27.027  1.00  0.00     0.030 A 
HETATM   31  C   UNL     1      -1.779   7.815 -25.994  1.00  0.00     0.070 C 
ENDBRANCH  22  25
ENDBRANCH   1  21
TORSDOF 7
ENDMDL
MODEL 10
REMARK VINA RESULT:      -7.3      2.887     11.631
REMARK  7 active torsions:
REMARK  status: ('A' for Active; 'I' for Inactive)
REMARK    1  A    between atoms: N_3  and  N_4 
REMARK       I    between atoms: N_4  and  C_5 
REMARK    2  A    between atoms: C_5  and  C_6 
REMARK    3  A    between atoms: C_9  and  O_10 
REMARK    4  A    between atoms: O_10  and  C_11 
REMARK    5  A    between atoms: C_11  and  C_12 
REMARK       I    between atoms: C_12  and  N_13 
REMARK    6  A    between atoms: N_13  and  C_14 
REMARK    7  A    between atoms: C_17  and  O_18 
ROOT
HETATM    1  C   UNL     1      -0.201   8.838 -28.118  1.00  0.00     0.033 A 
HETATM    2  C   UNL     1      -1.414   8.989 -28.802  1.00  0.00     0.020 A 
HETATM    3  C   UNL     1      -1.668   8.224 -29.943  1.00  0.00     0.038 A 
HETATM    4  C   UNL     1      -0.713   7.321 -30.418  1.00  0.00     0.069 A 
HETATM    5  C   UNL     1       0.485   7.150 -29.724  1.00  0.00     0.038 A 
HETATM    6  C   UNL     1       0.738   7.905 -28.575  1.00  0.00     0.020 A 
ENDROOT
BRANCH   4   7
HETATM    7  O   UNL     1      -1.077   6.599 -31.521  1.00  0.00    -0.342 OA
BRANCH   7   8
HETATM    8  C   UNL     1      -0.917   5.186 -31.412  1.00  0.00     0.278 C 
BRANCH   8   9
HETATM    9  C   UNL     1      -2.032   4.358 -32.061  1.00  0.00     0.246 C 
HETATM   10  N   UNL     1      -2.755   3.614 -31.146  1.00  0.00    -0.325 N 
HETATM   11  H   UNL     1      -2.439   3.688 -30.183  1.00  0.00     0.169 HD
HETATM   12  O   UNL     1      -2.210   4.403 -33.274  1.00  0.00    -0.271 OA
BRANCH  10  13
HETATM   13  C   UNL     1      -3.819   2.729 -31.400  1.00  0.00     0.035 A 
HETATM   14  C   UNL     1      -5.106   3.135 -31.746  1.00  0.00     0.032 A 
HETATM   15  C   UNL     1      -6.103   2.187 -32.000  1.00  0.00     0.039 A 
HETATM   16  C   UNL     1      -5.828   0.821 -31.923  1.00  0.00     0.068 A 
HETATM   17  C   UNL     1      -4.548   0.409 -31.561  1.00  0.00     0.039 A 
HETATM   18  C   UNL     1      -3.551   1.358 -31.299  1.00  0.00     0.032 A 
BRANCH  16  19
HETATM   19  O   UNL     1      -6.885   0.005 -32.211  1.00  0.00    -0.356 OA
HETATM   20  C   UNL     1      -8.174   0.605 -32.209  1.00  0.00     0.210 C 
ENDBRANCH  16  19
ENDBRANCH  10  13
ENDBRANCH   8   9
ENDBRANCH   7   8
ENDBRANCH   4   7
BRANCH   1  21
HETATM   21  C   UNL     1       0.105   9.613 -26.885  1.00  0.00     0.270 C 
HETATM   22  N   UNL     1       0.280   8.862 -25.748  1.00  0.00    -0.259 N 
HETATM   23  H   UNL     1       0.050   7.883 -25.684  1.00  0.00     0.191 HD
HETATM   24  O   UNL     1       0.155  10.836 -26.945  1.00  0.00    -0.266 OA
BRANCH  22  25
HETATM   25  N   UNL     1       0.487   9.477 -24.570  1.00  0.00    -0.263 N 
HETATM   26  C   UNL     1       1.718   9.579 -23.984  1.00  0.00     0.030 A 
HETATM   27  C   UNL     1       2.984   9.210 -24.667  1.00  0.00     0.070 C 
HETATM   28  C   UNL     1       1.507  10.089 -22.716  1.00  0.00     0.028 A 
HETATM   29  C   UNL     1       0.109  10.257 -22.544  1.00  0.00     0.028 A 
HETATM   30  C   UNL     1      -0.512   9.845 -23.711  1.00  0.00     0.030 A 
HETATM   31  C   UNL     1      -1.953   9.819 -24.065  1.00  0.00     0.070 C 
ENDBRANCH  22  25
ENDBRANCH   1  21
TORSDOF 7
ENDMDL
