MODEL 1
REMARK VINA RESULT:      -8.2      0.000      0.000
REMARK  8 active torsions:
REMARK  status: ('A' for Active; 'I' for Inactive)
REMARK       I    between atoms: C_2  and  N_3 
REMARK    1  A    between atoms: N_3  and  C_4 
REMARK    2  A    between atoms: C_6  and  N_7 
REMARK    3  A    between atoms: N_7  and  C_8 
REMARK    4  A    between atoms: C_8  and  C_9 
REMARK       I    between atoms: C_9  and  N_10 
REMARK    5  A    between atoms: N_10  and  C_11 
REMARK    6  A    between atoms: C_12  and  C_13 
REMARK       I    between atoms: C_13  and  N_14 
REMARK    7  A    between atoms: N_14  and  C_15 
REMARK    8  A    between atoms: C_24  and  O_25 
ROOT
HETATM    1  C   UNL     1      -4.448  -0.557 -32.119  1.00  0.00     0.235 C 
HETATM    2  N   UNL     1      -4.151  -1.247 -33.286  1.00  0.00    -0.325 N 
HETATM    3  O   UNL     1      -5.449  -0.698 -31.426  1.00  0.00    -0.272 OA
HETATM    4  H   UNL     1      -3.192  -1.175 -33.603  1.00  0.00     0.169 HD
ENDROOT
BRANCH   1   5
HETATM    5  C   UNL     1      -3.302   0.376 -31.686  1.00  0.00     0.195 C 
BRANCH   5   6
HETATM    6  N   UNL     1      -3.758   1.706 -31.275  1.00  0.00    -0.282 NA
HETATM    7  H   UNL     1      -4.487   1.624 -30.558  1.00  0.00     0.128 HD
BRANCH   6   8
HETATM    8  C   UNL     1      -4.176   2.649 -32.228  1.00  0.00     0.044 A 
HETATM    9  C   UNL     1      -5.477   2.664 -32.760  1.00  0.00     0.055 A 
HETATM   10  C   UNL     1      -5.926   3.688 -33.602  1.00  0.00     0.036 A 
HETATM   11  C   UNL     1      -5.040   4.704 -33.967  1.00  0.00     0.032 A 
HETATM   12  C   UNL     1      -3.744   4.717 -33.456  1.00  0.00     0.041 A 
HETATM   13  C   UNL     1      -3.313   3.700 -32.601  1.00  0.00     0.089 A 
BRANCH  10  14
HETATM   14  N   UNL     1      -7.252   3.777 -34.082  1.00  0.00    -0.327 N 
HETATM   15  C   UNL     1      -8.306   4.456 -33.495  1.00  0.00     0.218 C 
HETATM   16  C   UNL     1      -9.567   4.407 -34.322  1.00  0.00     0.117 C 
HETATM   17  O   UNL     1      -8.273   5.102 -32.451  1.00  0.00    -0.274 OA
HETATM   18  H   UNL     1      -7.403   3.416 -35.017  1.00  0.00     0.169 HD
ENDBRANCH  10  14
BRANCH  13  19
HETATM   19  O   UNL     1      -2.029   3.844 -32.133  1.00  0.00    -0.354 OA
HETATM   20  C   UNL     1      -1.404   5.049 -32.575  1.00  0.00     0.210 C 
ENDBRANCH  13  19
ENDBRANCH   6   8
ENDBRANCH   5   6
ENDBRANCH   1   5
BRANCH   2  21
HETATM   21  C   UNL     1      -4.904  -2.273 -33.901  1.00  0.00     0.050 A 
HETATM   22  C   UNL     1      -6.234  -2.220 -34.344  1.00  0.00     0.058 A 
HETATM   23  C   UNL     1      -6.854  -3.395 -34.826  1.00  0.00     0.019 A 
HETATM   24  C   UNL     1      -6.159  -4.599 -34.910  1.00  0.00     0.001 A 
HETATM   25  C   UNL     1      -4.826  -4.643 -34.531  1.00  0.00     0.002 A 
HETATM   26  C   UNL     1      -4.206  -3.491 -34.040  1.00  0.00     0.030 A 
BRANCH  22  27
HETATM   27  C   UNL     1      -7.072  -1.006 -34.499  1.00  0.00     0.254 C 
HETATM   28  N   UNL     1      -7.975  -0.744 -33.482  1.00  0.00    -0.352 N 
HETATM   29  H   UNL     1      -8.078  -1.409 -32.718  1.00  0.00     0.163 HD
HETATM   30  O   UNL     1      -6.824  -0.225 -35.416  1.00  0.00    -0.268 OA
BRANCH  28  31
HETATM   31  C   UNL     1      -8.696   0.491 -33.449  1.00  0.00     0.084 A 
HETATM   32  C   UNL     1     -10.165   0.505 -33.131  1.00  0.00     0.027 A 
HETATM   33  C   UNL     1      -9.183   1.097 -32.164  1.00  0.00     0.027 A 
ENDBRANCH  28  31
ENDBRANCH  22  27
ENDBRANCH   2  21
TORSDOF 8
ENDMDL
MODEL 2
REMARK VINA RESULT:      -8.2      1.516      3.567
REMARK  8 active torsions:
REMARK  status: ('A' for Active; 'I' for Inactive)
REMARK       I    between atoms: C_2  and  N_3 
REMARK    1  A    between atoms: N_3  and  C_4 
REMARK    2  A    between atoms: C_6  and  N_7 
REMARK    3  A    between atoms: N_7  and  C_8 
REMARK    4  A    between atoms: C_8  and  C_9 
REMARK       I    between atoms: C_9  and  N_10 
REMARK    5  A    between atoms: N_10  and  C_11 
REMARK    6  A    between atoms: C_12  and  C_13 
REMARK       I    between atoms: C_13  and  N_14 
REMARK    7  A    between atoms: N_14  and  C_15 
REMARK    8  A    between atoms: C_24  and  O_25 
ROOT
HETATM    1  C   UNL     1      -4.682  -0.513 -31.968  1.00  0.00     0.235 C 
HETATM    2  N   UNL     1      -4.275  -1.169 -33.121  1.00  0.00    -0.325 N 
HETATM    3  O   UNL     1      -5.720  -0.711 -31.347  1.00  0.00    -0.272 OA
HETATM    4  H   UNL     1      -3.301  -1.049 -33.370  1.00  0.00     0.169 HD
ENDROOT
BRANCH   1   5
HETATM    5  C   UNL     1      -3.612   0.461 -31.443  1.00  0.00     0.195 C 
BRANCH   5   6
HETATM    6  N   UNL     1      -4.154   1.761 -31.041  1.00  0.00    -0.282 NA
HETATM    7  H   UNL     1      -5.174   1.705 -30.947  1.00  0.00     0.128 HD
BRANCH   6   8
HETATM    8  C   UNL     1      -3.839   2.925 -31.762  1.00  0.00     0.044 A 
HETATM    9  C   UNL     1      -2.684   3.685 -31.508  1.00  0.00     0.055 A 
HETATM   10  C   UNL     1      -2.308   4.762 -32.320  1.00  0.00     0.036 A 
HETATM   11  C   UNL     1      -3.130   5.127 -33.388  1.00  0.00     0.032 A 
HETATM   12  C   UNL     1      -4.281   4.392 -33.665  1.00  0.00     0.041 A 
HETATM   13  C   UNL     1      -4.637   3.308 -32.860  1.00  0.00     0.089 A 
BRANCH  10  14
HETATM   14  N   UNL     1      -1.110   5.489 -32.142  1.00  0.00    -0.327 N 
HETATM   15  C   UNL     1      -0.750   6.245 -31.040  1.00  0.00     0.218 C 
HETATM   16  C   UNL     1       0.639   6.822 -31.154  1.00  0.00     0.117 C 
HETATM   17  O   UNL     1      -1.411   6.416 -30.019  1.00  0.00    -0.274 OA
HETATM   18  H   UNL     1      -0.393   5.327 -32.840  1.00  0.00     0.169 HD
ENDBRANCH  10  14
BRANCH  13  19
HETATM   19  O   UNL     1      -5.771   2.641 -33.257  1.00  0.00    -0.354 OA
HETATM   20  C   UNL     1      -6.785   3.511 -33.759  1.00  0.00     0.210 C 
ENDBRANCH  13  19
ENDBRANCH   6   8
ENDBRANCH   5   6
ENDBRANCH   1   5
BRANCH   2  21
HETATM   21  C   UNL     1      -4.938  -2.217 -33.802  1.00  0.00     0.050 A 
HETATM   22  C   UNL     1      -6.237  -2.216 -34.330  1.00  0.00     0.058 A 
HETATM   23  C   UNL     1      -6.768  -3.408 -34.871  1.00  0.00     0.019 A 
HETATM   24  C   UNL     1      -6.013  -4.577 -34.931  1.00  0.00     0.001 A 
HETATM   25  C   UNL     1      -4.707  -4.567 -34.466  1.00  0.00     0.002 A 
HETATM   26  C   UNL     1      -4.175  -3.398 -33.916  1.00  0.00     0.030 A 
BRANCH  22  27
HETATM   27  C   UNL     1      -7.120  -1.039 -34.519  1.00  0.00     0.254 C 
HETATM   28  N   UNL     1      -8.056  -0.803 -33.525  1.00  0.00    -0.352 N 
HETATM   29  H   UNL     1      -8.151  -1.464 -32.756  1.00  0.00     0.163 HD
HETATM   30  O   UNL     1      -6.883  -0.258 -35.439  1.00  0.00    -0.268 OA
BRANCH  28  31
HETATM   31  C   UNL     1      -8.828   0.401 -33.524  1.00  0.00     0.084 A 
HETATM   32  C   UNL     1     -10.278   0.374 -33.126  1.00  0.00     0.027 A 
HETATM   33  C   UNL     1      -9.272   1.063 -32.251  1.00  0.00     0.027 A 
ENDBRANCH  28  31
ENDBRANCH  22  27
ENDBRANCH   2  21
TORSDOF 8
ENDMDL
MODEL 3
REMARK VINA RESULT:      -8.1      2.534      5.663
REMARK  8 active torsions:
REMARK  status: ('A' for Active; 'I' for Inactive)
REMARK       I    between atoms: C_2  and  N_3 
REMARK    1  A    between atoms: N_3  and  C_4 
REMARK    2  A    between atoms: C_6  and  N_7 
REMARK    3  A    between atoms: N_7  and  C_8 
REMARK    4  A    between atoms: C_8  and  C_9 
REMARK       I    between atoms: C_9  and  N_10 
REMARK    5  A    between atoms: N_10  and  C_11 
REMARK    6  A    between atoms: C_12  and  C_13 
REMARK       I    between atoms: C_13  and  N_14 
REMARK    7  A    between atoms: N_14  and  C_15 
REMARK    8  A    between atoms: C_24  and  O_25 
ROOT
HETATM    1  C   UNL     1      -4.917   2.430 -32.354  1.00  0.00     0.235 C 
HETATM    2  N   UNL     1      -5.525   1.295 -31.834  1.00  0.00    -0.325 N 
HETATM    3  O   UNL     1      -5.369   3.161 -33.227  1.00  0.00    -0.272 OA
HETATM    4  H   UNL     1      -5.128   0.945 -30.971  1.00  0.00     0.169 HD
ENDROOT
BRANCH   1   5
HETATM    5  C   UNL     1      -3.604   2.772 -31.626  1.00  0.00     0.195 C 
BRANCH   5   6
HETATM    6  N   UNL     1      -2.552   3.258 -32.521  1.00  0.00    -0.282 NA
HETATM    7  H   UNL     1      -1.786   2.577 -32.570  1.00  0.00     0.128 HD
BRANCH   6   8
HETATM    8  C   UNL     1      -1.997   4.538 -32.351  1.00  0.00     0.044 A 
HETATM    9  C   UNL     1      -1.581   5.024 -31.100  1.00  0.00     0.055 A 
HETATM   10  C   UNL     1      -0.905   6.242 -30.961  1.00  0.00     0.036 A 
HETATM   11  C   UNL     1      -0.677   7.024 -32.094  1.00  0.00     0.032 A 
HETATM   12  C   UNL     1      -1.077   6.569 -33.348  1.00  0.00     0.041 A 
HETATM   13  C   UNL     1      -1.734   5.344 -33.478  1.00  0.00     0.089 A 
BRANCH  10  14
HETATM   14  N   UNL     1      -0.398   6.715 -29.730  1.00  0.00    -0.327 N 
HETATM   15  C   UNL     1       0.497   6.069 -28.894  1.00  0.00     0.218 C 
HETATM   16  C   UNL     1       0.886   6.901 -27.697  1.00  0.00     0.117 C 
HETATM   17  O   UNL     1       1.010   4.968 -29.078  1.00  0.00    -0.274 OA
HETATM   18  H   UNL     1      -0.615   7.680 -29.510  1.00  0.00     0.169 HD
ENDBRANCH  10  14
BRANCH  13  19
HETATM   19  O   UNL     1      -2.044   4.988 -34.768  1.00  0.00    -0.354 OA
HETATM   20  C   UNL     1      -3.376   5.339 -35.142  1.00  0.00     0.210 C 
ENDBRANCH  13  19
ENDBRANCH   6   8
ENDBRANCH   5   6
ENDBRANCH   1   5
BRANCH   2  21
HETATM   21  C   UNL     1      -6.794   0.764 -32.164  1.00  0.00     0.050 A 
HETATM   22  C   UNL     1      -7.091  -0.251 -33.085  1.00  0.00     0.058 A 
HETATM   23  C   UNL     1      -8.440  -0.561 -33.366  1.00  0.00     0.019 A 
HETATM   24  C   UNL     1      -9.485   0.092 -32.716  1.00  0.00     0.001 A 
HETATM   25  C   UNL     1      -9.196   1.053 -31.761  1.00  0.00     0.002 A 
HETATM   26  C   UNL     1      -7.866   1.379 -31.483  1.00  0.00     0.030 A 
BRANCH  22  27
HETATM   27  C   UNL     1      -6.127  -1.171 -33.736  1.00  0.00     0.254 C 
HETATM   28  N   UNL     1      -6.648  -2.344 -34.256  1.00  0.00    -0.352 N 
HETATM   29  H   UNL     1      -7.633  -2.562 -34.118  1.00  0.00     0.163 HD
HETATM   30  O   UNL     1      -4.973  -0.790 -33.922  1.00  0.00    -0.268 OA
BRANCH  28  31
HETATM   31  C   UNL     1      -5.837  -3.208 -35.059  1.00  0.00     0.084 A 
HETATM   32  C   UNL     1      -5.232  -4.449 -34.466  1.00  0.00     0.027 A 
HETATM   33  C   UNL     1      -6.311  -4.562 -35.502  1.00  0.00     0.027 A 
ENDBRANCH  28  31
ENDBRANCH  22  27
ENDBRANCH   2  21
TORSDOF 8
ENDMDL
MODEL 4
REMARK VINA RESULT:      -8.0      2.819      8.421
REMARK  8 active torsions:
REMARK  status: ('A' for Active; 'I' for Inactive)
REMARK       I    between atoms: C_2  and  N_3 
REMARK    1  A    between atoms: N_3  and  C_4 
REMARK    2  A    between atoms: C_6  and  N_7 
REMARK    3  A    between atoms: N_7  and  C_8 
REMARK    4  A    between atoms: C_8  and  C_9 
REMARK       I    between atoms: C_9  and  N_10 
REMARK    5  A    between atoms: N_10  and  C_11 
REMARK    6  A    between atoms: C_12  and  C_13 
REMARK       I    between atoms: C_13  and  N_14 
REMARK    7  A    between atoms: N_14  and  C_15 
REMARK    8  A    between atoms: C_24  and  O_25 
ROOT
HETATM    1  C   UNL     1      -3.866   3.410 -31.616  1.00  0.00     0.235 C 
HETATM    2  N   UNL     1      -2.586   3.742 -32.039  1.00  0.00    -0.325 N 
HETATM    3  O   UNL     1      -4.793   4.188 -31.422  1.00  0.00    -0.272 OA
HETATM    4  H   UNL     1      -2.021   2.969 -32.367  1.00  0.00     0.169 HD
ENDROOT
BRANCH   1   5
HETATM    5  C   UNL     1      -4.067   1.887 -31.508  1.00  0.00     0.195 C 
BRANCH   5   6
HETATM    6  N   UNL     1      -5.470   1.478 -31.586  1.00  0.00    -0.282 NA
HETATM    7  H   UNL     1      -5.702   0.856 -30.804  1.00  0.00     0.128 HD
BRANCH   6   8
HETATM    8  C   UNL     1      -5.992   0.920 -32.766  1.00  0.00     0.044 A 
HETATM    9  C   UNL     1      -6.003  -0.464 -33.010  1.00  0.00     0.055 A 
HETATM   10  C   UNL     1      -6.647  -1.019 -34.122  1.00  0.00     0.036 A 
HETATM   11  C   UNL     1      -7.259  -0.171 -35.046  1.00  0.00     0.032 A 
HETATM   12  C   UNL     1      -7.267   1.206 -34.831  1.00  0.00     0.041 A 
HETATM   13  C   UNL     1      -6.637   1.748 -33.708  1.00  0.00     0.089 A 
BRANCH  10  14
HETATM   14  N   UNL     1      -6.749  -2.410 -34.349  1.00  0.00    -0.327 N 
HETATM   15  C   UNL     1      -5.752  -3.255 -34.805  1.00  0.00     0.218 C 
HETATM   16  C   UNL     1      -6.185  -4.699 -34.855  1.00  0.00     0.117 C 
HETATM   17  O   UNL     1      -4.599  -2.942 -35.094  1.00  0.00    -0.274 OA
HETATM   18  H   UNL     1      -7.601  -2.846 -34.015  1.00  0.00     0.169 HD
ENDBRANCH  10  14
BRANCH  13  19
HETATM   19  O   UNL     1      -6.745   3.112 -33.587  1.00  0.00    -0.354 OA
HETATM   20  C   UNL     1      -8.097   3.569 -33.579  1.00  0.00     0.210 C 
ENDBRANCH  13  19
ENDBRANCH   6   8
ENDBRANCH   5   6
ENDBRANCH   1   5
BRANCH   2  21
HETATM   21  C   UNL     1      -2.089   5.024 -32.371  1.00  0.00     0.050 A 
HETATM   22  C   UNL     1      -1.215   5.829 -31.626  1.00  0.00     0.058 A 
HETATM   23  C   UNL     1      -0.928   7.139 -32.070  1.00  0.00     0.019 A 
HETATM   24  C   UNL     1      -1.462   7.637 -33.256  1.00  0.00     0.001 A 
HETATM   25  C   UNL     1      -2.279   6.823 -34.027  1.00  0.00     0.002 A 
HETATM   26  C   UNL     1      -2.581   5.531 -33.592  1.00  0.00     0.030 A 
BRANCH  22  27
HETATM   27  C   UNL     1      -0.415   5.419 -30.446  1.00  0.00     0.254 C 
HETATM   28  N   UNL     1      -0.211   6.383 -29.473  1.00  0.00    -0.352 N 
HETATM   29  H   UNL     1      -0.548   7.332 -29.626  1.00  0.00     0.163 HD
HETATM   30  O   UNL     1      -0.115   4.234 -30.313  1.00  0.00    -0.268 OA
BRANCH  28  31
HETATM   31  C   UNL     1       0.389   6.038 -28.221  1.00  0.00     0.084 A 
HETATM   32  C   UNL     1       1.003   7.101 -27.353  1.00  0.00     0.027 A 
HETATM   33  C   UNL     1      -0.244   6.396 -26.907  1.00  0.00     0.027 A 
ENDBRANCH  28  31
ENDBRANCH  22  27
ENDBRANCH   2  21
TORSDOF 8
ENDMDL
MODEL 5
REMARK VINA RESULT:      -7.9      2.691      4.897
REMARK  8 active torsions:
REMARK  status: ('A' for Active; 'I' for Inactive)
REMARK       I    between atoms: C_2  and  N_3 
REMARK    1  A    between atoms: N_3  and  C_4 
REMARK    2  A    between atoms: C_6  and  N_7 
REMARK    3  A    between atoms: N_7  and  C_8 
REMARK    4  A    between atoms: C_8  and  C_9 
REMARK       I    between atoms: C_9  and  N_10 
REMARK    5  A    between atoms: N_10  and  C_11 
REMARK    6  A    between atoms: C_12  and  C_13 
REMARK       I    between atoms: C_13  and  N_14 
REMARK    7  A    between atoms: N_14  and  C_15 
REMARK    8  A    between atoms: C_24  and  O_25 
ROOT
HETATM    1  C   UNL     1      -4.637   2.442 -32.398  1.00  0.00     0.235 C 
HETATM    2  N   UNL     1      -4.533   1.081 -32.146  1.00  0.00    -0.325 N 
HETATM    3  O   UNL     1      -5.233   2.965 -33.333  1.00  0.00    -0.272 OA
HETATM    4  H   UNL     1      -4.207   0.832 -31.220  1.00  0.00     0.169 HD
ENDROOT
BRANCH   1   5
HETATM    5  C   UNL     1      -3.997   3.291 -31.285  1.00  0.00     0.195 C 
BRANCH   5   6
HETATM    6  N   UNL     1      -2.536   3.349 -31.364  1.00  0.00    -0.282 NA
HETATM    7  H   UNL     1      -2.119   2.913 -30.535  1.00  0.00     0.128 HD
BRANCH   6   8
HETATM    8  C   UNL     1      -1.877   4.567 -31.604  1.00  0.00     0.044 A 
HETATM    9  C   UNL     1      -1.139   5.238 -30.614  1.00  0.00     0.055 A 
HETATM   10  C   UNL     1      -0.374   6.375 -30.898  1.00  0.00     0.036 A 
HETATM   11  C   UNL     1      -0.380   6.892 -32.195  1.00  0.00     0.032 A 
HETATM   12  C   UNL     1      -1.102   6.248 -33.198  1.00  0.00     0.041 A 
HETATM   13  C   UNL     1      -1.846   5.103 -32.908  1.00  0.00     0.089 A 
BRANCH  10  14
HETATM   14  N   UNL     1       0.446   7.020 -29.945  1.00  0.00    -0.327 N 
HETATM   15  C   UNL     1       0.030   7.809 -28.886  1.00  0.00     0.218 C 
HETATM   16  C   UNL     1       1.172   8.273 -28.017  1.00  0.00     0.117 C 
HETATM   17  O   UNL     1      -1.129   8.087 -28.588  1.00  0.00    -0.274 OA
HETATM   18  H   UNL     1       1.426   6.766 -29.968  1.00  0.00     0.169 HD
ENDBRANCH  10  14
BRANCH  13  19
HETATM   19  O   UNL     1      -2.483   4.539 -33.987  1.00  0.00    -0.354 OA
HETATM   20  C   UNL     1      -3.197   5.490 -34.777  1.00  0.00     0.210 C 
ENDBRANCH  13  19
ENDBRANCH   6   8
ENDBRANCH   5   6
ENDBRANCH   1   5
BRANCH   2  21
HETATM   21  C   UNL     1      -5.113   0.018 -32.877  1.00  0.00     0.050 A 
HETATM   22  C   UNL     1      -6.474  -0.291 -33.018  1.00  0.00     0.058 A 
HETATM   23  C   UNL     1      -6.852  -1.473 -33.694  1.00  0.00     0.019 A 
HETATM   24  C   UNL     1      -5.903  -2.320 -34.261  1.00  0.00     0.001 A 
HETATM   25  C   UNL     1      -4.559  -1.988 -34.178  1.00  0.00     0.002 A 
HETATM   26  C   UNL     1      -4.172  -0.829 -33.501  1.00  0.00     0.030 A 
BRANCH  22  27
HETATM   27  C   UNL     1      -7.624   0.567 -32.644  1.00  0.00     0.254 C 
HETATM   28  N   UNL     1      -8.653   0.658 -33.567  1.00  0.00    -0.352 N 
HETATM   29  H   UNL     1      -8.558   0.202 -34.473  1.00  0.00     0.163 HD
HETATM   30  O   UNL     1      -7.684   1.017 -31.501  1.00  0.00    -0.268 OA
BRANCH  28  31
HETATM   31  C   UNL     1      -9.880   1.311 -33.228  1.00  0.00     0.084 A 
HETATM   32  C   UNL     1     -10.824   1.763 -34.306  1.00  0.00     0.027 A 
HETATM   33  C   UNL     1     -11.213   0.639 -33.392  1.00  0.00     0.027 A 
ENDBRANCH  28  31
ENDBRANCH  22  27
ENDBRANCH   2  21
TORSDOF 8
ENDMDL
MODEL 6
REMARK VINA RESULT:      -7.4      2.773      7.815
REMARK  8 active torsions:
REMARK  status: ('A' for Active; 'I' for Inactive)
REMARK       I    between atoms: C_2  and  N_3 
REMARK    1  A    between atoms: N_3  and  C_4 
REMARK    2  A    between atoms: C_6  and  N_7 
REMARK    3  A    between atoms: N_7  and  C_8 
REMARK    4  A    between atoms: C_8  and  C_9 
REMARK       I    between atoms: C_9  and  N_10 
REMARK    5  A    between atoms: N_10  and  C_11 
REMARK    6  A    between atoms: C_12  and  C_13 
REMARK       I    between atoms: C_13  and  N_14 
REMARK    7  A    between atoms: N_14  and  C_15 
REMARK    8  A    between atoms: C_24  and  O_25 
ROOT
HETATM    1  C   UNL     1      -4.623   3.925 -31.018  1.00  0.00     0.235 C 
HETATM    2  N   UNL     1      -3.269   3.847 -31.314  1.00  0.00    -0.325 N 
HETATM    3  O   UNL     1      -5.391   4.818 -31.357  1.00  0.00    -0.272 OA
HETATM    4  H   UNL     1      -2.840   2.943 -31.157  1.00  0.00     0.169 HD
ENDROOT
BRANCH   1   5
HETATM    5  C   UNL     1      -5.131   2.674 -30.278  1.00  0.00     0.195 C 
BRANCH   5   6
HETATM    6  N   UNL     1      -4.617   1.420 -30.834  1.00  0.00    -0.282 NA
HETATM    7  H   UNL     1      -3.733   1.587 -31.326  1.00  0.00     0.128 HD
BRANCH   6   8
HETATM    8  C   UNL     1      -5.428   0.607 -31.644  1.00  0.00     0.044 A 
HETATM    9  C   UNL     1      -6.818   0.784 -31.746  1.00  0.00     0.055 A 
HETATM   10  C   UNL     1      -7.596   0.060 -32.658  1.00  0.00     0.036 A 
HETATM   11  C   UNL     1      -6.982  -0.903 -33.460  1.00  0.00     0.032 A 
HETATM   12  C   UNL     1      -5.605  -1.102 -33.382  1.00  0.00     0.041 A 
HETATM   13  C   UNL     1      -4.836  -0.361 -32.482  1.00  0.00     0.089 A 
BRANCH  10  14
HETATM   14  N   UNL     1      -8.980   0.277 -32.845  1.00  0.00    -0.327 N 
HETATM   15  C   UNL     1      -9.571   1.193 -33.698  1.00  0.00     0.218 C 
HETATM   16  C   UNL     1     -11.077   1.099 -33.705  1.00  0.00     0.117 C 
HETATM   17  O   UNL     1      -8.995   1.980 -34.445  1.00  0.00    -0.274 OA
HETATM   18  H   UNL     1      -9.591  -0.400 -32.405  1.00  0.00     0.169 HD
ENDBRANCH  10  14
BRANCH  13  19
HETATM   19  O   UNL     1      -3.487  -0.620 -32.525  1.00  0.00    -0.354 OA
HETATM   20  C   UNL     1      -3.138  -1.873 -31.937  1.00  0.00     0.210 C 
ENDBRANCH  13  19
ENDBRANCH   6   8
ENDBRANCH   5   6
ENDBRANCH   1   5
BRANCH   2  21
HETATM   21  C   UNL     1      -2.499   4.744 -32.090  1.00  0.00     0.050 A 
HETATM   22  C   UNL     1      -1.936   5.965 -31.692  1.00  0.00     0.058 A 
HETATM   23  C   UNL     1      -1.299   6.782 -32.652  1.00  0.00     0.019 A 
HETATM   24  C   UNL     1      -1.179   6.383 -33.981  1.00  0.00     0.001 A 
HETATM   25  C   UNL     1      -1.680   5.149 -34.367  1.00  0.00     0.002 A 
HETATM   26  C   UNL     1      -2.325   4.337 -33.430  1.00  0.00     0.030 A 
BRANCH  22  27
HETATM   27  C   UNL     1      -1.805   6.474 -30.305  1.00  0.00     0.254 C 
HETATM   28  N   UNL     1      -0.526   6.497 -29.773  1.00  0.00    -0.352 N 
HETATM   29  H   UNL     1       0.249   6.111 -30.310  1.00  0.00     0.163 HD
HETATM   30  O   UNL     1      -2.783   6.987 -29.764  1.00  0.00    -0.268 OA
BRANCH  28  31
HETATM   31  C   UNL     1      -0.270   7.134 -28.519  1.00  0.00     0.084 A 
HETATM   32  C   UNL     1       0.917   6.731 -27.689  1.00  0.00     0.027 A 
HETATM   33  C   UNL     1       0.873   8.088 -28.326  1.00  0.00     0.027 A 
ENDBRANCH  28  31
ENDBRANCH  22  27
ENDBRANCH   2  21
TORSDOF 8
ENDMDL
MODEL 7
REMARK VINA RESULT:      -7.4      2.844      8.304
REMARK  8 active torsions:
REMARK  status: ('A' for Active; 'I' for Inactive)
REMARK       I    between atoms: C_2  and  N_3 
REMARK    1  A    between atoms: N_3  and  C_4 
REMARK    2  A    between atoms: C_6  and  N_7 
REMARK    3  A    between atoms: N_7  and  C_8 
REMARK    4  A    between atoms: C_8  and  C_9 
REMARK       I    between atoms: C_9  and  N_10 
REMARK    5  A    between atoms: N_10  and  C_11 
REMARK    6  A    between atoms: C_12  and  C_13 
REMARK       I    between atoms: C_13  and  N_14 
REMARK    7  A    between atoms: N_14  and  C_15 
REMARK    8  A    between atoms: C_24  and  O_25 
ROOT
HETATM    1  C   UNL     1      -4.751   4.386 -30.917  1.00  0.00     0.235 C 
HETATM    2  N   UNL     1      -3.395   4.217 -31.161  1.00  0.00    -0.325 N 
HETATM    3  O   UNL     1      -5.488   5.211 -31.445  1.00  0.00    -0.272 OA
HETATM    4  H   UNL     1      -2.995   3.353 -30.817  1.00  0.00     0.169 HD
ENDROOT
BRANCH   1   5
HETATM    5  C   UNL     1      -5.307   3.321 -29.954  1.00  0.00     0.195 C 
BRANCH   5   6
HETATM    6  N   UNL     1      -6.347   2.481 -30.552  1.00  0.00    -0.282 NA
HETATM    7  H   UNL     1      -6.829   1.943 -29.824  1.00  0.00     0.128 HD
BRANCH   6   8
HETATM    8  C   UNL     1      -6.049   1.616 -31.618  1.00  0.00     0.044 A 
HETATM    9  C   UNL     1      -5.330   0.421 -31.447  1.00  0.00     0.055 A 
HETATM   10  C   UNL     1      -5.157  -0.500 -32.487  1.00  0.00     0.036 A 
HETATM   11  C   UNL     1      -5.672  -0.202 -33.750  1.00  0.00     0.032 A 
HETATM   12  C   UNL     1      -6.390   0.975 -33.951  1.00  0.00     0.041 A 
HETATM   13  C   UNL     1      -6.573   1.877 -32.901  1.00  0.00     0.089 A 
BRANCH  10  14
HETATM   14  N   UNL     1      -4.515  -1.748 -32.324  1.00  0.00    -0.327 N 
HETATM   15  C   UNL     1      -3.186  -1.964 -32.000  1.00  0.00     0.218 C 
HETATM   16  C   UNL     1      -2.857  -3.426 -31.826  1.00  0.00     0.117 C 
HETATM   17  O   UNL     1      -2.330  -1.107 -31.797  1.00  0.00    -0.274 OA
HETATM   18  H   UNL     1      -5.126  -2.555 -32.314  1.00  0.00     0.169 HD
ENDBRANCH  10  14
BRANCH  13  19
HETATM   19  O   UNL     1      -7.330   2.982 -33.213  1.00  0.00    -0.354 OA
HETATM   20  C   UNL     1      -8.566   2.653 -33.846  1.00  0.00     0.210 C 
ENDBRANCH  13  19
ENDBRANCH   6   8
ENDBRANCH   5   6
ENDBRANCH   1   5
BRANCH   2  21
HETATM   21  C   UNL     1      -2.587   4.922 -32.083  1.00  0.00     0.050 A 
HETATM   22  C   UNL     1      -1.919   6.140 -31.890  1.00  0.00     0.058 A 
HETATM   23  C   UNL     1      -1.255   6.749 -32.978  1.00  0.00     0.019 A 
HETATM   24  C   UNL     1      -1.214   6.145 -34.233  1.00  0.00     0.001 A 
HETATM   25  C   UNL     1      -1.821   4.912 -34.414  1.00  0.00     0.002 A 
HETATM   26  C   UNL     1      -2.492   4.305 -33.349  1.00  0.00     0.030 A 
BRANCH  22  27
HETATM   27  C   UNL     1      -1.699   6.839 -30.601  1.00  0.00     0.254 C 
HETATM   28  N   UNL     1      -0.908   6.187 -29.670  1.00  0.00    -0.352 N 
HETATM   29  H   UNL     1      -0.569   5.247 -29.869  1.00  0.00     0.163 HD
HETATM   30  O   UNL     1      -2.085   8.001 -30.481  1.00  0.00    -0.268 OA
BRANCH  28  31
HETATM   31  C   UNL     1      -0.490   6.853 -28.475  1.00  0.00     0.084 A 
HETATM   32  C   UNL     1       0.818   6.497 -27.824  1.00  0.00     0.027 A 
HETATM   33  C   UNL     1       0.640   7.842 -28.465  1.00  0.00     0.027 A 
ENDBRANCH  28  31
ENDBRANCH  22  27
ENDBRANCH   2  21
TORSDOF 8
ENDMDL
MODEL 8
REMARK VINA RESULT:      -7.4      1.809      3.239
REMARK  8 active torsions:
REMARK  status: ('A' for Active; 'I' for Inactive)
REMARK       I    between atoms: C_2  and  N_3 
REMARK    1  A    between atoms: N_3  and  C_4 
REMARK    2  A    between atoms: C_6  and  N_7 
REMARK    3  A    between atoms: N_7  and  C_8 
REMARK    4  A    between atoms: C_8  and  C_9 
REMARK       I    between atoms: C_9  and  N_10 
REMARK    5  A    between atoms: N_10  and  C_11 
REMARK    6  A    between atoms: C_12  and  C_13 
REMARK       I    between atoms: C_13  and  N_14 
REMARK    7  A    between atoms: N_14  and  C_15 
REMARK    8  A    between atoms: C_24  and  O_25 
ROOT
HETATM    1  C   UNL     1      -5.522  -0.092 -31.454  1.00  0.00     0.235 C 
HETATM    2  N   UNL     1      -4.806  -0.522 -32.563  1.00  0.00    -0.325 N 
HETATM    3  O   UNL     1      -6.617  -0.505 -31.091  1.00  0.00    -0.272 OA
HETATM    4  H   UNL     1      -3.832  -0.245 -32.586  1.00  0.00     0.169 HD
ENDROOT
BRANCH   1   5
HETATM    5  C   UNL     1      -4.734   0.926 -30.610  1.00  0.00     0.195 C 
BRANCH   5   6
HETATM    6  N   UNL     1      -5.501   2.130 -30.283  1.00  0.00    -0.282 NA
HETATM    7  H   UNL     1      -6.506   1.924 -30.302  1.00  0.00     0.128 HD
BRANCH   6   8
HETATM    8  C   UNL     1      -5.282   3.333 -30.975  1.00  0.00     0.044 A 
HETATM    9  C   UNL     1      -4.060   3.636 -31.601  1.00  0.00     0.055 A 
HETATM   10  C   UNL     1      -3.896   4.772 -32.403  1.00  0.00     0.036 A 
HETATM   11  C   UNL     1      -4.963   5.660 -32.549  1.00  0.00     0.032 A 
HETATM   12  C   UNL     1      -6.187   5.386 -31.942  1.00  0.00     0.041 A 
HETATM   13  C   UNL     1      -6.345   4.240 -31.160  1.00  0.00     0.089 A 
BRANCH  10  14
HETATM   14  N   UNL     1      -2.709   5.058 -33.113  1.00  0.00    -0.327 N 
HETATM   15  C   UNL     1      -2.579   5.236 -34.480  1.00  0.00     0.218 C 
HETATM   16  C   UNL     1      -1.176   5.609 -34.892  1.00  0.00     0.117 C 
HETATM   17  O   UNL     1      -3.477   5.177 -35.317  1.00  0.00    -0.274 OA
HETATM   18  H   UNL     1      -1.902   5.284 -32.544  1.00  0.00     0.169 HD
ENDBRANCH  10  14
BRANCH  13  19
HETATM   19  O   UNL     1      -7.607   4.061 -30.646  1.00  0.00    -0.354 OA
HETATM   20  C   UNL     1      -8.531   5.065 -31.066  1.00  0.00     0.210 C 
ENDBRANCH  13  19
ENDBRANCH   6   8
ENDBRANCH   5   6
ENDBRANCH   1   5
BRANCH   2  21
HETATM   21  C   UNL     1      -5.158  -1.538 -33.481  1.00  0.00     0.050 A 
HETATM   22  C   UNL     1      -6.293  -1.603 -34.303  1.00  0.00     0.058 A 
HETATM   23  C   UNL     1      -6.531  -2.766 -35.068  1.00  0.00     0.019 A 
HETATM   24  C   UNL     1      -5.640  -3.837 -35.057  1.00  0.00     0.001 A 
HETATM   25  C   UNL     1      -4.487  -3.754 -34.293  1.00  0.00     0.002 A 
HETATM   26  C   UNL     1      -4.246  -2.614 -33.521  1.00  0.00     0.030 A 
BRANCH  22  27
HETATM   27  C   UNL     1      -7.251  -0.507 -34.584  1.00  0.00     0.254 C 
HETATM   28  N   UNL     1      -8.334  -0.398 -33.728  1.00  0.00    -0.352 N 
HETATM   29  H   UNL     1      -8.470  -1.094 -32.997  1.00  0.00     0.163 HD
HETATM   30  O   UNL     1      -6.965   0.329 -35.441  1.00  0.00    -0.268 OA
BRANCH  28  31
HETATM   31  C   UNL     1      -9.212   0.729 -33.805  1.00  0.00     0.084 A 
HETATM   32  C   UNL     1     -10.611   0.641 -33.261  1.00  0.00     0.027 A 
HETATM   33  C   UNL     1      -9.600   1.523 -32.590  1.00  0.00     0.027 A 
ENDBRANCH  28  31
ENDBRANCH  22  27
ENDBRANCH   2  21
TORSDOF 8
ENDMDL
MODEL 9
REMARK VINA RESULT:      -7.1      3.059      5.573
REMARK  8 active torsions:
REMARK  status: ('A' for Active; 'I' for Inactive)
REMARK       I    between atoms: C_2  and  N_3 
REMARK    1  A    between atoms: N_3  and  C_4 
REMARK    2  A    between atoms: C_6  and  N_7 
REMARK    3  A    between atoms: N_7  and  C_8 
REMARK    4  A    between atoms: C_8  and  C_9 
REMARK       I    between atoms: C_9  and  N_10 
REMARK    5  A    between atoms: N_10  and  C_11 
REMARK    6  A    between atoms: C_12  and  C_13 
REMARK       I    between atoms: C_13  and  N_14 
REMARK    7  A    between atoms: N_14  and  C_15 
REMARK    8  A    between atoms: C_24  and  O_25 
ROOT
HETATM    1  C   UNL     1      -4.947   3.750 -32.536  1.00  0.00     0.235 C 
HETATM    2  N   UNL     1      -4.702   2.550 -31.883  1.00  0.00    -0.325 N 
HETATM    3  O   UNL     1      -5.429   3.883 -33.655  1.00  0.00    -0.272 OA
HETATM    4  H   UNL     1      -4.519   2.624 -30.890  1.00  0.00     0.169 HD
ENDROOT
BRANCH   1   5
HETATM    5  C   UNL     1      -4.646   4.970 -31.647  1.00  0.00     0.195 C 
BRANCH   5   6
HETATM    6  N   UNL     1      -3.466   4.793 -30.797  1.00  0.00    -0.282 NA
HETATM    7  H   UNL     1      -3.724   4.888 -29.809  1.00  0.00     0.128 HD
BRANCH   6   8
HETATM    8  C   UNL     1      -2.298   5.542 -31.023  1.00  0.00     0.044 A 
HETATM    9  C   UNL     1      -1.784   6.449 -30.081  1.00  0.00     0.055 A 
HETATM   10  C   UNL     1      -0.549   7.085 -30.256  1.00  0.00     0.036 A 
HETATM   11  C   UNL     1       0.175   6.851 -31.426  1.00  0.00     0.032 A 
HETATM   12  C   UNL     1      -0.308   5.956 -32.379  1.00  0.00     0.041 A 
HETATM   13  C   UNL     1      -1.533   5.312 -32.185  1.00  0.00     0.089 A 
BRANCH  10  14
HETATM   14  N   UNL     1       0.034   7.934 -29.289  1.00  0.00    -0.327 N 
HETATM   15  C   UNL     1       0.774   7.551 -28.183  1.00  0.00     0.218 C 
HETATM   16  C   UNL     1       1.314   8.725 -27.405  1.00  0.00     0.117 C 
HETATM   17  O   UNL     1       1.054   6.402 -27.848  1.00  0.00    -0.274 OA
HETATM   18  H   UNL     1       0.015   8.923 -29.507  1.00  0.00     0.169 HD
ENDBRANCH  10  14
BRANCH  13  19
HETATM   19  O   UNL     1      -1.883   4.427 -33.176  1.00  0.00    -0.354 OA
HETATM   20  C   UNL     1      -1.924   5.023 -34.472  1.00  0.00     0.210 C 
ENDBRANCH  13  19
ENDBRANCH   6   8
ENDBRANCH   5   6
ENDBRANCH   1   5
BRANCH   2  21
HETATM   21  C   UNL     1      -4.984   1.241 -32.340  1.00  0.00     0.050 A 
HETATM   22  C   UNL     1      -6.229   0.597 -32.394  1.00  0.00     0.058 A 
HETATM   23  C   UNL     1      -6.291  -0.763 -32.771  1.00  0.00     0.019 A 
HETATM   24  C   UNL     1      -5.145  -1.470 -33.130  1.00  0.00     0.001 A 
HETATM   25  C   UNL     1      -3.920  -0.821 -33.136  1.00  0.00     0.002 A 
HETATM   26  C   UNL     1      -3.844   0.521 -32.753  1.00  0.00     0.030 A 
BRANCH  22  27
HETATM   27  C   UNL     1      -7.563   1.222 -32.225  1.00  0.00     0.254 C 
HETATM   28  N   UNL     1      -8.527   0.884 -33.159  1.00  0.00    -0.352 N 
HETATM   29  H   UNL     1      -8.277   0.289 -33.947  1.00  0.00     0.163 HD
HETATM   30  O   UNL     1      -7.792   1.867 -31.203  1.00  0.00    -0.268 OA
BRANCH  28  31
HETATM   31  C   UNL     1      -9.888   1.288 -32.981  1.00  0.00     0.084 A 
HETATM   32  C   UNL     1     -10.759   1.572 -34.173  1.00  0.00     0.027 A 
HETATM   33  C   UNL     1     -11.040   0.381 -33.305  1.00  0.00     0.027 A 
ENDBRANCH  28  31
ENDBRANCH  22  27
ENDBRANCH   2  21
TORSDOF 8
ENDMDL
MODEL 10
REMARK VINA RESULT:      -7.0      2.803      6.015
REMARK  8 active torsions:
REMARK  status: ('A' for Active; 'I' for Inactive)
REMARK       I    between atoms: C_2  and  N_3 
REMARK    1  A    between atoms: N_3  and  C_4 
REMARK    2  A    between atoms: C_6  and  N_7 
REMARK    3  A    between atoms: N_7  and  C_8 
REMARK    4  A    between atoms: C_8  and  C_9 
REMARK       I    between atoms: C_9  and  N_10 
REMARK    5  A    between atoms: N_10  and  C_11 
REMARK    6  A    between atoms: C_12  and  C_13 
REMARK       I    between atoms: C_13  and  N_14 
REMARK    7  A    between atoms: N_14  and  C_15 
REMARK    8  A    between atoms: C_24  and  O_25 
ROOT
HETATM    1  C   UNL     1      -7.303   2.045 -33.605  1.00  0.00     0.235 C 
HETATM    2  N   UNL     1      -7.387   0.729 -33.173  1.00  0.00    -0.325 N 
HETATM    3  O   UNL     1      -6.409   2.531 -34.288  1.00  0.00    -0.272 OA
HETATM    4  H   UNL     1      -8.291   0.443 -32.819  1.00  0.00     0.169 HD
ENDROOT
BRANCH   1   5
HETATM    5  C   UNL     1      -8.550   2.864 -33.224  1.00  0.00     0.195 C 
BRANCH   5   6
HETATM    6  N   UNL     1      -8.879   3.910 -34.194  1.00  0.00    -0.282 NA
HETATM    7  H   UNL     1      -8.443   4.797 -33.920  1.00  0.00     0.128 HD
BRANCH   6   8
HETATM    8  C   UNL     1     -10.214   4.164 -34.553  1.00  0.00     0.044 A 
HETATM    9  C   UNL     1     -11.275   3.326 -34.170  1.00  0.00     0.055 A 
HETATM   10  C   UNL     1     -12.613   3.659 -34.413  1.00  0.00     0.036 A 
HETATM   11  C   UNL     1     -12.904   4.839 -35.100  1.00  0.00     0.032 A 
HETATM   12  C   UNL     1     -11.874   5.691 -35.492  1.00  0.00     0.041 A 
HETATM   13  C   UNL     1     -10.544   5.358 -35.228  1.00  0.00     0.089 A 
BRANCH  10  14
HETATM   14  N   UNL     1     -13.703   2.881 -33.964  1.00  0.00    -0.327 N 
HETATM   15  C   UNL     1     -13.996   1.575 -34.319  1.00  0.00     0.218 C 
HETATM   16  C   UNL     1     -15.194   1.024 -33.587  1.00  0.00     0.117 C 
HETATM   17  O   UNL     1     -13.357   0.862 -35.089  1.00  0.00    -0.274 OA
HETATM   18  H   UNL     1     -14.244   3.281 -33.206  1.00  0.00     0.169 HD
ENDBRANCH  10  14
BRANCH  13  19
HETATM   19  O   UNL     1      -9.622   6.295 -35.629  1.00  0.00    -0.354 OA
HETATM   20  C   UNL     1     -10.219   7.458 -36.203  1.00  0.00     0.210 C 
ENDBRANCH  13  19
ENDBRANCH   6   8
ENDBRANCH   5   6
ENDBRANCH   1   5
BRANCH   2  21
HETATM   21  C   UNL     1      -6.495  -0.333 -33.453  1.00  0.00     0.050 A 
HETATM   22  C   UNL     1      -5.156  -0.461 -33.056  1.00  0.00     0.058 A 
HETATM   23  C   UNL     1      -4.389  -1.544 -33.540  1.00  0.00     0.019 A 
HETATM   24  C   UNL     1      -4.945  -2.514 -34.371  1.00  0.00     0.001 A 
HETATM   25  C   UNL     1      -6.285  -2.424 -34.717  1.00  0.00     0.002 A 
HETATM   26  C   UNL     1      -7.050  -1.351 -34.256  1.00  0.00     0.030 A 
BRANCH  22  27
HETATM   27  C   UNL     1      -4.444   0.359 -32.046  1.00  0.00     0.254 C 
HETATM   28  N   UNL     1      -4.013   1.609 -32.457  1.00  0.00    -0.352 N 
HETATM   29  H   UNL     1      -4.133   1.888 -33.429  1.00  0.00     0.163 HD
HETATM   30  O   UNL     1      -4.412  -0.030 -30.879  1.00  0.00    -0.268 OA
BRANCH  28  31
HETATM   31  C   UNL     1      -3.480   2.543 -31.513  1.00  0.00     0.084 A 
HETATM   32  C   UNL     1      -2.741   3.763 -31.985  1.00  0.00     0.027 A 
HETATM   33  C   UNL     1      -4.077   3.907 -31.316  1.00  0.00     0.027 A 
ENDBRANCH  28  31
ENDBRANCH  22  27
ENDBRANCH   2  21
TORSDOF 8
ENDMDL
