MODEL 1
REMARK VINA RESULT:      -9.7      0.000      0.000
REMARK  9 active torsions:
REMARK  status: ('A' for Active; 'I' for Inactive)
REMARK    1  A    between atoms: C_4  and  C_5 
REMARK    2  A    between atoms: C_13  and  C_14 
REMARK    3  A    between atoms: C_14  and  N_15 
REMARK    4  A    between atoms: C_19  and  C_20 
REMARK       I    between atoms: C_20  and  N_21 
REMARK    5  A    between atoms: N_21  and  C_22 
REMARK    6  A    between atoms: C_22  and  C_23 
REMARK    7  A    between atoms: C_23  and  C_24 
REMARK    8  A    between atoms: C_24  and  N_25 
REMARK    9  A    between atoms: N_29  and  C_30 
ROOT
HETATM    1  N   UNL     1      -2.811   3.611 -32.458  1.00  0.00    -0.066 N 
HETATM    2  H   UNL     1      -2.272   2.768 -32.711  1.00  0.00     0.280 HD
HETATM    3  C   UNL     1      -3.093   4.345 -33.743  1.00  0.00     0.236 C 
HETATM    4  C   UNL     1      -1.806   4.938 -34.315  1.00  0.00     0.042 C 
HETATM    5  C   UNL     1      -1.107   5.862 -33.316  1.00  0.00     0.081 C 
HETATM    6  C   UNL     1      -0.835   5.100 -32.018  1.00  0.00     0.042 C 
HETATM    7  C   UNL     1      -2.060   4.413 -31.431  1.00  0.00     0.236 C 
ENDROOT
BRANCH   5   8
HETATM    8  C   UNL     1      -1.968   7.106 -33.105  1.00  0.00     0.221 C 
HETATM    9  N   UNL     1      -2.841   7.030 -32.046  1.00  0.00    -0.361 N 
HETATM   10  H   UNL     1      -2.890   6.168 -31.509  1.00  0.00     0.162 HD
HETATM   11  O   UNL     1      -1.799   8.133 -33.757  1.00  0.00    -0.273 OA
BRANCH   9  12
HETATM   12  C   UNL     1      -3.477   8.209 -31.483  1.00  0.00     0.124 C 
BRANCH  12  13
HETATM   13  C   UNL     1      -4.943   8.004 -31.084  1.00  0.00     0.047 C 
BRANCH  13  14
HETATM   14  C   UNL     1      -5.453   6.681 -31.654  1.00  0.00     0.236 C 
BRANCH  14  15
HETATM   15  N   UNL     1      -6.760   6.250 -31.024  1.00  0.00    -0.068 N 
HETATM   16  H   UNL     1      -7.043   6.948 -30.323  1.00  0.00     0.280 HD
HETATM   17  C   UNL     1      -7.879   6.223 -32.088  1.00  0.00     0.254 C 
HETATM   18  C   UNL     1      -9.218   5.743 -31.489  1.00  0.00     0.150 C 
HETATM   19  N   UNL     1      -9.064   4.455 -30.791  1.00  0.00    -0.378 N 
HETATM   20  C   UNL     1      -8.042   4.479 -29.727  1.00  0.00     0.150 C 
HETATM   21  C   UNL     1      -6.672   4.890 -30.309  1.00  0.00     0.254 C 
BRANCH  19  22
HETATM   22  C   UNL     1      -9.256   3.245 -31.463  1.00  0.00     0.031 A 
HETATM   23  C   UNL     1     -10.074   3.110 -32.595  1.00  0.00     0.053 A 
HETATM   24  C   UNL     1     -10.226   1.877 -33.245  1.00  0.00     0.036 A 
HETATM   25 CL   UNL     1     -11.206   1.786 -34.658  1.00  0.00    -0.084 Cl
HETATM   26  C   UNL     1      -9.589   0.739 -32.772  1.00  0.00     0.024 A 
HETATM   27  C   UNL     1      -8.802   0.833 -31.632  1.00  0.00     0.004 A 
HETATM   28  C   UNL     1      -8.645   2.068 -30.989  1.00  0.00     0.029 A 
ENDBRANCH  19  22
ENDBRANCH  14  15
ENDBRANCH  13  14
ENDBRANCH  12  13
ENDBRANCH   9  12
ENDBRANCH   5   8
BRANCH   1  29
HETATM   29  C   UNL     1      -4.087   3.061 -31.824  1.00  0.00     0.296 C 
BRANCH  29  30
HETATM   30  C   UNL     1      -4.829   2.068 -32.638  1.00  0.00     0.092 A 
HETATM   31  C   UNL     1      -5.883   2.282 -33.500  1.00  0.00     0.078 A 
HETATM   32  C   UNL     1      -6.652   3.459 -33.943  1.00  0.00     0.079 C 
HETATM   33  O   UNL     1      -6.236   1.078 -34.030  1.00  0.00    -0.294 OA
HETATM   34  C   UNL     1      -5.382   0.174 -33.453  1.00  0.00     0.180 A 
HETATM   35  N   UNL     1      -4.517   0.722 -32.611  1.00  0.00    -0.224 NA
BRANCH  34  36
HETATM   36  C   UNL     1      -5.536  -1.217 -33.869  1.00  0.00     0.019 A 
HETATM   37  C   UNL     1      -4.472  -2.115 -33.706  1.00  0.00     0.039 A 
HETATM   38  C   UNL     1      -4.602  -3.444 -34.112  1.00  0.00     0.035 A 
HETATM   39 CL   UNL     1      -3.277  -4.522 -33.911  1.00  0.00    -0.084 Cl
HETATM   40  C   UNL     1      -5.789  -3.901 -34.679  1.00  0.00     0.024 A 
HETATM   41  C   UNL     1      -6.855  -3.021 -34.844  1.00  0.00     0.003 A 
HETATM   42  C   UNL     1      -6.729  -1.688 -34.442  1.00  0.00     0.016 A 
ENDBRANCH  34  36
ENDBRANCH  29  30
ENDBRANCH   1  29
TORSDOF 9
ENDMDL
MODEL 2
REMARK VINA RESULT:      -9.2      2.904      6.275
REMARK  9 active torsions:
REMARK  status: ('A' for Active; 'I' for Inactive)
REMARK    1  A    between atoms: C_4  and  C_5 
REMARK    2  A    between atoms: C_13  and  C_14 
REMARK    3  A    between atoms: C_14  and  N_15 
REMARK    4  A    between atoms: C_19  and  C_20 
REMARK       I    between atoms: C_20  and  N_21 
REMARK    5  A    between atoms: N_21  and  C_22 
REMARK    6  A    between atoms: C_22  and  C_23 
REMARK    7  A    between atoms: C_23  and  C_24 
REMARK    8  A    between atoms: C_24  and  N_25 
REMARK    9  A    between atoms: N_29  and  C_30 
ROOT
HETATM    1  N   UNL     1      -7.928   3.251 -33.213  1.00  0.00    -0.066 N 
HETATM    2  H   UNL     1      -8.433   2.465 -33.651  1.00  0.00     0.280 HD
HETATM    3  C   UNL     1      -8.050   3.067 -31.722  1.00  0.00     0.236 C 
HETATM    4  C   UNL     1      -9.488   3.310 -31.269  1.00  0.00     0.042 C 
HETATM    5  C   UNL     1      -9.992   4.695 -31.678  1.00  0.00     0.081 C 
HETATM    6  C   UNL     1      -9.855   4.864 -33.191  1.00  0.00     0.042 C 
HETATM    7  C   UNL     1      -8.463   4.559 -33.728  1.00  0.00     0.236 C 
ENDROOT
BRANCH   5   8
HETATM    8  C   UNL     1      -9.224   5.755 -30.890  1.00  0.00     0.221 C 
HETATM    9  N   UNL     1      -9.561   5.842 -29.560  1.00  0.00    -0.361 N 
HETATM   10  H   UNL     1     -10.303   5.247 -29.199  1.00  0.00     0.162 HD
HETATM   11  O   UNL     1      -8.295   6.388 -31.385  1.00  0.00    -0.273 OA
BRANCH   9  12
HETATM   12  C   UNL     1      -8.720   6.526 -28.593  1.00  0.00     0.124 C 
BRANCH  12  13
HETATM   13  C   UNL     1      -7.532   5.697 -28.094  1.00  0.00     0.047 C 
BRANCH  13  14
HETATM   14  C   UNL     1      -6.261   6.546 -28.121  1.00  0.00     0.236 C 
BRANCH  14  15
HETATM   15  N   UNL     1      -5.723   6.732 -29.523  1.00  0.00    -0.068 N 
HETATM   16  H   UNL     1      -6.502   6.962 -30.155  1.00  0.00     0.280 HD
HETATM   17  C   UNL     1      -4.756   7.936 -29.566  1.00  0.00     0.254 C 
HETATM   18  C   UNL     1      -4.154   8.128 -30.973  1.00  0.00     0.150 C 
HETATM   19  N   UNL     1      -3.538   6.884 -31.469  1.00  0.00    -0.378 N 
HETATM   20  C   UNL     1      -4.465   5.736 -31.495  1.00  0.00     0.150 C 
HETATM   21  C   UNL     1      -5.034   5.475 -30.083  1.00  0.00     0.254 C 
BRANCH  19  22
HETATM   22  C   UNL     1      -2.188   6.608 -31.236  1.00  0.00     0.031 A 
HETATM   23  C   UNL     1      -1.400   7.316 -30.317  1.00  0.00     0.053 A 
HETATM   24  C   UNL     1      -0.052   6.995 -30.107  1.00  0.00     0.036 A 
HETATM   25 CL   UNL     1       0.849   7.870 -28.930  1.00  0.00    -0.084 Cl
HETATM   26  C   UNL     1       0.557   5.976 -30.826  1.00  0.00     0.024 A 
HETATM   27  C   UNL     1      -0.186   5.281 -31.770  1.00  0.00     0.004 A 
HETATM   28  C   UNL     1      -1.536   5.599 -31.971  1.00  0.00     0.029 A 
ENDBRANCH  19  22
ENDBRANCH  14  15
ENDBRANCH  13  14
ENDBRANCH  12  13
ENDBRANCH   9  12
ENDBRANCH   5   8
BRANCH   1  29
HETATM   29  C   UNL     1      -6.487   3.080 -33.692  1.00  0.00     0.296 C 
BRANCH  29  30
HETATM   30  C   UNL     1      -5.906   1.729 -33.502  1.00  0.00     0.092 A 
HETATM   31  C   UNL     1      -4.859   1.352 -32.688  1.00  0.00     0.078 A 
HETATM   32  C   UNL     1      -3.956   2.048 -31.753  1.00  0.00     0.079 C 
HETATM   33  O   UNL     1      -4.683   0.010 -32.834  1.00  0.00    -0.294 OA
HETATM   34  C   UNL     1      -5.631  -0.374 -33.747  1.00  0.00     0.180 A 
HETATM   35  N   UNL     1      -6.392   0.624 -34.176  1.00  0.00    -0.224 NA
BRANCH  34  36
HETATM   36  C   UNL     1      -5.672  -1.796 -34.076  1.00  0.00     0.019 A 
HETATM   37  C   UNL     1      -4.535  -2.591 -33.876  1.00  0.00     0.039 A 
HETATM   38  C   UNL     1      -4.557  -3.949 -34.199  1.00  0.00     0.035 A 
HETATM   39 CL   UNL     1      -3.145  -4.899 -33.954  1.00  0.00    -0.084 Cl
HETATM   40  C   UNL     1      -5.708  -4.536 -34.719  1.00  0.00     0.024 A 
HETATM   41  C   UNL     1      -6.846  -3.760 -34.921  1.00  0.00     0.003 A 
HETATM   42  C   UNL     1      -6.827  -2.398 -34.602  1.00  0.00     0.016 A 
ENDBRANCH  34  36
ENDBRANCH  29  30
ENDBRANCH   1  29
TORSDOF 9
ENDMDL
MODEL 3
REMARK VINA RESULT:      -9.2      3.742      6.476
REMARK  9 active torsions:
REMARK  status: ('A' for Active; 'I' for Inactive)
REMARK    1  A    between atoms: C_4  and  C_5 
REMARK    2  A    between atoms: C_13  and  C_14 
REMARK    3  A    between atoms: C_14  and  N_15 
REMARK    4  A    between atoms: C_19  and  C_20 
REMARK       I    between atoms: C_20  and  N_21 
REMARK    5  A    between atoms: N_21  and  C_22 
REMARK    6  A    between atoms: C_22  and  C_23 
REMARK    7  A    between atoms: C_23  and  C_24 
REMARK    8  A    between atoms: C_24  and  N_25 
REMARK    9  A    between atoms: N_29  and  C_30 
ROOT
HETATM    1  N   UNL     1      -2.764   3.929 -32.325  1.00  0.00    -0.066 N 
HETATM    2  H   UNL     1      -2.280   3.036 -32.510  1.00  0.00     0.280 HD
HETATM    3  C   UNL     1      -2.901   4.629 -33.652  1.00  0.00     0.236 C 
HETATM    4  C   UNL     1      -1.535   5.094 -34.156  1.00  0.00     0.042 C 
HETATM    5  C   UNL     1      -0.829   6.000 -33.146  1.00  0.00     0.081 C 
HETATM    6  C   UNL     1      -0.706   5.274 -31.806  1.00  0.00     0.042 C 
HETATM    7  C   UNL     1      -2.019   4.711 -31.279  1.00  0.00     0.236 C 
ENDROOT
BRANCH   5   8
HETATM    8  C   UNL     1      -1.597   7.316 -33.039  1.00  0.00     0.221 C 
HETATM    9  N   UNL     1      -1.890   7.711 -31.755  1.00  0.00    -0.361 N 
HETATM   10  H   UNL     1      -1.624   7.107 -30.981  1.00  0.00     0.162 HD
HETATM   11  O   UNL     1      -1.822   8.020 -34.020  1.00  0.00    -0.273 OA
BRANCH   9  12
HETATM   12  C   UNL     1      -2.295   9.069 -31.438  1.00  0.00     0.124 C 
BRANCH  12  13
HETATM   13  C   UNL     1      -3.734   9.195 -30.927  1.00  0.00     0.047 C 
BRANCH  13  14
HETATM   14  C   UNL     1      -3.931  10.559 -30.266  1.00  0.00     0.236 C 
BRANCH  14  15
HETATM   15  N   UNL     1      -3.595  10.538 -28.791  1.00  0.00    -0.068 N 
HETATM   16  H   UNL     1      -4.309  11.072 -28.276  1.00  0.00     0.280 HD
HETATM   17  C   UNL     1      -3.660   9.092 -28.252  1.00  0.00     0.254 C 
HETATM   18  C   UNL     1      -3.279   9.027 -26.758  1.00  0.00     0.150 C 
HETATM   19  N   UNL     1      -1.979   9.672 -26.506  1.00  0.00    -0.378 N 
HETATM   20  C   UNL     1      -1.919  11.076 -26.957  1.00  0.00     0.150 C 
HETATM   21  C   UNL     1      -2.228  11.167 -28.468  1.00  0.00     0.254 C 
BRANCH  19  22
HETATM   22  C   UNL     1      -0.791   8.937 -26.550  1.00  0.00     0.031 A 
HETATM   23  C   UNL     1      -0.616   7.797 -27.347  1.00  0.00     0.053 A 
HETATM   24  C   UNL     1       0.599   7.098 -27.368  1.00  0.00     0.036 A 
HETATM   25 CL   UNL     1       0.767   5.733 -28.404  1.00  0.00    -0.084 Cl
HETATM   26  C   UNL     1       1.666   7.500 -26.578  1.00  0.00     0.024 A 
HETATM   27  C   UNL     1       1.512   8.604 -25.750  1.00  0.00     0.004 A 
HETATM   28  C   UNL     1       0.299   9.306 -25.737  1.00  0.00     0.029 A 
ENDBRANCH  19  22
ENDBRANCH  14  15
ENDBRANCH  13  14
ENDBRANCH  12  13
ENDBRANCH   9  12
ENDBRANCH   5   8
BRANCH   1  29
HETATM   29  C   UNL     1      -4.120   3.509 -31.760  1.00  0.00     0.296 C 
BRANCH  29  30
HETATM   30  C   UNL     1      -4.866   2.511 -32.565  1.00  0.00     0.092 A 
HETATM   31  C   UNL     1      -5.952   2.714 -33.390  1.00  0.00     0.078 A 
HETATM   32  C   UNL     1      -6.759   3.881 -33.791  1.00  0.00     0.079 C 
HETATM   33  O   UNL     1      -6.296   1.510 -33.925  1.00  0.00    -0.294 OA
HETATM   34  C   UNL     1      -5.405   0.618 -33.390  1.00  0.00     0.180 A 
HETATM   35  N   UNL     1      -4.524   1.172 -32.567  1.00  0.00    -0.224 NA
BRANCH  34  36
HETATM   36  C   UNL     1      -5.543  -0.771 -33.821  1.00  0.00     0.019 A 
HETATM   37  C   UNL     1      -4.538  -1.699 -33.512  1.00  0.00     0.039 A 
HETATM   38  C   UNL     1      -4.652  -3.026 -33.929  1.00  0.00     0.035 A 
HETATM   39 CL   UNL     1      -3.401  -4.143 -33.547  1.00  0.00    -0.084 Cl
HETATM   40  C   UNL     1      -5.763  -3.451 -34.653  1.00  0.00     0.024 A 
HETATM   41  C   UNL     1      -6.769  -2.540 -34.965  1.00  0.00     0.003 A 
HETATM   42  C   UNL     1      -6.659  -1.209 -34.552  1.00  0.00     0.016 A 
ENDBRANCH  34  36
ENDBRANCH  29  30
ENDBRANCH   1  29
TORSDOF 9
ENDMDL
MODEL 4
REMARK VINA RESULT:      -9.1      3.435      5.263
REMARK  9 active torsions:
REMARK  status: ('A' for Active; 'I' for Inactive)
REMARK    1  A    between atoms: C_4  and  C_5 
REMARK    2  A    between atoms: C_13  and  C_14 
REMARK    3  A    between atoms: C_14  and  N_15 
REMARK    4  A    between atoms: C_19  and  C_20 
REMARK       I    between atoms: C_20  and  N_21 
REMARK    5  A    between atoms: N_21  and  C_22 
REMARK    6  A    between atoms: C_22  and  C_23 
REMARK    7  A    between atoms: C_23  and  C_24 
REMARK    8  A    between atoms: C_24  and  N_25 
REMARK    9  A    between atoms: N_29  and  C_30 
ROOT
HETATM    1  N   UNL     1      -3.798   4.148 -32.098  1.00  0.00    -0.066 N 
HETATM    2  H   UNL     1      -4.578   4.419 -32.717  1.00  0.00     0.280 HD
HETATM    3  C   UNL     1      -3.537   5.323 -31.192  1.00  0.00     0.236 C 
HETATM    4  C   UNL     1      -2.940   6.486 -31.982  1.00  0.00     0.042 C 
HETATM    5  C   UNL     1      -1.659   6.084 -32.715  1.00  0.00     0.081 C 
HETATM    6  C   UNL     1      -1.943   4.888 -33.624  1.00  0.00     0.042 C 
HETATM    7  C   UNL     1      -2.614   3.716 -32.920  1.00  0.00     0.236 C 
ENDROOT
BRANCH   5   8
HETATM    8  C   UNL     1      -0.566   5.801 -31.685  1.00  0.00     0.221 C 
HETATM    9  N   UNL     1      -0.414   6.772 -30.724  1.00  0.00    -0.361 N 
HETATM   10  H   UNL     1      -0.988   7.610 -30.775  1.00  0.00     0.162 HD
HETATM   11  O   UNL     1       0.038   4.733 -31.654  1.00  0.00    -0.273 OA
BRANCH   9  12
HETATM   12  C   UNL     1       0.311   6.530 -29.489  1.00  0.00     0.124 C 
BRANCH  12  13
HETATM   13  C   UNL     1       0.787   7.802 -28.778  1.00  0.00     0.047 C 
BRANCH  13  14
HETATM   14  C   UNL     1       0.888   7.546 -27.275  1.00  0.00     0.236 C 
BRANCH  14  15
HETATM   15  N   UNL     1      -0.377   7.930 -26.538  1.00  0.00    -0.068 N 
HETATM   16  H   UNL     1      -0.125   8.390 -25.653  1.00  0.00     0.280 HD
HETATM   17  C   UNL     1      -1.174   8.969 -27.358  1.00  0.00     0.254 C 
HETATM   18  C   UNL     1      -2.494   9.351 -26.656  1.00  0.00     0.150 C 
HETATM   19  N   UNL     1      -3.290   8.157 -26.321  1.00  0.00    -0.378 N 
HETATM   20  C   UNL     1      -2.566   7.181 -25.485  1.00  0.00     0.150 C 
HETATM   21  C   UNL     1      -1.270   6.726 -26.192  1.00  0.00     0.254 C 
BRANCH  19  22
HETATM   22  C   UNL     1      -4.239   7.652 -27.214  1.00  0.00     0.031 A 
HETATM   23  C   UNL     1      -4.657   8.333 -28.366  1.00  0.00     0.053 A 
HETATM   24  C   UNL     1      -5.604   7.781 -29.240  1.00  0.00     0.036 A 
HETATM   25 CL   UNL     1      -6.041   8.646 -30.664  1.00  0.00    -0.084 Cl
HETATM   26  C   UNL     1      -6.179   6.546 -28.979  1.00  0.00     0.024 A 
HETATM   27  C   UNL     1      -5.813   5.863 -27.826  1.00  0.00     0.004 A 
HETATM   28  C   UNL     1      -4.860   6.414 -26.959  1.00  0.00     0.029 A 
ENDBRANCH  19  22
ENDBRANCH  14  15
ENDBRANCH  13  14
ENDBRANCH  12  13
ENDBRANCH   9  12
ENDBRANCH   5   8
BRANCH   1  29
HETATM   29  C   UNL     1      -4.334   2.943 -31.328  1.00  0.00     0.296 C 
BRANCH  29  30
HETATM   30  C   UNL     1      -4.709   1.771 -32.156  1.00  0.00     0.092 A 
HETATM   31  C   UNL     1      -5.623   1.706 -33.186  1.00  0.00     0.078 A 
HETATM   32  C   UNL     1      -6.527   2.665 -33.846  1.00  0.00     0.079 C 
HETATM   33  O   UNL     1      -5.628   0.428 -33.656  1.00  0.00    -0.294 OA
HETATM   34  C   UNL     1      -4.719  -0.239 -32.876  1.00  0.00     0.180 A 
HETATM   35  N   UNL     1      -4.139   0.527 -31.961  1.00  0.00    -0.224 NA
BRANCH  34  36
HETATM   36  C   UNL     1      -4.515  -1.651 -33.185  1.00  0.00     0.019 A 
HETATM   37  C   UNL     1      -5.315  -2.275 -34.154  1.00  0.00     0.039 A 
HETATM   38  C   UNL     1      -5.138  -3.627 -34.450  1.00  0.00     0.035 A 
HETATM   39 CL   UNL     1      -6.140  -4.371 -35.634  1.00  0.00    -0.084 Cl
HETATM   40  C   UNL     1      -4.165  -4.377 -33.795  1.00  0.00     0.024 A 
HETATM   41  C   UNL     1      -3.362  -3.770 -32.833  1.00  0.00     0.003 A 
HETATM   42  C   UNL     1      -3.536  -2.416 -32.530  1.00  0.00     0.016 A 
ENDBRANCH  34  36
ENDBRANCH  29  30
ENDBRANCH   1  29
TORSDOF 9
ENDMDL
MODEL 5
REMARK VINA RESULT:      -9.1      3.223      6.824
REMARK  9 active torsions:
REMARK  status: ('A' for Active; 'I' for Inactive)
REMARK    1  A    between atoms: C_4  and  C_5 
REMARK    2  A    between atoms: C_13  and  C_14 
REMARK    3  A    between atoms: C_14  and  N_15 
REMARK    4  A    between atoms: C_19  and  C_20 
REMARK       I    between atoms: C_20  and  N_21 
REMARK    5  A    between atoms: N_21  and  C_22 
REMARK    6  A    between atoms: C_22  and  C_23 
REMARK    7  A    between atoms: C_23  and  C_24 
REMARK    8  A    between atoms: C_24  and  N_25 
REMARK    9  A    between atoms: N_29  and  C_30 
ROOT
HETATM    1  N   UNL     1      -8.897   4.393 -33.084  1.00  0.00    -0.066 N 
HETATM    2  H   UNL     1      -9.626   5.124 -33.094  1.00  0.00     0.280 HD
HETATM    3  C   UNL     1      -9.019   3.679 -31.763  1.00  0.00     0.236 C 
HETATM    4  C   UNL     1      -8.584   4.592 -30.619  1.00  0.00     0.042 C 
HETATM    5  C   UNL     1      -7.160   5.115 -30.811  1.00  0.00     0.081 C 
HETATM    6  C   UNL     1      -7.055   5.831 -32.159  1.00  0.00     0.042 C 
HETATM    7  C   UNL     1      -7.548   5.008 -33.341  1.00  0.00     0.236 C 
ENDROOT
BRANCH   5   8
HETATM    8  C   UNL     1      -6.181   3.949 -30.682  1.00  0.00     0.221 C 
HETATM    9  N   UNL     1      -5.166   3.942 -31.609  1.00  0.00    -0.361 N 
HETATM   10  H   UNL     1      -5.148   4.663 -32.326  1.00  0.00     0.162 HD
HETATM   11  O   UNL     1      -6.234   3.156 -29.746  1.00  0.00    -0.273 OA
BRANCH   9  12
HETATM   12  C   UNL     1      -3.970   3.135 -31.439  1.00  0.00     0.124 C 
BRANCH  12  13
HETATM   13  C   UNL     1      -2.777   3.591 -32.287  1.00  0.00     0.047 C 
BRANCH  13  14
HETATM   14  C   UNL     1      -3.158   4.834 -33.089  1.00  0.00     0.236 C 
BRANCH  14  15
HETATM   15  N   UNL     1      -2.322   6.039 -32.716  1.00  0.00    -0.068 N 
HETATM   16  H   UNL     1      -2.183   6.624 -33.552  1.00  0.00     0.280 HD
HETATM   17  C   UNL     1      -3.078   6.914 -31.693  1.00  0.00     0.254 C 
HETATM   18  C   UNL     1      -2.235   8.131 -31.256  1.00  0.00     0.150 C 
HETATM   19  N   UNL     1      -0.903   7.718 -30.779  1.00  0.00    -0.378 N 
HETATM   20  C   UNL     1      -0.139   6.934 -31.769  1.00  0.00     0.150 C 
HETATM   21  C   UNL     1      -0.929   5.670 -32.176  1.00  0.00     0.254 C 
BRANCH  19  22
HETATM   22  C   UNL     1      -0.678   7.434 -29.430  1.00  0.00     0.031 A 
HETATM   23  C   UNL     1      -1.708   7.254 -28.495  1.00  0.00     0.053 A 
HETATM   24  C   UNL     1      -1.434   6.957 -27.153  1.00  0.00     0.036 A 
HETATM   25 CL   UNL     1      -2.743   6.700 -26.063  1.00  0.00    -0.084 Cl
HETATM   26  C   UNL     1      -0.128   6.857 -26.697  1.00  0.00     0.024 A 
HETATM   27  C   UNL     1       0.915   7.066 -27.591  1.00  0.00     0.004 A 
HETATM   28  C   UNL     1       0.638   7.354 -28.935  1.00  0.00     0.029 A 
ENDBRANCH  19  22
ENDBRANCH  14  15
ENDBRANCH  13  14
ENDBRANCH  12  13
ENDBRANCH   9  12
ENDBRANCH   5   8
BRANCH   1  29
HETATM   29  C   UNL     1      -9.261   3.487 -34.258  1.00  0.00     0.296 C 
BRANCH  29  30
HETATM   30  C   UNL     1      -8.893   2.058 -34.100  1.00  0.00     0.092 A 
HETATM   31  C   UNL     1      -9.708   0.994 -33.781  1.00  0.00     0.078 A 
HETATM   32  C   UNL     1     -11.143   0.823 -33.490  1.00  0.00     0.079 C 
HETATM   33  O   UNL     1      -8.934  -0.127 -33.754  1.00  0.00    -0.294 OA
HETATM   34  C   UNL     1      -7.669   0.311 -34.048  1.00  0.00     0.180 A 
HETATM   35  N   UNL     1      -7.594   1.616 -34.266  1.00  0.00    -0.224 NA
BRANCH  34  36
HETATM   36  C   UNL     1      -6.628  -0.712 -34.102  1.00  0.00     0.019 A 
HETATM   37  C   UNL     1      -6.915  -1.969 -34.652  1.00  0.00     0.039 A 
HETATM   38  C   UNL     1      -5.933  -2.960 -34.698  1.00  0.00     0.035 A 
HETATM   39 CL   UNL     1      -6.313  -4.497 -35.368  1.00  0.00    -0.084 Cl
HETATM   40  C   UNL     1      -4.654  -2.716 -34.204  1.00  0.00     0.024 A 
HETATM   41  C   UNL     1      -4.354  -1.471 -33.657  1.00  0.00     0.003 A 
HETATM   42  C   UNL     1      -5.335  -0.476 -33.606  1.00  0.00     0.016 A 
ENDBRANCH  34  36
ENDBRANCH  29  30
ENDBRANCH   1  29
TORSDOF 9
ENDMDL
MODEL 6
REMARK VINA RESULT:      -9.0      3.204      6.734
REMARK  9 active torsions:
REMARK  status: ('A' for Active; 'I' for Inactive)
REMARK    1  A    between atoms: C_4  and  C_5 
REMARK    2  A    between atoms: C_13  and  C_14 
REMARK    3  A    between atoms: C_14  and  N_15 
REMARK    4  A    between atoms: C_19  and  C_20 
REMARK       I    between atoms: C_20  and  N_21 
REMARK    5  A    between atoms: N_21  and  C_22 
REMARK    6  A    between atoms: C_22  and  C_23 
REMARK    7  A    between atoms: C_23  and  C_24 
REMARK    8  A    between atoms: C_24  and  N_25 
REMARK    9  A    between atoms: N_29  and  C_30 
ROOT
HETATM    1  N   UNL     1     -10.461   2.603 -34.956  1.00  0.00    -0.066 N 
HETATM    2  H   UNL     1     -10.256   2.270 -35.911  1.00  0.00     0.280 HD
HETATM    3  C   UNL     1     -11.092   1.449 -34.222  1.00  0.00     0.236 C 
HETATM    4  C   UNL     1     -12.486   1.161 -34.775  1.00  0.00     0.042 C 
HETATM    5  C   UNL     1     -13.394   2.391 -34.714  1.00  0.00     0.081 C 
HETATM    6  C   UNL     1     -12.733   3.551 -35.459  1.00  0.00     0.042 C 
HETATM    7  C   UNL     1     -11.307   3.845 -35.015  1.00  0.00     0.236 C 
ENDROOT
BRANCH   5   8
HETATM    8  C   UNL     1     -13.690   2.716 -33.251  1.00  0.00     0.221 C 
HETATM    9  N   UNL     1     -13.247   3.949 -32.834  1.00  0.00    -0.361 N 
HETATM   10  H   UNL     1     -12.732   4.535 -33.487  1.00  0.00     0.162 HD
HETATM   11  O   UNL     1     -14.376   1.981 -32.547  1.00  0.00    -0.273 OA
BRANCH   9  12
HETATM   12  C   UNL     1     -13.727   4.569 -31.611  1.00  0.00     0.124 C 
BRANCH  12  13
HETATM   13  C   UNL     1     -12.822   5.682 -31.071  1.00  0.00     0.047 C 
BRANCH  13  14
HETATM   14  C   UNL     1     -11.529   5.078 -30.526  1.00  0.00     0.236 C 
BRANCH  14  15
HETATM   15  N   UNL     1     -10.319   5.932 -30.837  1.00  0.00    -0.068 N 
HETATM   16  H   UNL     1     -10.533   6.913 -30.613  1.00  0.00     0.280 HD
HETATM   17  C   UNL     1      -9.135   5.525 -29.933  1.00  0.00     0.254 C 
HETATM   18  C   UNL     1      -7.869   6.347 -30.254  1.00  0.00     0.150 C 
HETATM   19  N   UNL     1      -7.538   6.286 -31.688  1.00  0.00    -0.378 N 
HETATM   20  C   UNL     1      -8.636   6.731 -32.567  1.00  0.00     0.150 C 
HETATM   21  C   UNL     1      -9.901   5.880 -32.318  1.00  0.00     0.254 C 
BRANCH  19  22
HETATM   22  C   UNL     1      -6.682   5.300 -32.187  1.00  0.00     0.031 A 
HETATM   23  C   UNL     1      -6.055   4.339 -31.380  1.00  0.00     0.053 A 
HETATM   24  C   UNL     1      -5.214   3.360 -31.927  1.00  0.00     0.036 A 
HETATM   25 CL   UNL     1      -4.512   2.178 -30.890  1.00  0.00    -0.084 Cl
HETATM   26  C   UNL     1      -4.952   3.326 -33.289  1.00  0.00     0.024 A 
HETATM   27  C   UNL     1      -5.529   4.287 -34.109  1.00  0.00     0.004 A 
HETATM   28  C   UNL     1      -6.376   5.259 -33.561  1.00  0.00     0.029 A 
ENDBRANCH  19  22
ENDBRANCH  14  15
ENDBRANCH  13  14
ENDBRANCH  12  13
ENDBRANCH   9  12
ENDBRANCH   5   8
BRANCH   1  29
HETATM   29  C   UNL     1      -9.091   2.961 -34.384  1.00  0.00     0.296 C 
BRANCH  29  30
HETATM   30  C   UNL     1      -8.337   1.836 -33.779  1.00  0.00     0.092 A 
HETATM   31  C   UNL     1      -8.244   1.481 -32.450  1.00  0.00     0.078 A 
HETATM   32  C   UNL     1      -8.793   2.005 -31.186  1.00  0.00     0.079 C 
HETATM   33  O   UNL     1      -7.449   0.379 -32.370  1.00  0.00    -0.294 OA
HETATM   34  C   UNL     1      -7.079   0.115 -33.663  1.00  0.00     0.180 A 
HETATM   35  N   UNL     1      -7.589   0.963 -34.546  1.00  0.00    -0.224 NA
BRANCH  34  36
HETATM   36  C   UNL     1      -6.222  -1.050 -33.865  1.00  0.00     0.019 A 
HETATM   37  C   UNL     1      -6.712  -2.162 -34.564  1.00  0.00     0.039 A 
HETATM   38  C   UNL     1      -5.907  -3.287 -34.753  1.00  0.00     0.035 A 
HETATM   39 CL   UNL     1      -6.536  -4.642 -35.605  1.00  0.00    -0.084 Cl
HETATM   40  C   UNL     1      -4.607  -3.322 -34.256  1.00  0.00     0.024 A 
HETATM   41  C   UNL     1      -4.106  -2.224 -33.561  1.00  0.00     0.003 A 
HETATM   42  C   UNL     1      -4.909  -1.096 -33.367  1.00  0.00     0.016 A 
ENDBRANCH  34  36
ENDBRANCH  29  30
ENDBRANCH   1  29
TORSDOF 9
ENDMDL
MODEL 7
REMARK VINA RESULT:      -9.0      3.399      7.613
REMARK  9 active torsions:
REMARK  status: ('A' for Active; 'I' for Inactive)
REMARK    1  A    between atoms: C_4  and  C_5 
REMARK    2  A    between atoms: C_13  and  C_14 
REMARK    3  A    between atoms: C_14  and  N_15 
REMARK    4  A    between atoms: C_19  and  C_20 
REMARK       I    between atoms: C_20  and  N_21 
REMARK    5  A    between atoms: N_21  and  C_22 
REMARK    6  A    between atoms: C_22  and  C_23 
REMARK    7  A    between atoms: C_23  and  C_24 
REMARK    8  A    between atoms: C_24  and  N_25 
REMARK    9  A    between atoms: N_29  and  C_30 
ROOT
HETATM    1  N   UNL     1     -13.422   3.773 -33.627  1.00  0.00    -0.066 N 
HETATM    2  H   UNL     1     -14.369   3.366 -33.664  1.00  0.00     0.280 HD
HETATM    3  C   UNL     1     -12.808   3.322 -32.327  1.00  0.00     0.236 C 
HETATM    4  C   UNL     1     -13.502   3.996 -31.144  1.00  0.00     0.042 C 
HETATM    5  C   UNL     1     -13.464   5.522 -31.250  1.00  0.00     0.081 C 
HETATM    6  C   UNL     1     -14.085   5.959 -32.578  1.00  0.00     0.042 C 
HETATM    7  C   UNL     1     -13.496   5.266 -33.799  1.00  0.00     0.236 C 
ENDROOT
BRANCH   5   8
HETATM    8  C   UNL     1     -12.020   5.994 -31.087  1.00  0.00     0.221 C 
HETATM    9  N   UNL     1     -11.290   5.305 -30.147  1.00  0.00    -0.361 N 
HETATM   10  H   UNL     1     -11.748   4.574 -29.607  1.00  0.00     0.162 HD
HETATM   11  O   UNL     1     -11.524   6.839 -31.826  1.00  0.00    -0.273 OA
BRANCH   9  12
HETATM   12  C   UNL     1      -9.840   5.369 -30.095  1.00  0.00     0.124 C 
BRANCH  12  13
HETATM   13  C   UNL     1      -9.133   4.524 -31.161  1.00  0.00     0.047 C 
BRANCH  13  14
HETATM   14  C   UNL     1      -8.055   5.359 -31.851  1.00  0.00     0.236 C 
BRANCH  14  15
HETATM   15  N   UNL     1      -6.973   4.502 -32.471  1.00  0.00    -0.068 N 
HETATM   16  H   UNL     1      -7.383   3.606 -32.769  1.00  0.00     0.280 HD
HETATM   17  C   UNL     1      -6.427   5.178 -33.748  1.00  0.00     0.254 C 
HETATM   18  C   UNL     1      -5.289   4.351 -34.383  1.00  0.00     0.150 C 
HETATM   19  N   UNL     1      -4.232   4.047 -33.402  1.00  0.00    -0.378 N 
HETATM   20  C   UNL     1      -4.726   3.343 -32.203  1.00  0.00     0.150 C 
HETATM   21  C   UNL     1      -5.821   4.180 -31.503  1.00  0.00     0.254 C 
BRANCH  19  22
HETATM   22  C   UNL     1      -3.138   4.900 -33.236  1.00  0.00     0.031 A 
HETATM   23  C   UNL     1      -2.117   4.674 -32.301  1.00  0.00     0.053 A 
HETATM   24  C   UNL     1      -1.031   5.552 -32.178  1.00  0.00     0.036 A 
HETATM   25 CL   UNL     1       0.216   5.195 -31.045  1.00  0.00    -0.084 Cl
HETATM   26  C   UNL     1      -0.943   6.692 -32.964  1.00  0.00     0.024 A 
HETATM   27  C   UNL     1      -1.958   6.962 -33.873  1.00  0.00     0.004 A 
HETATM   28  C   UNL     1      -3.038   6.079 -34.000  1.00  0.00     0.029 A 
ENDBRANCH  19  22
ENDBRANCH  14  15
ENDBRANCH  13  14
ENDBRANCH  12  13
ENDBRANCH   9  12
ENDBRANCH   5   8
BRANCH   1  29
HETATM   29  C   UNL     1     -12.707   3.169 -34.834  1.00  0.00     0.296 C 
BRANCH  29  30
HETATM   30  C   UNL     1     -11.259   2.905 -34.653  1.00  0.00     0.092 A 
HETATM   31  C   UNL     1     -10.214   3.803 -34.680  1.00  0.00     0.078 A 
HETATM   32  C   UNL     1     -10.088   5.258 -34.879  1.00  0.00     0.079 C 
HETATM   33  O   UNL     1      -9.064   3.107 -34.459  1.00  0.00    -0.294 OA
HETATM   34  C   UNL     1      -9.462   1.804 -34.317  1.00  0.00     0.180 A 
HETATM   35  N   UNL     1     -10.772   1.632 -34.424  1.00  0.00    -0.224 NA
BRANCH  34  36
HETATM   36  C   UNL     1      -8.406   0.832 -34.048  1.00  0.00     0.019 A 
HETATM   37  C   UNL     1      -7.855   0.740 -32.761  1.00  0.00     0.039 A 
HETATM   38  C   UNL     1      -6.836  -0.176 -32.494  1.00  0.00     0.035 A 
HETATM   39 CL   UNL     1      -6.171  -0.261 -30.910  1.00  0.00    -0.084 Cl
HETATM   40  C   UNL     1      -6.353  -1.014 -33.495  1.00  0.00     0.024 A 
HETATM   41  C   UNL     1      -6.892  -0.935 -34.777  1.00  0.00     0.003 A 
HETATM   42  C   UNL     1      -7.911  -0.018 -35.051  1.00  0.00     0.016 A 
ENDBRANCH  34  36
ENDBRANCH  29  30
ENDBRANCH   1  29
TORSDOF 9
ENDMDL
MODEL 8
REMARK VINA RESULT:      -8.9      1.557      2.216
REMARK  9 active torsions:
REMARK  status: ('A' for Active; 'I' for Inactive)
REMARK    1  A    between atoms: C_4  and  C_5 
REMARK    2  A    between atoms: C_13  and  C_14 
REMARK    3  A    between atoms: C_14  and  N_15 
REMARK    4  A    between atoms: C_19  and  C_20 
REMARK       I    between atoms: C_20  and  N_21 
REMARK    5  A    between atoms: N_21  and  C_22 
REMARK    6  A    between atoms: C_22  and  C_23 
REMARK    7  A    between atoms: C_23  and  C_24 
REMARK    8  A    between atoms: C_24  and  N_25 
REMARK    9  A    between atoms: N_29  and  C_30 
ROOT
HETATM    1  N   UNL     1      -2.842   3.915 -32.752  1.00  0.00    -0.066 N 
HETATM    2  H   UNL     1      -2.368   3.040 -33.027  1.00  0.00     0.280 HD
HETATM    3  C   UNL     1      -2.875   4.793 -33.977  1.00  0.00     0.236 C 
HETATM    4  C   UNL     1      -1.469   5.277 -34.326  1.00  0.00     0.042 C 
HETATM    5  C   UNL     1      -0.809   6.014 -33.160  1.00  0.00     0.081 C 
HETATM    6  C   UNL     1      -0.791   5.110 -31.927  1.00  0.00     0.042 C 
HETATM    7  C   UNL     1      -2.149   4.524 -31.564  1.00  0.00     0.236 C 
ENDROOT
BRANCH   5   8
HETATM    8  C   UNL     1      -1.551   7.328 -32.921  1.00  0.00     0.221 C 
HETATM    9  N   UNL     1      -1.871   7.580 -31.607  1.00  0.00    -0.361 N 
HETATM   10  H   UNL     1      -1.639   6.885 -30.902  1.00  0.00     0.162 HD
HETATM   11  O   UNL     1      -1.734   8.145 -33.819  1.00  0.00    -0.273 OA
BRANCH   9  12
HETATM   12  C   UNL     1      -2.254   8.903 -31.145  1.00  0.00     0.124 C 
BRANCH  12  13
HETATM   13  C   UNL     1      -3.710   9.009 -30.678  1.00  0.00     0.047 C 
BRANCH  13  14
HETATM   14  C   UNL     1      -4.474   7.746 -31.074  1.00  0.00     0.236 C 
BRANCH  14  15
HETATM   15  N   UNL     1      -5.441   7.298 -30.000  1.00  0.00    -0.068 N 
HETATM   16  H   UNL     1      -5.159   7.709 -29.100  1.00  0.00     0.280 HD
HETATM   17  C   UNL     1      -6.856   7.837 -30.302  1.00  0.00     0.254 C 
HETATM   18  C   UNL     1      -7.879   7.362 -29.248  1.00  0.00     0.150 C 
HETATM   19  N   UNL     1      -7.849   5.897 -29.092  1.00  0.00    -0.378 N 
HETATM   20  C   UNL     1      -6.516   5.368 -28.741  1.00  0.00     0.150 C 
HETATM   21  C   UNL     1      -5.480   5.770 -29.815  1.00  0.00     0.254 C 
BRANCH  19  22
HETATM   22  C   UNL     1      -8.679   5.074 -29.858  1.00  0.00     0.031 A 
HETATM   23  C   UNL     1      -8.366   3.746 -30.181  1.00  0.00     0.053 A 
HETATM   24  C   UNL     1      -9.236   2.953 -30.943  1.00  0.00     0.036 A 
HETATM   25 CL   UNL     1      -8.817   1.314 -31.266  1.00  0.00    -0.084 Cl
HETATM   26  C   UNL     1     -10.430   3.468 -31.425  1.00  0.00     0.024 A 
HETATM   27  C   UNL     1     -10.751   4.792 -31.152  1.00  0.00     0.004 A 
HETATM   28  C   UNL     1      -9.883   5.579 -30.384  1.00  0.00     0.029 A 
ENDBRANCH  19  22
ENDBRANCH  14  15
ENDBRANCH  13  14
ENDBRANCH  12  13
ENDBRANCH   9  12
ENDBRANCH   5   8
BRANCH   1  29
HETATM   29  C   UNL     1      -4.241   3.466 -32.335  1.00  0.00     0.296 C 
BRANCH  29  30
HETATM   30  C   UNL     1      -4.610   2.082 -32.720  1.00  0.00     0.092 A 
HETATM   31  C   UNL     1      -5.715   1.653 -33.422  1.00  0.00     0.078 A 
HETATM   32  C   UNL     1      -6.887   2.307 -34.033  1.00  0.00     0.079 C 
HETATM   33  O   UNL     1      -5.629   0.299 -33.544  1.00  0.00    -0.294 OA
HETATM   34  C   UNL     1      -4.472  -0.041 -32.894  1.00  0.00     0.180 A 
HETATM   35  N   UNL     1      -3.823   0.997 -32.383  1.00  0.00    -0.224 NA
BRANCH  34  36
HETATM   36  C   UNL     1      -4.126  -1.460 -32.889  1.00  0.00     0.019 A 
HETATM   37  C   UNL     1      -4.710  -2.322 -33.828  1.00  0.00     0.039 A 
HETATM   38  C   UNL     1      -4.398  -3.682 -33.827  1.00  0.00     0.035 A 
HETATM   39 CL   UNL     1      -5.137  -4.720 -34.982  1.00  0.00    -0.084 Cl
HETATM   40  C   UNL     1      -3.502  -4.205 -32.898  1.00  0.00     0.024 A 
HETATM   41  C   UNL     1      -2.912  -3.360 -31.962  1.00  0.00     0.003 A 
HETATM   42  C   UNL     1      -3.223  -1.997 -31.957  1.00  0.00     0.016 A 
ENDBRANCH  34  36
ENDBRANCH  29  30
ENDBRANCH   1  29
TORSDOF 9
ENDMDL
MODEL 9
REMARK VINA RESULT:      -8.8      3.957      8.084
REMARK  9 active torsions:
REMARK  status: ('A' for Active; 'I' for Inactive)
REMARK    1  A    between atoms: C_4  and  C_5 
REMARK    2  A    between atoms: C_13  and  C_14 
REMARK    3  A    between atoms: C_14  and  N_15 
REMARK    4  A    between atoms: C_19  and  C_20 
REMARK       I    between atoms: C_20  and  N_21 
REMARK    5  A    between atoms: N_21  and  C_22 
REMARK    6  A    between atoms: C_22  and  C_23 
REMARK    7  A    between atoms: C_23  and  C_24 
REMARK    8  A    between atoms: C_24  and  N_25 
REMARK    9  A    between atoms: N_29  and  C_30 
ROOT
HETATM    1  N   UNL     1      -2.236   5.385 -33.056  1.00  0.00    -0.066 N 
HETATM    2  H   UNL     1      -1.626   4.874 -33.712  1.00  0.00     0.280 HD
HETATM    3  C   UNL     1      -2.266   4.586 -31.779  1.00  0.00     0.236 C 
HETATM    4  C   UNL     1      -3.028   3.278 -31.984  1.00  0.00     0.042 C 
HETATM    5  C   UNL     1      -4.450   3.516 -32.497  1.00  0.00     0.081 C 
HETATM    6  C   UNL     1      -4.398   4.333 -33.788  1.00  0.00     0.042 C 
HETATM    7  C   UNL     1      -3.584   5.616 -33.682  1.00  0.00     0.236 C 
ENDROOT
BRANCH   5   8
HETATM    8  C   UNL     1      -5.266   4.195 -31.397  1.00  0.00     0.221 C 
HETATM    9  N   UNL     1      -6.182   5.118 -31.845  1.00  0.00    -0.361 N 
HETATM   10  H   UNL     1      -6.234   5.317 -32.842  1.00  0.00     0.162 HD
HETATM   11  O   UNL     1      -5.189   3.849 -30.222  1.00  0.00    -0.273 OA
BRANCH   9  12
HETATM   12  C   UNL     1      -7.266   5.600 -31.007  1.00  0.00     0.124 C 
BRANCH  12  13
HETATM   13  C   UNL     1      -8.567   4.800 -31.139  1.00  0.00     0.047 C 
BRANCH  13  14
HETATM   14  C   UNL     1      -8.750   4.345 -32.586  1.00  0.00     0.236 C 
BRANCH  14  15
HETATM   15  N   UNL     1      -9.131   2.884 -32.686  1.00  0.00    -0.068 N 
HETATM   16  H   UNL     1     -10.154   2.798 -32.623  1.00  0.00     0.280 HD
HETATM   17  C   UNL     1      -8.730   2.324 -34.068  1.00  0.00     0.254 C 
HETATM   18  C   UNL     1      -9.064   0.822 -34.189  1.00  0.00     0.150 C 
HETATM   19  N   UNL     1      -8.488   0.052 -33.073  1.00  0.00    -0.378 N 
HETATM   20  C   UNL     1      -8.910   0.533 -31.743  1.00  0.00     0.150 C 
HETATM   21  C   UNL     1      -8.527   2.019 -31.564  1.00  0.00     0.254 C 
BRANCH  19  22
HETATM   22  C   UNL     1      -7.213  -0.513 -33.170  1.00  0.00     0.031 A 
HETATM   23  C   UNL     1      -6.161  -0.204 -32.295  1.00  0.00     0.053 A 
HETATM   24  C   UNL     1      -4.901  -0.805 -32.424  1.00  0.00     0.036 A 
HETATM   25 CL   UNL     1      -3.665  -0.420 -31.289  1.00  0.00    -0.084 Cl
HETATM   26  C   UNL     1      -4.646  -1.711 -33.443  1.00  0.00     0.024 A 
HETATM   27  C   UNL     1      -5.656  -2.010 -34.348  1.00  0.00     0.004 A 
HETATM   28  C   UNL     1      -6.917  -1.414 -34.211  1.00  0.00     0.029 A 
ENDBRANCH  19  22
ENDBRANCH  14  15
ENDBRANCH  13  14
ENDBRANCH  12  13
ENDBRANCH   9  12
ENDBRANCH   5   8
BRANCH   1  29
HETATM   29  C   UNL     1      -1.538   6.731 -32.870  1.00  0.00     0.296 C 
BRANCH  29  30
HETATM   30  C   UNL     1      -1.604   7.300 -31.502  1.00  0.00     0.092 A 
HETATM   31  C   UNL     1      -2.693   7.834 -30.847  1.00  0.00     0.078 A 
HETATM   32  C   UNL     1      -4.113   8.050 -31.179  1.00  0.00     0.079 C 
HETATM   33  O   UNL     1      -2.281   8.225 -29.609  1.00  0.00    -0.294 OA
HETATM   34  C   UNL     1      -0.946   7.921 -29.568  1.00  0.00     0.180 A 
HETATM   35  N   UNL     1      -0.493   7.362 -30.682  1.00  0.00    -0.224 NA
BRANCH  34  36
HETATM   36  C   UNL     1      -0.251   8.228 -28.321  1.00  0.00     0.019 A 
HETATM   37  C   UNL     1      -0.987   8.599 -27.187  1.00  0.00     0.039 A 
HETATM   38  C   UNL     1      -0.334   8.907 -25.992  1.00  0.00     0.035 A 
HETATM   39 CL   UNL     1      -1.259   9.369 -24.618  1.00  0.00    -0.084 Cl
HETATM   40  C   UNL     1       1.055   8.848 -25.905  1.00  0.00     0.024 A 
HETATM   41  C   UNL     1       1.798   8.479 -27.023  1.00  0.00     0.003 A 
HETATM   42  C   UNL     1       1.149   8.172 -28.223  1.00  0.00     0.016 A 
ENDBRANCH  34  36
ENDBRANCH  29  30
ENDBRANCH   1  29
TORSDOF 9
ENDMDL
MODEL 10
REMARK VINA RESULT:      -8.8      2.773      4.872
REMARK  9 active torsions:
REMARK  status: ('A' for Active; 'I' for Inactive)
REMARK    1  A    between atoms: C_4  and  C_5 
REMARK    2  A    between atoms: C_13  and  C_14 
REMARK    3  A    between atoms: C_14  and  N_15 
REMARK    4  A    between atoms: C_19  and  C_20 
REMARK       I    between atoms: C_20  and  N_21 
REMARK    5  A    between atoms: N_21  and  C_22 
REMARK    6  A    between atoms: C_22  and  C_23 
REMARK    7  A    between atoms: C_23  and  C_24 
REMARK    8  A    between atoms: C_24  and  N_25 
REMARK    9  A    between atoms: N_29  and  C_30 
ROOT
HETATM    1  N   UNL     1      -6.853   3.289 -31.405  1.00  0.00    -0.066 N 
HETATM    2  H   UNL     1      -6.373   2.567 -30.846  1.00  0.00     0.280 HD
HETATM    3  C   UNL     1      -6.206   4.605 -31.060  1.00  0.00     0.236 C 
HETATM    4  C   UNL     1      -6.553   5.014 -29.629  1.00  0.00     0.042 C 
HETATM    5  C   UNL     1      -8.064   5.088 -29.404  1.00  0.00     0.081 C 
HETATM    6  C   UNL     1      -8.702   3.746 -29.765  1.00  0.00     0.042 C 
HETATM    7  C   UNL     1      -8.335   3.235 -31.152  1.00  0.00     0.236 C 
ENDROOT
BRANCH   5   8
HETATM    8  C   UNL     1      -8.629   6.252 -30.217  1.00  0.00     0.221 C 
HETATM    9  N   UNL     1      -9.949   6.116 -30.578  1.00  0.00    -0.361 N 
HETATM   10  H   UNL     1     -10.443   5.263 -30.327  1.00  0.00     0.162 HD
HETATM   11  O   UNL     1      -7.986   7.278 -30.420  1.00  0.00    -0.273 OA
BRANCH   9  12
HETATM   12  C   UNL     1     -10.744   7.241 -31.038  1.00  0.00     0.124 C 
BRANCH  12  13
HETATM   13  C   UNL     1     -11.945   6.851 -31.906  1.00  0.00     0.047 C 
BRANCH  13  14
HETATM   14  C   UNL     1     -11.872   7.578 -33.248  1.00  0.00     0.236 C 
BRANCH  14  15
HETATM   15  N   UNL     1     -11.742   6.623 -34.414  1.00  0.00    -0.068 N 
HETATM   16  H   UNL     1     -11.553   7.162 -35.271  1.00  0.00     0.280 HD
HETATM   17  C   UNL     1     -10.527   5.693 -34.206  1.00  0.00     0.254 C 
HETATM   18  C   UNL     1     -10.390   4.675 -35.358  1.00  0.00     0.150 C 
HETATM   19  N   UNL     1     -11.646   3.933 -35.572  1.00  0.00    -0.378 N 
HETATM   20  C   UNL     1     -12.807   4.804 -35.836  1.00  0.00     0.150 C 
HETATM   21  C   UNL     1     -13.013   5.792 -34.666  1.00  0.00     0.254 C 
BRANCH  19  22
HETATM   22  C   UNL     1     -11.891   2.727 -34.911  1.00  0.00     0.031 A 
HETATM   23  C   UNL     1     -10.903   2.009 -34.221  1.00  0.00     0.053 A 
HETATM   24  C   UNL     1     -11.198   0.808 -33.561  1.00  0.00     0.036 A 
HETATM   25 CL   UNL     1      -9.953  -0.003 -32.692  1.00  0.00    -0.084 Cl
HETATM   26  C   UNL     1     -12.479   0.275 -33.590  1.00  0.00     0.024 A 
HETATM   27  C   UNL     1     -13.470   0.944 -34.296  1.00  0.00     0.004 A 
HETATM   28  C   UNL     1     -13.174   2.149 -34.948  1.00  0.00     0.029 A 
ENDBRANCH  19  22
ENDBRANCH  14  15
ENDBRANCH  13  14
ENDBRANCH  12  13
ENDBRANCH   9  12
ENDBRANCH   5   8
BRANCH   1  29
HETATM   29  C   UNL     1      -6.582   2.882 -32.852  1.00  0.00     0.296 C 
BRANCH  29  30
HETATM   30  C   UNL     1      -5.870   1.593 -33.030  1.00  0.00     0.092 A 
HETATM   31  C   UNL     1      -4.563   1.285 -32.720  1.00  0.00     0.078 A 
HETATM   32  C   UNL     1      -3.424   2.017 -32.138  1.00  0.00     0.079 C 
HETATM   33  O   UNL     1      -4.355  -0.020 -33.052  1.00  0.00    -0.294 OA
HETATM   34  C   UNL     1      -5.551  -0.449 -33.565  1.00  0.00     0.180 A 
HETATM   35  N   UNL     1      -6.494   0.484 -33.572  1.00  0.00    -0.224 NA
BRANCH  34  36
HETATM   36  C   UNL     1      -5.608  -1.845 -33.990  1.00  0.00     0.019 A 
HETATM   37  C   UNL     1      -4.489  -2.672 -33.817  1.00  0.00     0.039 A 
HETATM   38  C   UNL     1      -4.526  -4.004 -34.230  1.00  0.00     0.035 A 
HETATM   39 CL   UNL     1      -3.137  -4.995 -34.017  1.00  0.00    -0.084 Cl
HETATM   40  C   UNL     1      -5.673  -4.535 -34.816  1.00  0.00     0.024 A 
HETATM   41  C   UNL     1      -6.793  -3.726 -34.991  1.00  0.00     0.003 A 
HETATM   42  C   UNL     1      -6.760  -2.390 -34.582  1.00  0.00     0.016 A 
ENDBRANCH  34  36
ENDBRANCH  29  30
ENDBRANCH   1  29
TORSDOF 9
ENDMDL
