MODEL 1
REMARK VINA RESULT:     -10.2      0.000      0.000
REMARK  7 active torsions:
REMARK  status: ('A' for Active; 'I' for Inactive)
REMARK    1  A    between atoms: C_2  and  C_3 
REMARK    2  A    between atoms: C_3  and  C_4 
REMARK    3  A    between atoms: C_4  and  N_5 
REMARK       I    between atoms: N_5  and  C_6 
REMARK    4  A    between atoms: C_6  and  C_7 
REMARK    5  A    between atoms: C_8  and  N_9 
REMARK    6  A    between atoms: N_10  and  N_11 
REMARK    7  A    between atoms: C_12  and  C_13 
ROOT
HETATM    1  C   UNL     1      -4.992   1.125 -32.258  1.00  0.00     0.104 C 
HETATM    2  C   UNL     1      -6.248   1.721 -32.224  1.00  0.00     0.123 C 
HETATM    3  N   UNL     1      -7.023   1.097 -33.203  1.00  0.00    -0.202 N 
HETATM    4  C   UNL     1      -6.493  -0.163 -33.397  1.00  0.00     0.183 A 
HETATM    5  C   UNL     1      -5.195  -0.138 -32.885  1.00  0.00     0.124 A 
HETATM    6  N   UNL     1      -4.358  -1.192 -33.063  1.00  0.00    -0.242 NA
HETATM    7  C   UNL     1      -4.900  -2.246 -33.696  1.00  0.00     0.086 A 
HETATM    8  C   UNL     1      -6.237  -2.251 -34.180  1.00  0.00     0.088 A 
HETATM    9  N   UNL     1      -7.055  -1.194 -34.068  1.00  0.00    -0.225 NA
HETATM   10  C   UNL     1      -4.122  -3.382 -33.878  1.00  0.00     0.034 A 
HETATM   11  C   UNL     1      -4.624  -4.524 -34.505  1.00  0.00     0.002 A 
HETATM   12  C   UNL     1      -5.933  -4.531 -34.964  1.00  0.00     0.002 A 
HETATM   13  C   UNL     1      -6.725  -3.395 -34.800  1.00  0.00     0.034 A 
ENDROOT
BRANCH   3  14
HETATM   14  N   UNL     1      -8.071   1.643 -33.911  1.00  0.00    -0.176 NA
HETATM   15  C   UNL     1      -9.221   1.322 -33.414  1.00  0.00     0.153 C 
BRANCH  15  16
HETATM   16  C   UNL     1     -10.462   1.816 -33.963  1.00  0.00     0.011 A 
HETATM   17  C   UNL     1     -11.724   1.143 -33.915  1.00  0.00     0.004 A 
HETATM   18  C   UNL     1     -12.678   2.013 -34.441  1.00  0.00     0.043 A 
HETATM   19  C   UNL     1     -12.145  -0.127 -33.459  1.00  0.00     0.014 A 
HETATM   20  C   UNL     1     -14.039   1.687 -34.510  1.00  0.00     0.030 A 
HETATM   21  N   UNL     1     -12.014   3.155 -34.826  1.00  0.00    -0.364 N 
HETATM   22  C   UNL     1     -14.429   0.425 -34.050  1.00  0.00     0.002 A 
HETATM   23  C   UNL     1     -13.498  -0.475 -33.538  1.00  0.00     0.001 A 
HETATM   24  H   UNL     1     -12.458   3.967 -35.232  1.00  0.00     0.165 HD
HETATM   25  C   UNL     1     -10.675   3.039 -34.563  1.00  0.00     0.102 A 
ENDBRANCH  15  16
ENDBRANCH   3  14
BRANCH   2  26
HETATM   26  N   UNL     1      -6.707   2.802 -31.516  1.00  0.00    -0.286 NA
HETATM   27  H   UNL     1      -6.889   2.651 -30.520  1.00  0.00     0.125 HD
HETATM   28  H   UNL     1      -7.498   3.309 -31.927  1.00  0.00     0.125 HD
ENDBRANCH   2  26
BRANCH   1  29
HETATM   29  C   UNL     1      -3.759   1.724 -31.761  1.00  0.00     0.257 C 
HETATM   30  N   UNL     1      -3.714   3.087 -31.992  1.00  0.00    -0.357 N 
HETATM   31  H   UNL     1      -4.492   3.468 -32.521  1.00  0.00     0.162 HD
HETATM   32  O   UNL     1      -2.827   1.097 -31.276  1.00  0.00    -0.267 OA
BRANCH  30  33
HETATM   33  C   UNL     1      -2.510   3.886 -31.925  1.00  0.00     0.123 C 
BRANCH  33  34
HETATM   34  C   UNL     1      -2.663   5.096 -32.848  1.00  0.00     0.023 C 
BRANCH  34  35
HETATM   35  C   UNL     1      -2.438   4.804 -34.338  1.00  0.00    -0.021 C 
HETATM   36  C   UNL     1      -1.184   5.489 -34.876  1.00  0.00     0.009 C 
HETATM   37  C   UNL     1      -3.664   5.258 -35.138  1.00  0.00     0.009 C 
ENDBRANCH  34  35
ENDBRANCH  33  34
ENDBRANCH  30  33
ENDBRANCH   1  29
TORSDOF 7
ENDMDL
MODEL 2
REMARK VINA RESULT:     -10.1      1.802      7.999
REMARK  7 active torsions:
REMARK  status: ('A' for Active; 'I' for Inactive)
REMARK    1  A    between atoms: C_2  and  C_3 
REMARK    2  A    between atoms: C_3  and  C_4 
REMARK    3  A    between atoms: C_4  and  N_5 
REMARK       I    between atoms: N_5  and  C_6 
REMARK    4  A    between atoms: C_6  and  C_7 
REMARK    5  A    between atoms: C_8  and  N_9 
REMARK    6  A    between atoms: N_10  and  N_11 
REMARK    7  A    between atoms: C_12  and  C_13 
ROOT
HETATM    1  C   UNL     1      -8.192   0.849 -33.791  1.00  0.00     0.104 C 
HETATM    2  C   UNL     1      -7.301   1.903 -33.619  1.00  0.00     0.123 C 
HETATM    3  N   UNL     1      -6.093   1.352 -33.190  1.00  0.00    -0.202 N 
HETATM    4  C   UNL     1      -6.060   0.047 -33.642  1.00  0.00     0.183 A 
HETATM    5  C   UNL     1      -7.375  -0.308 -33.944  1.00  0.00     0.124 A 
HETATM    6  N   UNL     1      -7.689  -1.587 -34.273  1.00  0.00    -0.242 NA
HETATM    7  C   UNL     1      -6.644  -2.428 -34.342  1.00  0.00     0.086 A 
HETATM    8  C   UNL     1      -5.310  -2.027 -34.057  1.00  0.00     0.088 A 
HETATM    9  N   UNL     1      -4.993  -0.783 -33.669  1.00  0.00    -0.225 NA
HETATM   10  C   UNL     1      -6.877  -3.746 -34.717  1.00  0.00     0.034 A 
HETATM   11  C   UNL     1      -5.839  -4.671 -34.834  1.00  0.00     0.002 A 
HETATM   12  C   UNL     1      -4.537  -4.273 -34.568  1.00  0.00     0.002 A 
HETATM   13  C   UNL     1      -4.287  -2.957 -34.180  1.00  0.00     0.034 A 
ENDROOT
BRANCH   3  14
HETATM   14  N   UNL     1      -5.137   1.950 -32.399  1.00  0.00    -0.176 NA
HETATM   15  C   UNL     1      -4.353   2.726 -33.075  1.00  0.00     0.153 C 
BRANCH  15  16
HETATM   16  C   UNL     1      -3.304   3.494 -32.448  1.00  0.00     0.011 A 
HETATM   17  C   UNL     1      -2.510   4.501 -33.086  1.00  0.00     0.004 A 
HETATM   18  C   UNL     1      -1.709   5.081 -32.103  1.00  0.00     0.043 A 
HETATM   19  C   UNL     1      -2.409   4.980 -34.411  1.00  0.00     0.014 A 
HETATM   20  C   UNL     1      -0.829   6.136 -32.374  1.00  0.00     0.030 A 
HETATM   21  N   UNL     1      -1.980   4.426 -30.923  1.00  0.00    -0.364 N 
HETATM   22  C   UNL     1      -0.750   6.595 -33.694  1.00  0.00     0.002 A 
HETATM   23  C   UNL     1      -1.521   6.022 -34.702  1.00  0.00     0.001 A 
HETATM   24  H   UNL     1      -1.552   4.646 -30.034  1.00  0.00     0.165 HD
HETATM   25  C   UNL     1      -2.924   3.454 -31.124  1.00  0.00     0.102 A 
ENDBRANCH  15  16
ENDBRANCH   3  14
BRANCH   2  26
HETATM   26  N   UNL     1      -7.496   3.259 -33.689  1.00  0.00    -0.286 NA
HETATM   27  H   UNL     1      -7.503   3.671 -34.626  1.00  0.00     0.125 HD
HETATM   28  H   UNL     1      -6.906   3.833 -33.077  1.00  0.00     0.125 HD
ENDBRANCH   2  26
BRANCH   1  29
HETATM   29  C   UNL     1      -9.646   0.961 -33.783  1.00  0.00     0.257 C 
HETATM   30  N   UNL     1     -10.097   1.925 -34.666  1.00  0.00    -0.357 N 
HETATM   31  H   UNL     1      -9.375   2.458 -35.140  1.00  0.00     0.162 HD
HETATM   32  O   UNL     1     -10.387   0.346 -33.028  1.00  0.00    -0.267 OA
BRANCH  30  33
HETATM   33  C   UNL     1     -11.427   2.494 -34.642  1.00  0.00     0.123 C 
BRANCH  33  34
HETATM   34  C   UNL     1     -12.408   1.491 -35.253  1.00  0.00     0.023 C 
BRANCH  34  35
HETATM   35  C   UNL     1     -13.686   1.258 -34.435  1.00  0.00    -0.021 C 
HETATM   36  C   UNL     1     -13.852   2.290 -33.322  1.00  0.00     0.009 C 
HETATM   37  C   UNL     1     -13.660  -0.153 -33.838  1.00  0.00     0.009 C 
ENDBRANCH  34  35
ENDBRANCH  33  34
ENDBRANCH  30  33
ENDBRANCH   1  29
TORSDOF 7
ENDMDL
MODEL 3
REMARK VINA RESULT:      -9.4      1.718      2.572
REMARK  7 active torsions:
REMARK  status: ('A' for Active; 'I' for Inactive)
REMARK    1  A    between atoms: C_2  and  C_3 
REMARK    2  A    between atoms: C_3  and  C_4 
REMARK    3  A    between atoms: C_4  and  N_5 
REMARK       I    between atoms: N_5  and  C_6 
REMARK    4  A    between atoms: C_6  and  C_7 
REMARK    5  A    between atoms: C_8  and  N_9 
REMARK    6  A    between atoms: N_10  and  N_11 
REMARK    7  A    between atoms: C_12  and  C_13 
ROOT
HETATM    1  C   UNL     1      -6.238   1.875 -31.493  1.00  0.00     0.104 C 
HETATM    2  C   UNL     1      -7.591   2.016 -31.202  1.00  0.00     0.123 C 
HETATM    3  N   UNL     1      -8.294   1.294 -32.167  1.00  0.00    -0.202 N 
HETATM    4  C   UNL     1      -7.445   0.311 -32.636  1.00  0.00     0.183 A 
HETATM    5  C   UNL     1      -6.150   0.700 -32.293  1.00  0.00     0.124 A 
HETATM    6  N   UNL     1      -5.074   0.008 -32.751  1.00  0.00    -0.242 NA
HETATM    7  C   UNL     1      -5.369  -1.081 -33.479  1.00  0.00     0.086 A 
HETATM    8  C   UNL     1      -6.702  -1.467 -33.786  1.00  0.00     0.088 A 
HETATM    9  N   UNL     1      -7.772  -0.759 -33.395  1.00  0.00    -0.225 NA
HETATM   10  C   UNL     1      -4.324  -1.868 -33.946  1.00  0.00     0.034 A 
HETATM   11  C   UNL     1      -4.552  -3.028 -34.689  1.00  0.00     0.002 A 
HETATM   12  C   UNL     1      -5.855  -3.410 -34.974  1.00  0.00     0.002 A 
HETATM   13  C   UNL     1      -6.915  -2.625 -34.523  1.00  0.00     0.034 A 
ENDROOT
BRANCH   3  14
HETATM   14  N   UNL     1      -9.565   1.546 -32.636  1.00  0.00    -0.176 NA
HETATM   15  C   UNL     1      -9.575   2.431 -33.580  1.00  0.00     0.153 C 
BRANCH  15  16
HETATM   16  C   UNL     1     -10.791   2.821 -34.255  1.00  0.00     0.011 A 
HETATM   17  C   UNL     1     -11.175   4.163 -34.574  1.00  0.00     0.004 A 
HETATM   18  C   UNL     1     -12.344   4.090 -35.331  1.00  0.00     0.043 A 
HETATM   19  C   UNL     1     -10.628   5.435 -34.296  1.00  0.00     0.014 A 
HETATM   20  C   UNL     1     -12.979   5.226 -35.848  1.00  0.00     0.030 A 
HETATM   21  N   UNL     1     -12.674   2.758 -35.436  1.00  0.00    -0.364 N 
HETATM   22  C   UNL     1     -12.415   6.474 -35.561  1.00  0.00     0.002 A 
HETATM   23  C   UNL     1     -11.261   6.582 -34.790  1.00  0.00     0.001 A 
HETATM   24  H   UNL     1     -13.473   2.404 -35.944  1.00  0.00     0.165 HD
HETATM   25  C   UNL     1     -11.756   1.986 -34.774  1.00  0.00     0.102 A 
ENDBRANCH  15  16
ENDBRANCH   3  14
BRANCH   2  26
HETATM   26  N   UNL     1      -8.229   2.794 -30.270  1.00  0.00    -0.286 NA
HETATM   27  H   UNL     1      -8.085   2.540 -29.289  1.00  0.00     0.125 HD
HETATM   28  H   UNL     1      -9.228   2.961 -30.428  1.00  0.00     0.125 HD
ENDBRANCH   2  26
BRANCH   1  29
HETATM   29  C   UNL     1      -5.181   2.782 -31.061  1.00  0.00     0.257 C 
HETATM   30  N   UNL     1      -4.209   2.946 -32.031  1.00  0.00    -0.357 N 
HETATM   31  H   UNL     1      -4.320   2.378 -32.864  1.00  0.00     0.162 HD
HETATM   32  O   UNL     1      -5.103   3.277 -29.944  1.00  0.00    -0.267 OA
BRANCH  30  33
HETATM   33  C   UNL     1      -2.896   3.500 -31.782  1.00  0.00     0.123 C 
BRANCH  33  34
HETATM   34  C   UNL     1      -2.756   4.814 -32.553  1.00  0.00     0.023 C 
BRANCH  34  35
HETATM   35  C   UNL     1      -2.593   4.657 -34.072  1.00  0.00    -0.021 C 
HETATM   36  C   UNL     1      -1.345   5.365 -34.592  1.00  0.00     0.009 C 
HETATM   37  C   UNL     1      -3.837   5.207 -34.778  1.00  0.00     0.009 C 
ENDBRANCH  34  35
ENDBRANCH  33  34
ENDBRANCH  30  33
ENDBRANCH   1  29
TORSDOF 7
ENDMDL
MODEL 4
REMARK VINA RESULT:      -9.3      2.125      7.941
REMARK  7 active torsions:
REMARK  status: ('A' for Active; 'I' for Inactive)
REMARK    1  A    between atoms: C_2  and  C_3 
REMARK    2  A    between atoms: C_3  and  C_4 
REMARK    3  A    between atoms: C_4  and  N_5 
REMARK       I    between atoms: N_5  and  C_6 
REMARK    4  A    between atoms: C_6  and  C_7 
REMARK    5  A    between atoms: C_8  and  N_9 
REMARK    6  A    between atoms: N_10  and  N_11 
REMARK    7  A    between atoms: C_12  and  C_13 
ROOT
HETATM    1  C   UNL     1      -6.642   3.856 -32.522  1.00  0.00     0.104 C 
HETATM    2  C   UNL     1      -6.665   2.704 -31.744  1.00  0.00     0.123 C 
HETATM    3  N   UNL     1      -5.348   2.251 -31.647  1.00  0.00    -0.202 N 
HETATM    4  C   UNL     1      -4.528   3.347 -31.829  1.00  0.00     0.183 A 
HETATM    5  C   UNL     1      -5.301   4.329 -32.449  1.00  0.00     0.124 A 
HETATM    6  N   UNL     1      -4.732   5.478 -32.898  1.00  0.00    -0.242 NA
HETATM    7  C   UNL     1      -3.420   5.601 -32.637  1.00  0.00     0.086 A 
HETATM    8  C   UNL     1      -2.667   4.593 -31.975  1.00  0.00     0.088 A 
HETATM    9  N   UNL     1      -3.201   3.426 -31.584  1.00  0.00    -0.225 NA
HETATM   10  C   UNL     1      -2.775   6.769 -33.023  1.00  0.00     0.034 A 
HETATM   11  C   UNL     1      -1.419   6.979 -32.765  1.00  0.00     0.002 A 
HETATM   12  C   UNL     1      -0.690   5.999 -32.107  1.00  0.00     0.002 A 
HETATM   13  C   UNL     1      -1.320   4.816 -31.722  1.00  0.00     0.034 A 
ENDROOT
BRANCH   3  14
HETATM   14  N   UNL     1      -4.923   0.951 -31.480  1.00  0.00    -0.176 NA
HETATM   15  C   UNL     1      -4.892   0.296 -32.595  1.00  0.00     0.153 C 
BRANCH  15  16
HETATM   16  C   UNL     1      -4.436  -1.072 -32.671  1.00  0.00     0.011 A 
HETATM   17  C   UNL     1      -4.992  -2.093 -33.506  1.00  0.00     0.004 A 
HETATM   18  C   UNL     1      -4.184  -3.222 -33.374  1.00  0.00     0.043 A 
HETATM   19  C   UNL     1      -6.105  -2.156 -34.374  1.00  0.00     0.014 A 
HETATM   20  C   UNL     1      -4.418  -4.405 -34.087  1.00  0.00     0.030 A 
HETATM   21  N   UNL     1      -3.198  -2.908 -32.466  1.00  0.00    -0.364 N 
HETATM   22  C   UNL     1      -5.525  -4.440 -34.941  1.00  0.00     0.002 A 
HETATM   23  C   UNL     1      -6.364  -3.337 -35.080  1.00  0.00     0.001 A 
HETATM   24  H   UNL     1      -2.458  -3.536 -32.183  1.00  0.00     0.165 HD
HETATM   25  C   UNL     1      -3.352  -1.622 -32.020  1.00  0.00     0.102 A 
ENDBRANCH  15  16
ENDBRANCH   3  14
BRANCH   2  26
HETATM   26  N   UNL     1      -7.718   1.985 -31.239  1.00  0.00    -0.286 NA
HETATM   27  H   UNL     1      -7.569   1.535 -30.331  1.00  0.00     0.125 HD
HETATM   28  H   UNL     1      -8.153   1.311 -31.877  1.00  0.00     0.125 HD
ENDBRANCH   2  26
BRANCH   1  29
HETATM   29  C   UNL     1      -7.779   4.404 -33.254  1.00  0.00     0.257 C 
HETATM   30  N   UNL     1      -8.986   4.023 -32.697  1.00  0.00    -0.357 N 
HETATM   31  H   UNL     1      -8.926   3.377 -31.917  1.00  0.00     0.162 HD
HETATM   32  O   UNL     1      -7.693   5.050 -34.289  1.00  0.00    -0.267 OA
BRANCH  30  33
HETATM   33  C   UNL     1     -10.262   4.121 -33.374  1.00  0.00     0.123 C 
BRANCH  33  34
HETATM   34  C   UNL     1     -10.447   2.893 -34.267  1.00  0.00     0.023 C 
BRANCH  34  35
HETATM   35  C   UNL     1     -11.265   1.756 -33.639  1.00  0.00    -0.021 C 
HETATM   36  C   UNL     1     -10.396   0.554 -33.276  1.00  0.00     0.009 C 
HETATM   37  C   UNL     1     -12.370   1.325 -34.611  1.00  0.00     0.009 C 
ENDBRANCH  34  35
ENDBRANCH  33  34
ENDBRANCH  30  33
ENDBRANCH   1  29
TORSDOF 7
ENDMDL
MODEL 5
REMARK VINA RESULT:      -9.1      1.703      2.248
REMARK  7 active torsions:
REMARK  status: ('A' for Active; 'I' for Inactive)
REMARK    1  A    between atoms: C_2  and  C_3 
REMARK    2  A    between atoms: C_3  and  C_4 
REMARK    3  A    between atoms: C_4  and  N_5 
REMARK       I    between atoms: N_5  and  C_6 
REMARK    4  A    between atoms: C_6  and  C_7 
REMARK    5  A    between atoms: C_8  and  N_9 
REMARK    6  A    between atoms: N_10  and  N_11 
REMARK    7  A    between atoms: C_12  and  C_13 
ROOT
HETATM    1  C   UNL     1      -6.336   3.306 -31.198  1.00  0.00     0.104 C 
HETATM    2  C   UNL     1      -7.640   3.291 -30.714  1.00  0.00     0.123 C 
HETATM    3  N   UNL     1      -8.344   2.350 -31.467  1.00  0.00    -0.202 N 
HETATM    4  C   UNL     1      -7.421   1.443 -31.949  1.00  0.00     0.183 A 
HETATM    5  C   UNL     1      -6.171   2.057 -31.863  1.00  0.00     0.124 A 
HETATM    6  N   UNL     1      -5.072   1.471 -32.403  1.00  0.00    -0.242 NA
HETATM    7  C   UNL     1      -5.284   0.260 -32.947  1.00  0.00     0.086 A 
HETATM    8  C   UNL     1      -6.567  -0.351 -32.991  1.00  0.00     0.088 A 
HETATM    9  N   UNL     1      -7.672   0.244 -32.519  1.00  0.00    -0.225 NA
HETATM   10  C   UNL     1      -4.200  -0.426 -33.480  1.00  0.00     0.034 A 
HETATM   11  C   UNL     1      -4.339  -1.697 -34.040  1.00  0.00     0.002 A 
HETATM   12  C   UNL     1      -5.589  -2.297 -34.069  1.00  0.00     0.002 A 
HETATM   13  C   UNL     1      -6.690  -1.618 -33.548  1.00  0.00     0.034 A 
ENDROOT
BRANCH   3  14
HETATM   14  N   UNL     1      -9.692   2.350 -31.753  1.00  0.00    -0.176 NA
HETATM   15  C   UNL     1      -9.945   2.825 -32.929  1.00  0.00     0.153 C 
BRANCH  15  16
HETATM   16  C   UNL     1     -11.285   2.882 -33.464  1.00  0.00     0.011 A 
HETATM   17  C   UNL     1     -12.170   1.768 -33.621  1.00  0.00     0.004 A 
HETATM   18  C   UNL     1     -13.399   2.271 -34.046  1.00  0.00     0.043 A 
HETATM   19  C   UNL     1     -12.041   0.374 -33.427  1.00  0.00     0.014 A 
HETATM   20  C   UNL     1     -14.515   1.453 -34.264  1.00  0.00     0.030 A 
HETATM   21  N   UNL     1     -13.253   3.634 -34.177  1.00  0.00    -0.364 N 
HETATM   22  C   UNL     1     -14.361   0.077 -34.062  1.00  0.00     0.002 A 
HETATM   23  C   UNL     1     -13.141  -0.459 -33.657  1.00  0.00     0.001 A 
HETATM   24  H   UNL     1     -13.990   4.264 -34.461  1.00  0.00     0.165 HD
HETATM   25  C   UNL     1     -11.978   4.010 -33.849  1.00  0.00     0.102 A 
ENDBRANCH  15  16
ENDBRANCH   3  14
BRANCH   2  26
HETATM   26  N   UNL     1      -8.259   4.090 -29.788  1.00  0.00    -0.286 NA
HETATM   27  H   UNL     1      -9.282   4.130 -29.832  1.00  0.00     0.125 HD
HETATM   28  H   UNL     1      -7.893   5.043 -29.695  1.00  0.00     0.125 HD
ENDBRANCH   2  26
BRANCH   1  29
HETATM   29  C   UNL     1      -5.391   4.406 -31.046  1.00  0.00     0.257 C 
HETATM   30  N   UNL     1      -4.805   4.757 -32.249  1.00  0.00    -0.357 N 
HETATM   31  H   UNL     1      -5.052   4.177 -33.044  1.00  0.00     0.162 HD
HETATM   32  O   UNL     1      -5.076   4.909 -29.976  1.00  0.00    -0.267 OA
BRANCH  30  33
HETATM   33  C   UNL     1      -3.608   5.561 -32.368  1.00  0.00     0.123 C 
BRANCH  33  34
HETATM   34  C   UNL     1      -2.416   4.641 -32.642  1.00  0.00     0.023 C 
BRANCH  34  35
HETATM   35  C   UNL     1      -1.232   5.313 -33.351  1.00  0.00    -0.021 C 
HETATM   36  C   UNL     1      -1.057   6.768 -32.924  1.00  0.00     0.009 C 
HETATM   37  C   UNL     1      -1.434   5.235 -34.868  1.00  0.00     0.009 C 
ENDBRANCH  34  35
ENDBRANCH  33  34
ENDBRANCH  30  33
ENDBRANCH   1  29
TORSDOF 7
ENDMDL
MODEL 6
REMARK VINA RESULT:      -9.1      2.555      8.507
REMARK  7 active torsions:
REMARK  status: ('A' for Active; 'I' for Inactive)
REMARK    1  A    between atoms: C_2  and  C_3 
REMARK    2  A    between atoms: C_3  and  C_4 
REMARK    3  A    between atoms: C_4  and  N_5 
REMARK       I    between atoms: N_5  and  C_6 
REMARK    4  A    between atoms: C_6  and  C_7 
REMARK    5  A    between atoms: C_8  and  N_9 
REMARK    6  A    between atoms: N_10  and  N_11 
REMARK    7  A    between atoms: C_12  and  C_13 
ROOT
HETATM    1  C   UNL     1      -8.420   2.957 -33.884  1.00  0.00     0.104 C 
HETATM    2  C   UNL     1      -7.611   3.991 -33.422  1.00  0.00     0.123 C 
HETATM    3  N   UNL     1      -6.550   3.402 -32.732  1.00  0.00    -0.202 N 
HETATM    4  C   UNL     1      -6.392   2.129 -33.243  1.00  0.00     0.183 A 
HETATM    5  C   UNL     1      -7.582   1.805 -33.895  1.00  0.00     0.124 A 
HETATM    6  N   UNL     1      -7.792   0.552 -34.375  1.00  0.00    -0.242 NA
HETATM    7  C   UNL     1      -6.758  -0.292 -34.226  1.00  0.00     0.086 A 
HETATM    8  C   UNL     1      -5.546   0.078 -33.582  1.00  0.00     0.088 A 
HETATM    9  N   UNL     1      -5.348   1.292 -33.047  1.00  0.00    -0.225 NA
HETATM   10  C   UNL     1      -6.877  -1.581 -34.732  1.00  0.00     0.034 A 
HETATM   11  C   UNL     1      -5.836  -2.506 -34.636  1.00  0.00     0.002 A 
HETATM   12  C   UNL     1      -4.650  -2.138 -34.020  1.00  0.00     0.002 A 
HETATM   13  C   UNL     1      -4.517  -0.852 -33.497  1.00  0.00     0.034 A 
ENDROOT
BRANCH   3  14
HETATM   14  N   UNL     1      -5.834   3.940 -31.685  1.00  0.00    -0.176 NA
HETATM   15  C   UNL     1      -4.845   4.670 -32.088  1.00  0.00     0.153 C 
BRANCH  15  16
HETATM   16  C   UNL     1      -3.983   5.372 -31.169  1.00  0.00     0.011 A 
HETATM   17  C   UNL     1      -2.564   5.519 -31.298  1.00  0.00     0.004 A 
HETATM   18  C   UNL     1      -2.140   6.368 -30.277  1.00  0.00     0.043 A 
HETATM   19  C   UNL     1      -1.603   5.014 -32.202  1.00  0.00     0.014 A 
HETATM   20  C   UNL     1      -0.803   6.760 -30.129  1.00  0.00     0.030 A 
HETATM   21  N   UNL     1      -3.253   6.694 -29.535  1.00  0.00    -0.364 N 
HETATM   22  C   UNL     1       0.129   6.248 -31.038  1.00  0.00     0.002 A 
HETATM   23  C   UNL     1      -0.260   5.382 -32.057  1.00  0.00     0.001 A 
HETATM   24  H   UNL     1      -3.247   7.310 -28.734  1.00  0.00     0.165 HD
HETATM   25  C   UNL     1      -4.365   6.083 -30.051  1.00  0.00     0.102 A 
ENDBRANCH  15  16
ENDBRANCH   3  14
BRANCH   2  26
HETATM   26  N   UNL     1      -7.791   5.349 -33.453  1.00  0.00    -0.286 NA
HETATM   27  H   UNL     1      -7.258   5.896 -32.770  1.00  0.00     0.125 HD
HETATM   28  H   UNL     1      -8.763   5.677 -33.455  1.00  0.00     0.125 HD
ENDBRANCH   2  26
BRANCH   1  29
HETATM   29  C   UNL     1      -9.828   3.082 -34.243  1.00  0.00     0.257 C 
HETATM   30  N   UNL     1     -10.509   1.887 -34.095  1.00  0.00    -0.357 N 
HETATM   31  H   UNL     1      -9.942   1.089 -33.828  1.00  0.00     0.162 HD
HETATM   32  O   UNL     1     -10.340   4.092 -34.707  1.00  0.00    -0.267 OA
BRANCH  30  33
HETATM   33  C   UNL     1     -11.803   1.611 -34.679  1.00  0.00     0.123 C 
BRANCH  33  34
HETATM   34  C   UNL     1     -12.554   0.626 -33.780  1.00  0.00     0.023 C 
BRANCH  34  35
HETATM   35  C   UNL     1     -13.950   1.088 -33.340  1.00  0.00    -0.021 C 
HETATM   36  C   UNL     1     -15.024   0.725 -34.362  1.00  0.00     0.009 C 
HETATM   37  C   UNL     1     -13.938   2.604 -33.114  1.00  0.00     0.009 C 
ENDBRANCH  34  35
ENDBRANCH  33  34
ENDBRANCH  30  33
ENDBRANCH   1  29
TORSDOF 7
ENDMDL
MODEL 7
REMARK VINA RESULT:      -9.0      2.870      7.676
REMARK  7 active torsions:
REMARK  status: ('A' for Active; 'I' for Inactive)
REMARK    1  A    between atoms: C_2  and  C_3 
REMARK    2  A    between atoms: C_3  and  C_4 
REMARK    3  A    between atoms: C_4  and  N_5 
REMARK       I    between atoms: N_5  and  C_6 
REMARK    4  A    between atoms: C_6  and  C_7 
REMARK    5  A    between atoms: C_8  and  N_9 
REMARK    6  A    between atoms: N_10  and  N_11 
REMARK    7  A    between atoms: C_12  and  C_13 
ROOT
HETATM    1  C   UNL     1      -8.891   3.881 -33.613  1.00  0.00     0.104 C 
HETATM    2  C   UNL     1      -7.759   3.107 -33.845  1.00  0.00     0.123 C 
HETATM    3  N   UNL     1      -8.071   1.802 -33.461  1.00  0.00    -0.202 N 
HETATM    4  C   UNL     1      -9.441   1.667 -33.561  1.00  0.00     0.183 A 
HETATM    5  C   UNL     1      -9.974   2.957 -33.575  1.00  0.00     0.124 A 
HETATM    6  N   UNL     1     -11.316   3.154 -33.516  1.00  0.00    -0.242 NA
HETATM    7  C   UNL     1     -12.054   2.032 -33.510  1.00  0.00     0.086 A 
HETATM    8  C   UNL     1     -11.481   0.731 -33.526  1.00  0.00     0.088 A 
HETATM    9  N   UNL     1     -10.156   0.520 -33.521  1.00  0.00    -0.225 NA
HETATM   10  C   UNL     1     -13.438   2.149 -33.496  1.00  0.00     0.034 A 
HETATM   11  C   UNL     1     -14.271   1.029 -33.513  1.00  0.00     0.002 A 
HETATM   12  C   UNL     1     -13.709  -0.239 -33.543  1.00  0.00     0.002 A 
HETATM   13  C   UNL     1     -12.321  -0.375 -33.546  1.00  0.00     0.034 A 
ENDROOT
BRANCH   3  14
HETATM   14  N   UNL     1      -7.203   0.840 -32.992  1.00  0.00    -0.176 NA
HETATM   15  C   UNL     1      -6.668   0.152 -33.947  1.00  0.00     0.153 C 
BRANCH  15  16
HETATM   16  C   UNL     1      -5.692  -0.882 -33.697  1.00  0.00     0.011 A 
HETATM   17  C   UNL     1      -5.786  -2.243 -34.130  1.00  0.00     0.004 A 
HETATM   18  C   UNL     1      -4.585  -2.868 -33.795  1.00  0.00     0.043 A 
HETATM   19  C   UNL     1      -6.781  -2.998 -34.789  1.00  0.00     0.014 A 
HETATM   20  C   UNL     1      -4.320  -4.207 -34.110  1.00  0.00     0.030 A 
HETATM   21  N   UNL     1      -3.809  -1.932 -33.151  1.00  0.00    -0.364 N 
HETATM   22  C   UNL     1      -5.321  -4.932 -34.765  1.00  0.00     0.002 A 
HETATM   23  C   UNL     1      -6.538  -4.342 -35.095  1.00  0.00     0.001 A 
HETATM   24  H   UNL     1      -2.875  -2.103 -32.804  1.00  0.00     0.165 HD
HETATM   25  C   UNL     1      -4.473  -0.738 -33.068  1.00  0.00     0.102 A 
ENDBRANCH  15  16
ENDBRANCH   3  14
BRANCH   2  26
HETATM   26  N   UNL     1      -6.494   3.466 -34.235  1.00  0.00    -0.286 NA
HETATM   27  H   UNL     1      -6.185   3.126 -35.150  1.00  0.00     0.125 HD
HETATM   28  H   UNL     1      -5.747   3.305 -33.550  1.00  0.00     0.125 HD
ENDBRANCH   2  26
BRANCH   1  29
HETATM   29  C   UNL     1      -8.902   5.329 -33.433  1.00  0.00     0.257 C 
HETATM   30  N   UNL     1     -10.124   5.884 -33.769  1.00  0.00    -0.357 N 
HETATM   31  H   UNL     1     -10.809   5.240 -34.150  1.00  0.00     0.162 HD
HETATM   32  O   UNL     1      -7.930   5.997 -33.109  1.00  0.00    -0.267 OA
BRANCH  30  33
HETATM   33  C   UNL     1     -10.337   7.293 -34.016  1.00  0.00     0.123 C 
BRANCH  33  34
HETATM   34  C   UNL     1     -10.586   7.505 -35.511  1.00  0.00     0.023 C 
BRANCH  34  35
HETATM   35  C   UNL     1     -11.993   8.006 -35.867  1.00  0.00    -0.021 C 
HETATM   36  C   UNL     1     -13.018   6.875 -35.889  1.00  0.00     0.009 C 
HETATM   37  C   UNL     1     -11.956   8.703 -37.231  1.00  0.00     0.009 C 
ENDBRANCH  34  35
ENDBRANCH  33  34
ENDBRANCH  30  33
ENDBRANCH   1  29
TORSDOF 7
ENDMDL
MODEL 8
REMARK VINA RESULT:      -8.9      2.326      7.686
REMARK  7 active torsions:
REMARK  status: ('A' for Active; 'I' for Inactive)
REMARK    1  A    between atoms: C_2  and  C_3 
REMARK    2  A    between atoms: C_3  and  C_4 
REMARK    3  A    between atoms: C_4  and  N_5 
REMARK       I    between atoms: N_5  and  C_6 
REMARK    4  A    between atoms: C_6  and  C_7 
REMARK    5  A    between atoms: C_8  and  N_9 
REMARK    6  A    between atoms: N_10  and  N_11 
REMARK    7  A    between atoms: C_12  and  C_13 
ROOT
HETATM    1  C   UNL     1      -8.308   1.743 -32.999  1.00  0.00     0.104 C 
HETATM    2  C   UNL     1      -7.415   2.807 -32.916  1.00  0.00     0.123 C 
HETATM    3  N   UNL     1      -6.146   2.260 -32.720  1.00  0.00    -0.202 N 
HETATM    4  C   UNL     1      -6.170   0.983 -33.244  1.00  0.00     0.183 A 
HETATM    5  C   UNL     1      -7.511   0.615 -33.348  1.00  0.00     0.124 A 
HETATM    6  N   UNL     1      -7.859  -0.652 -33.692  1.00  0.00    -0.242 NA
HETATM    7  C   UNL     1      -6.828  -1.465 -33.978  1.00  0.00     0.086 A 
HETATM    8  C   UNL     1      -5.471  -1.050 -33.891  1.00  0.00     0.088 A 
HETATM    9  N   UNL     1      -5.111   0.179 -33.491  1.00  0.00    -0.225 NA
HETATM   10  C   UNL     1      -7.103  -2.765 -34.383  1.00  0.00     0.034 A 
HETATM   11  C   UNL     1      -6.085  -3.660 -34.719  1.00  0.00     0.002 A 
HETATM   12  C   UNL     1      -4.762  -3.248 -34.647  1.00  0.00     0.002 A 
HETATM   13  C   UNL     1      -4.469  -1.949 -34.231  1.00  0.00     0.034 A 
ENDROOT
BRANCH   3  14
HETATM   14  N   UNL     1      -5.081   2.836 -32.063  1.00  0.00    -0.176 NA
HETATM   15  C   UNL     1      -4.450   3.691 -32.801  1.00  0.00     0.153 C 
BRANCH  15  16
HETATM   16  C   UNL     1      -3.327   4.453 -32.308  1.00  0.00     0.011 A 
HETATM   17  C   UNL     1      -3.366   5.402 -31.237  1.00  0.00     0.004 A 
HETATM   18  C   UNL     1      -2.055   5.811 -30.998  1.00  0.00     0.043 A 
HETATM   19  C   UNL     1      -4.400   5.943 -30.440  1.00  0.00     0.014 A 
HETATM   20  C   UNL     1      -1.721   6.716 -29.982  1.00  0.00     0.030 A 
HETATM   21  N   UNL     1      -1.257   5.162 -31.913  1.00  0.00    -0.364 N 
HETATM   22  C   UNL     1      -2.763   7.234 -29.205  1.00  0.00     0.002 A 
HETATM   23  C   UNL     1      -4.085   6.862 -29.432  1.00  0.00     0.001 A 
HETATM   24  H   UNL     1      -0.252   5.258 -31.966  1.00  0.00     0.165 HD
HETATM   25  C   UNL     1      -2.015   4.357 -32.721  1.00  0.00     0.102 A 
ENDBRANCH  15  16
ENDBRANCH   3  14
BRANCH   2  26
HETATM   26  N   UNL     1      -7.636   4.159 -32.877  1.00  0.00    -0.286 NA
HETATM   27  H   UNL     1      -7.368   4.640 -32.013  1.00  0.00     0.125 HD
HETATM   28  H   UNL     1      -8.571   4.473 -33.157  1.00  0.00     0.125 HD
ENDBRANCH   2  26
BRANCH   1  29
HETATM   29  C   UNL     1      -9.742   1.823 -32.749  1.00  0.00     0.257 C 
HETATM   30  N   UNL     1     -10.456   0.935 -33.534  1.00  0.00    -0.357 N 
HETATM   31  H   UNL     1      -9.910   0.409 -34.208  1.00  0.00     0.162 HD
HETATM   32  O   UNL     1     -10.274   2.634 -32.003  1.00  0.00    -0.267 OA
BRANCH  30  33
HETATM   33  C   UNL     1     -11.883   1.012 -33.757  1.00  0.00     0.123 C 
BRANCH  33  34
HETATM   34  C   UNL     1     -12.138   1.557 -35.164  1.00  0.00     0.023 C 
BRANCH  34  35
HETATM   35  C   UNL     1     -12.463   3.056 -35.226  1.00  0.00    -0.021 C 
HETATM   36  C   UNL     1     -11.218   3.905 -35.467  1.00  0.00     0.009 C 
HETATM   37  C   UNL     1     -13.142   3.485 -33.920  1.00  0.00     0.009 C 
ENDBRANCH  34  35
ENDBRANCH  33  34
ENDBRANCH  30  33
ENDBRANCH   1  29
TORSDOF 7
ENDMDL
MODEL 9
REMARK VINA RESULT:      -8.9      1.906      5.878
REMARK  7 active torsions:
REMARK  status: ('A' for Active; 'I' for Inactive)
REMARK    1  A    between atoms: C_2  and  C_3 
REMARK    2  A    between atoms: C_3  and  C_4 
REMARK    3  A    between atoms: C_4  and  N_5 
REMARK       I    between atoms: N_5  and  C_6 
REMARK    4  A    between atoms: C_6  and  C_7 
REMARK    5  A    between atoms: C_8  and  N_9 
REMARK    6  A    between atoms: N_10  and  N_11 
REMARK    7  A    between atoms: C_12  and  C_13 
ROOT
HETATM    1  C   UNL     1      -6.450   0.877 -33.763  1.00  0.00     0.104 C 
HETATM    2  C   UNL     1      -7.605   1.068 -34.514  1.00  0.00     0.123 C 
HETATM    3  N   UNL     1      -8.116   2.320 -34.167  1.00  0.00    -0.202 N 
HETATM    4  C   UNL     1      -7.056   3.077 -33.711  1.00  0.00     0.183 A 
HETATM    5  C   UNL     1      -6.037   2.185 -33.378  1.00  0.00     0.124 A 
HETATM    6  N   UNL     1      -4.911   2.619 -32.754  1.00  0.00    -0.242 NA
HETATM    7  C   UNL     1      -4.847   3.946 -32.559  1.00  0.00     0.086 A 
HETATM    8  C   UNL     1      -5.891   4.833 -32.938  1.00  0.00     0.088 A 
HETATM    9  N   UNL     1      -7.036   4.412 -33.496  1.00  0.00    -0.225 NA
HETATM   10  C   UNL     1      -3.706   4.475 -31.968  1.00  0.00     0.034 A 
HETATM   11  C   UNL     1      -3.557   5.846 -31.754  1.00  0.00     0.002 A 
HETATM   12  C   UNL     1      -4.572   6.711 -32.138  1.00  0.00     0.002 A 
HETATM   13  C   UNL     1      -5.729   6.196 -32.722  1.00  0.00     0.034 A 
ENDROOT
BRANCH   3  14
HETATM   14  N   UNL     1      -9.434   2.719 -34.193  1.00  0.00    -0.176 NA
HETATM   15  C   UNL     1     -10.044   2.476 -33.079  1.00  0.00     0.153 C 
BRANCH  15  16
HETATM   16  C   UNL     1     -11.421   2.849 -32.858  1.00  0.00     0.011 A 
HETATM   17  C   UNL     1     -12.568   2.109 -33.290  1.00  0.00     0.004 A 
HETATM   18  C   UNL     1     -13.693   2.744 -32.765  1.00  0.00     0.043 A 
HETATM   19  C   UNL     1     -12.750   0.946 -34.071  1.00  0.00     0.014 A 
HETATM   20  C   UNL     1     -14.993   2.260 -32.962  1.00  0.00     0.030 A 
HETATM   21  N   UNL     1     -13.247   3.847 -32.073  1.00  0.00    -0.364 N 
HETATM   22  C   UNL     1     -15.146   1.105 -33.737  1.00  0.00     0.002 A 
HETATM   23  C   UNL     1     -14.044   0.459 -34.292  1.00  0.00     0.001 A 
HETATM   24  H   UNL     1     -13.846   4.492 -31.576  1.00  0.00     0.165 HD
HETATM   25  C   UNL     1     -11.882   3.932 -32.140  1.00  0.00     0.102 A 
ENDBRANCH  15  16
ENDBRANCH   3  14
BRANCH   2  26
HETATM   26  N   UNL     1      -8.280   0.215 -35.349  1.00  0.00    -0.286 NA
HETATM   27  H   UNL     1      -9.288   0.127 -35.193  1.00  0.00     0.125 HD
HETATM   28  H   UNL     1      -7.877  -0.721 -35.461  1.00  0.00     0.125 HD
ENDBRANCH   2  26
BRANCH   1  29
HETATM   29  C   UNL     1      -5.848  -0.414 -33.451  1.00  0.00     0.257 C 
HETATM   30  N   UNL     1      -5.818  -1.252 -34.551  1.00  0.00    -0.357 N 
HETATM   31  H   UNL     1      -6.266  -0.894 -35.388  1.00  0.00     0.162 HD
HETATM   32  O   UNL     1      -5.490  -0.762 -32.334  1.00  0.00    -0.267 OA
BRANCH  30  33
HETATM   33  C   UNL     1      -5.600  -2.680 -34.480  1.00  0.00     0.123 C 
BRANCH  33  34
HETATM   34  C   UNL     1      -4.104  -2.963 -34.634  1.00  0.00     0.023 C 
BRANCH  34  35
HETATM   35  C   UNL     1      -3.618  -4.255 -33.961  1.00  0.00    -0.021 C 
HETATM   36  C   UNL     1      -4.655  -5.372 -34.046  1.00  0.00     0.009 C 
HETATM   37  C   UNL     1      -3.278  -3.969 -32.494  1.00  0.00     0.009 C 
ENDBRANCH  34  35
ENDBRANCH  33  34
ENDBRANCH  30  33
ENDBRANCH   1  29
TORSDOF 7
ENDMDL
MODEL 10
REMARK VINA RESULT:      -8.8      2.129      8.393
REMARK  7 active torsions:
REMARK  status: ('A' for Active; 'I' for Inactive)
REMARK    1  A    between atoms: C_2  and  C_3 
REMARK    2  A    between atoms: C_3  and  C_4 
REMARK    3  A    between atoms: C_4  and  N_5 
REMARK       I    between atoms: N_5  and  C_6 
REMARK    4  A    between atoms: C_6  and  C_7 
REMARK    5  A    between atoms: C_8  and  N_9 
REMARK    6  A    between atoms: N_10  and  N_11 
REMARK    7  A    between atoms: C_12  and  C_13 
ROOT
HETATM    1  C   UNL     1      -7.319   1.298 -31.844  1.00  0.00     0.104 C 
HETATM    2  C   UNL     1      -6.811   2.163 -30.881  1.00  0.00     0.123 C 
HETATM    3  N   UNL     1      -7.213   3.452 -31.237  1.00  0.00    -0.202 N 
HETATM    4  C   UNL     1      -8.361   3.323 -31.994  1.00  0.00     0.183 A 
HETATM    5  C   UNL     1      -8.399   2.004 -32.447  1.00  0.00     0.124 A 
HETATM    6  N   UNL     1      -9.336   1.606 -33.346  1.00  0.00    -0.242 NA
HETATM    7  C   UNL     1     -10.228   2.550 -33.690  1.00  0.00     0.086 A 
HETATM    8  C   UNL     1     -10.180   3.878 -33.186  1.00  0.00     0.088 A 
HETATM    9  N   UNL     1      -9.223   4.303 -32.347  1.00  0.00    -0.225 NA
HETATM   10  C   UNL     1     -11.247   2.208 -34.570  1.00  0.00     0.034 A 
HETATM   11  C   UNL     1     -12.224   3.128 -34.955  1.00  0.00     0.002 A 
HETATM   12  C   UNL     1     -12.183   4.420 -34.451  1.00  0.00     0.002 A 
HETATM   13  C   UNL     1     -11.160   4.782 -33.575  1.00  0.00     0.034 A 
ENDROOT
BRANCH   3  14
HETATM   14  N   UNL     1      -6.563   4.635 -30.963  1.00  0.00    -0.176 NA
HETATM   15  C   UNL     1      -5.518   4.805 -31.706  1.00  0.00     0.153 C 
BRANCH  15  16
HETATM   16  C   UNL     1      -4.704   5.996 -31.628  1.00  0.00     0.011 A 
HETATM   17  C   UNL     1      -3.400   6.155 -32.197  1.00  0.00     0.004 A 
HETATM   18  C   UNL     1      -3.024   7.484 -32.005  1.00  0.00     0.043 A 
HETATM   19  C   UNL     1      -2.508   5.290 -32.869  1.00  0.00     0.014 A 
HETATM   20  C   UNL     1      -1.810   8.000 -32.476  1.00  0.00     0.030 A 
HETATM   21  N   UNL     1      -4.046   8.097 -31.315  1.00  0.00    -0.364 N 
HETATM   22  C   UNL     1      -0.946   7.123 -33.141  1.00  0.00     0.002 A 
HETATM   23  C   UNL     1      -1.282   5.786 -33.330  1.00  0.00     0.001 A 
HETATM   24  H   UNL     1      -4.053   9.071 -31.047  1.00  0.00     0.165 HD
HETATM   25  C   UNL     1      -5.054   7.204 -31.064  1.00  0.00     0.102 A 
ENDBRANCH  15  16
ENDBRANCH   3  14
BRANCH   2  26
HETATM   26  N   UNL     1      -5.958   1.934 -29.833  1.00  0.00    -0.286 NA
HETATM   27  H   UNL     1      -5.717   0.956 -29.647  1.00  0.00     0.125 HD
HETATM   28  H   UNL     1      -6.196   2.392 -28.947  1.00  0.00     0.125 HD
ENDBRANCH   2  26
BRANCH   1  29
HETATM   29  C   UNL     1      -6.800  -0.032 -32.144  1.00  0.00     0.257 C 
HETATM   30  N   UNL     1      -7.181  -0.467 -33.400  1.00  0.00    -0.357 N 
HETATM   31  H   UNL     1      -7.808   0.149 -33.907  1.00  0.00     0.162 HD
HETATM   32  O   UNL     1      -6.176  -0.729 -31.354  1.00  0.00    -0.267 OA
BRANCH  30  33
HETATM   33  C   UNL     1      -7.112  -1.843 -33.841  1.00  0.00     0.123 C 
BRANCH  33  34
HETATM   34  C   UNL     1      -6.057  -1.959 -34.944  1.00  0.00     0.023 C 
BRANCH  34  35
HETATM   35  C   UNL     1      -5.508  -3.375 -35.166  1.00  0.00    -0.021 C 
HETATM   36  C   UNL     1      -6.598  -4.439 -35.054  1.00  0.00     0.009 C 
HETATM   37  C   UNL     1      -4.398  -3.658 -34.146  1.00  0.00     0.009 C 
ENDBRANCH  34  35
ENDBRANCH  33  34
ENDBRANCH  30  33
ENDBRANCH   1  29
TORSDOF 7
ENDMDL
