MODEL 1
REMARK VINA RESULT:      -8.5      0.000      0.000
REMARK  9 active torsions:
REMARK  status: ('A' for Active; 'I' for Inactive)
REMARK    1  A    between atoms: C_5  and  C_6 
REMARK    2  A    between atoms: C_8  and  C_9 
REMARK    3  A    between atoms: C_9  and  C_10 
REMARK       I    between atoms: C_10  and  N_11 
REMARK    4  A    between atoms: N_11  and  C_12 
REMARK    5  A    between atoms: C_12  and  C_13 
REMARK    6  A    between atoms: C_13  and  N_14 
REMARK    7  A    between atoms: C_28  and  C_29 
REMARK    8  A    between atoms: C_29  and  O_30 
REMARK    9  A    between atoms: O_30  and  C_31 
ROOT
HETATM    1  C   UNL     1      -7.325   2.723 -31.706  1.00  0.00     0.166 C 
HETATM    2  N   UNL     1      -6.329   3.786 -31.479  1.00  0.00    -0.319 N 
HETATM    3  C   UNL     1      -5.268   4.302 -32.005  1.00  0.00     0.011 C 
HETATM    4  C   UNL     1      -6.748   4.571 -30.208  1.00  0.00     0.170 C 
HETATM    5  S   UNL     1      -5.396   5.362 -29.490  1.00  0.00    -0.086 SA
HETATM    6  C   UNL     1      -4.469   5.190 -31.057  1.00  0.00     0.135 C 
HETATM    7  N   UNL     1      -7.979   4.707 -29.843  1.00  0.00    -0.229 NA
HETATM    8  C   UNL     1      -8.953   4.273 -30.747  1.00  0.00     0.048 C 
HETATM    9  C   UNL     1     -10.262   5.018 -30.619  1.00  0.00     0.071 C 
HETATM   10  C   UNL     1      -8.673   3.367 -31.719  1.00  0.00     0.069 C 
ENDROOT
BRANCH   3  11
HETATM   11  C   UNL     1      -4.874   4.054 -33.436  1.00  0.00     0.156 C 
BRANCH  11  12
HETATM   12  C   UNL     1      -3.713   4.930 -33.901  1.00  0.00     0.223 C 
HETATM   13  N   UNL     1      -2.473   4.536 -33.474  1.00  0.00    -0.359 N 
HETATM   14  H   UNL     1      -2.424   3.750 -32.829  1.00  0.00     0.162 HD
HETATM   15  O   UNL     1      -3.875   5.915 -34.615  1.00  0.00    -0.273 OA
BRANCH  13  16
HETATM   16  C   UNL     1      -1.247   5.343 -33.550  1.00  0.00     0.150 C 
BRANCH  16  17
HETATM   17  C   UNL     1      -1.155   6.635 -32.699  1.00  0.00     0.254 C 
BRANCH  17  18
HETATM   18  N   UNL     1      -0.292   6.499 -31.455  1.00  0.00    -0.070 N 
HETATM   19  H   UNL     1       0.675   6.716 -31.769  1.00  0.00     0.279 HD
HETATM   20  C   UNL     1      -0.637   7.465 -30.347  1.00  0.00     0.235 C 
HETATM   21  C   UNL     1       0.383   7.340 -29.224  1.00  0.00     0.028 C 
HETATM   22  C   UNL     1       0.464   5.916 -28.692  1.00  0.00     0.003 C 
HETATM   23  C   UNL     1       0.730   4.927 -29.820  1.00  0.00     0.028 C 
HETATM   24  C   UNL     1      -0.282   5.069 -30.949  1.00  0.00     0.235 C 
ENDBRANCH  17  18
ENDBRANCH  16  17
ENDBRANCH  13  16
ENDBRANCH  11  12
ENDBRANCH   3  11
BRANCH   1  25
HETATM   25  C   UNL     1      -6.845   1.526 -32.510  1.00  0.00    -0.030 A 
HETATM   26  C   UNL     1      -6.408   0.392 -31.781  1.00  0.00     0.010 A 
HETATM   27  C   UNL     1      -6.064  -0.806 -32.412  1.00  0.00     0.007 A 
HETATM   28  C   UNL     1      -6.135  -0.913 -33.797  1.00  0.00    -0.062 A 
HETATM   29  C   UNL     1      -5.893  -2.231 -34.476  1.00  0.00     0.048 C 
HETATM   30  C   UNL     1      -6.528   0.206 -34.536  1.00  0.00     0.007 A 
HETATM   31  C   UNL     1      -6.863   1.413 -33.904  1.00  0.00     0.010 A 
ENDBRANCH   1  25
BRANCH  10  32
HETATM   32  C   UNL     1      -9.556   3.220 -32.869  1.00  0.00     0.294 C 
HETATM   33  O   UNL     1      -9.359   3.878 -33.879  1.00  0.00    -0.259 OA
BRANCH  32  34
HETATM   34  O   UNL     1     -10.514   2.312 -32.620  1.00  0.00    -0.313 OA
BRANCH  34  35
HETATM   35  C   UNL     1     -10.665   1.159 -33.484  1.00  0.00     0.124 C 
HETATM   36  C   UNL     1     -10.116  -0.123 -32.861  1.00  0.00     0.040 C 
HETATM   37  C   UNL     1     -12.105   1.011 -33.964  1.00  0.00     0.040 C 
ENDBRANCH  34  35
ENDBRANCH  32  34
ENDBRANCH  10  32
TORSDOF 9
ENDMDL
MODEL 2
REMARK VINA RESULT:      -8.5      1.318      1.466
REMARK  9 active torsions:
REMARK  status: ('A' for Active; 'I' for Inactive)
REMARK    1  A    between atoms: C_5  and  C_6 
REMARK    2  A    between atoms: C_8  and  C_9 
REMARK    3  A    between atoms: C_9  and  C_10 
REMARK       I    between atoms: C_10  and  N_11 
REMARK    4  A    between atoms: N_11  and  C_12 
REMARK    5  A    between atoms: C_12  and  C_13 
REMARK    6  A    between atoms: C_13  and  N_14 
REMARK    7  A    between atoms: C_28  and  C_29 
REMARK    8  A    between atoms: C_29  and  O_30 
REMARK    9  A    between atoms: O_30  and  C_31 
ROOT
HETATM    1  C   UNL     1      -8.017   1.903 -32.222  1.00  0.00     0.166 C 
HETATM    2  N   UNL     1      -7.186   2.995 -31.682  1.00  0.00    -0.319 N 
HETATM    3  C   UNL     1      -6.088   3.635 -31.912  1.00  0.00     0.011 C 
HETATM    4  C   UNL     1      -7.929   3.601 -30.461  1.00  0.00     0.170 C 
HETATM    5  S   UNL     1      -6.830   4.390 -29.393  1.00  0.00    -0.086 SA
HETATM    6  C   UNL     1      -5.585   4.458 -30.731  1.00  0.00     0.135 C 
HETATM    7  N   UNL     1      -9.216   3.614 -30.360  1.00  0.00    -0.229 NA
HETATM    8  C   UNL     1      -9.938   3.225 -31.492  1.00  0.00     0.048 C 
HETATM    9  C   UNL     1     -11.305   3.865 -31.578  1.00  0.00     0.071 C 
HETATM   10  C   UNL     1      -9.383   2.455 -32.464  1.00  0.00     0.069 C 
ENDROOT
BRANCH   3  11
HETATM   11  C   UNL     1      -5.385   3.578 -33.240  1.00  0.00     0.156 C 
BRANCH  11  12
HETATM   12  C   UNL     1      -3.904   3.940 -33.153  1.00  0.00     0.223 C 
HETATM   13  N   UNL     1      -3.579   5.193 -33.601  1.00  0.00    -0.359 N 
HETATM   14  H   UNL     1      -4.320   5.750 -34.023  1.00  0.00     0.162 HD
HETATM   15  O   UNL     1      -3.061   3.169 -32.703  1.00  0.00    -0.273 OA
BRANCH  13  16
HETATM   16  C   UNL     1      -2.218   5.676 -33.877  1.00  0.00     0.150 C 
BRANCH  16  17
HETATM   17  C   UNL     1      -1.755   7.002 -33.222  1.00  0.00     0.254 C 
BRANCH  17  18
HETATM   18  N   UNL     1      -0.766   6.819 -32.083  1.00  0.00    -0.070 N 
HETATM   19  H   UNL     1       0.104   7.293 -32.397  1.00  0.00     0.279 HD
HETATM   20  C   UNL     1      -1.188   7.461 -30.782  1.00  0.00     0.235 C 
HETATM   21  C   UNL     1      -0.059   7.345 -29.766  1.00  0.00     0.028 C 
HETATM   22  C   UNL     1       0.353   5.896 -29.545  1.00  0.00     0.003 C 
HETATM   23  C   UNL     1       0.699   5.220 -30.865  1.00  0.00     0.028 C 
HETATM   24  C   UNL     1      -0.425   5.355 -31.884  1.00  0.00     0.235 C 
ENDBRANCH  17  18
ENDBRANCH  16  17
ENDBRANCH  13  16
ENDBRANCH  11  12
ENDBRANCH   3  11
BRANCH   1  25
HETATM   25  C   UNL     1      -7.277   0.839 -33.016  1.00  0.00    -0.030 A 
HETATM   26  C   UNL     1      -6.475  -0.073 -32.284  1.00  0.00     0.010 A 
HETATM   27  C   UNL     1      -5.851  -1.164 -32.893  1.00  0.00     0.007 A 
HETATM   28  C   UNL     1      -5.996  -1.381 -34.259  1.00  0.00    -0.062 A 
HETATM   29  C   UNL     1      -5.439  -2.619 -34.901  1.00  0.00     0.048 C 
HETATM   30  C   UNL     1      -6.753  -0.472 -35.005  1.00  0.00     0.007 A 
HETATM   31  C   UNL     1      -7.370   0.631 -34.396  1.00  0.00     0.010 A 
ENDBRANCH   1  25
BRANCH  10  32
HETATM   32  C   UNL     1      -9.991   2.385 -33.787  1.00  0.00     0.294 C 
HETATM   33  O   UNL     1      -9.789   3.273 -34.601  1.00  0.00    -0.259 OA
BRANCH  32  34
HETATM   34  O   UNL     1     -10.725   1.268 -33.913  1.00  0.00    -0.313 OA
BRANCH  34  35
HETATM   35  C   UNL     1     -12.165   1.356 -34.061  1.00  0.00     0.124 C 
HETATM   36  C   UNL     1     -12.589   1.804 -35.457  1.00  0.00     0.040 C 
HETATM   37  C   UNL     1     -12.847   0.065 -33.622  1.00  0.00     0.040 C 
ENDBRANCH  34  35
ENDBRANCH  32  34
ENDBRANCH  10  32
TORSDOF 9
ENDMDL
MODEL 3
REMARK VINA RESULT:      -8.0      1.905      2.813
REMARK  9 active torsions:
REMARK  status: ('A' for Active; 'I' for Inactive)
REMARK    1  A    between atoms: C_5  and  C_6 
REMARK    2  A    between atoms: C_8  and  C_9 
REMARK    3  A    between atoms: C_9  and  C_10 
REMARK       I    between atoms: C_10  and  N_11 
REMARK    4  A    between atoms: N_11  and  C_12 
REMARK    5  A    between atoms: C_12  and  C_13 
REMARK    6  A    between atoms: C_13  and  N_14 
REMARK    7  A    between atoms: C_28  and  C_29 
REMARK    8  A    between atoms: C_29  and  O_30 
REMARK    9  A    between atoms: O_30  and  C_31 
ROOT
HETATM    1  C   UNL     1      -9.145   2.573 -32.323  1.00  0.00     0.166 C 
HETATM    2  N   UNL     1      -8.459   3.845 -32.033  1.00  0.00    -0.319 N 
HETATM    3  C   UNL     1      -7.509   4.601 -32.475  1.00  0.00     0.011 C 
HETATM    4  C   UNL     1      -9.170   4.507 -30.823  1.00  0.00     0.170 C 
HETATM    5  S   UNL     1      -8.119   5.602 -30.006  1.00  0.00    -0.086 SA
HETATM    6  C   UNL     1      -7.037   5.657 -31.481  1.00  0.00     0.135 C 
HETATM    7  N   UNL     1     -10.425   4.342 -30.572  1.00  0.00    -0.229 NA
HETATM    8  C   UNL     1     -11.179   3.685 -31.548  1.00  0.00     0.048 C 
HETATM    9  C   UNL     1     -12.634   4.092 -31.555  1.00  0.00     0.071 C 
HETATM   10  C   UNL     1     -10.601   2.872 -32.470  1.00  0.00     0.069 C 
ENDROOT
BRANCH   3  11
HETATM   11  C   UNL     1      -6.937   4.454 -33.858  1.00  0.00     0.156 C 
BRANCH  11  12
HETATM   12  C   UNL     1      -5.437   4.170 -33.862  1.00  0.00     0.223 C 
HETATM   13  N   UNL     1      -5.029   3.159 -33.034  1.00  0.00    -0.359 N 
HETATM   14  H   UNL     1      -5.730   2.731 -32.431  1.00  0.00     0.162 HD
HETATM   15  O   UNL     1      -4.649   4.797 -34.565  1.00  0.00    -0.273 OA
BRANCH  13  16
HETATM   16  C   UNL     1      -3.638   2.876 -32.652  1.00  0.00     0.150 C 
BRANCH  16  17
HETATM   17  C   UNL     1      -2.970   3.763 -31.571  1.00  0.00     0.254 C 
BRANCH  17  18
HETATM   18  N   UNL     1      -2.538   5.131 -32.072  1.00  0.00    -0.070 N 
HETATM   19  H   UNL     1      -3.400   5.565 -32.457  1.00  0.00     0.279 HD
HETATM   20  C   UNL     1      -2.008   6.051 -30.997  1.00  0.00     0.235 C 
HETATM   21  C   UNL     1      -1.754   7.432 -31.586  1.00  0.00     0.028 C 
HETATM   22  C   UNL     1      -0.794   7.372 -32.767  1.00  0.00     0.003 C 
HETATM   23  C   UNL     1      -1.282   6.383 -33.817  1.00  0.00     0.028 C 
HETATM   24  C   UNL     1      -1.554   5.009 -33.219  1.00  0.00     0.235 C 
ENDBRANCH  17  18
ENDBRANCH  16  17
ENDBRANCH  13  16
ENDBRANCH  11  12
ENDBRANCH   3  11
BRANCH   1  25
HETATM   25  C   UNL     1      -8.320   1.526 -33.053  1.00  0.00    -0.030 A 
HETATM   26  C   UNL     1      -7.568   0.625 -32.256  1.00  0.00     0.010 A 
HETATM   27  C   UNL     1      -6.874  -0.452 -32.812  1.00  0.00     0.007 A 
HETATM   28  C   UNL     1      -6.896  -0.665 -34.187  1.00  0.00    -0.062 A 
HETATM   29  C   UNL     1      -6.263  -1.890 -34.781  1.00  0.00     0.048 C 
HETATM   30  C   UNL     1      -7.601   0.234 -34.993  1.00  0.00     0.007 A 
HETATM   31  C   UNL     1      -8.289   1.323 -34.436  1.00  0.00     0.010 A 
ENDBRANCH   1  25
BRANCH  10  32
HETATM   32  C   UNL     1     -11.314   2.515 -33.690  1.00  0.00     0.294 C 
HETATM   33  O   UNL     1     -12.168   1.642 -33.667  1.00  0.00    -0.259 OA
BRANCH  32  34
HETATM   34  O   UNL     1     -10.893   3.263 -34.722  1.00  0.00    -0.313 OA
BRANCH  34  35
HETATM   35  C   UNL     1     -11.335   4.638 -34.852  1.00  0.00     0.124 C 
HETATM   36  C   UNL     1     -10.236   5.566 -35.365  1.00  0.00     0.040 C 
HETATM   37  C   UNL     1     -12.618   4.734 -35.670  1.00  0.00     0.040 C 
ENDBRANCH  34  35
ENDBRANCH  32  34
ENDBRANCH  10  32
TORSDOF 9
ENDMDL
MODEL 4
REMARK VINA RESULT:      -7.9      1.464      1.973
REMARK  9 active torsions:
REMARK  status: ('A' for Active; 'I' for Inactive)
REMARK    1  A    between atoms: C_5  and  C_6 
REMARK    2  A    between atoms: C_8  and  C_9 
REMARK    3  A    between atoms: C_9  and  C_10 
REMARK       I    between atoms: C_10  and  N_11 
REMARK    4  A    between atoms: N_11  and  C_12 
REMARK    5  A    between atoms: C_12  and  C_13 
REMARK    6  A    between atoms: C_13  and  N_14 
REMARK    7  A    between atoms: C_28  and  C_29 
REMARK    8  A    between atoms: C_29  and  O_30 
REMARK    9  A    between atoms: O_30  and  C_31 
ROOT
HETATM    1  C   UNL     1      -8.160   2.265 -32.302  1.00  0.00     0.166 C 
HETATM    2  N   UNL     1      -7.384   3.504 -32.114  1.00  0.00    -0.319 N 
HETATM    3  C   UNL     1      -6.433   4.190 -32.656  1.00  0.00     0.011 C 
HETATM    4  C   UNL     1      -7.959   4.245 -30.877  1.00  0.00     0.170 C 
HETATM    5  S   UNL     1      -6.787   5.304 -30.186  1.00  0.00    -0.086 SA
HETATM    6  C   UNL     1      -5.826   5.249 -31.742  1.00  0.00     0.135 C 
HETATM    7  N   UNL     1      -9.197   4.160 -30.523  1.00  0.00    -0.229 NA
HETATM    8  C   UNL     1     -10.061   3.516 -31.412  1.00  0.00     0.048 C 
HETATM    9  C   UNL     1     -11.489   4.005 -31.320  1.00  0.00     0.071 C 
HETATM   10  C   UNL     1      -9.604   2.641 -32.346  1.00  0.00     0.069 C 
ENDROOT
BRANCH   3  11
HETATM   11  C   UNL     1      -5.984   3.965 -34.074  1.00  0.00     0.156 C 
BRANCH  11  12
HETATM   12  C   UNL     1      -4.599   4.539 -34.364  1.00  0.00     0.223 C 
HETATM   13  N   UNL     1      -3.605   4.132 -33.514  1.00  0.00    -0.359 N 
HETATM   14  H   UNL     1      -3.871   3.549 -32.722  1.00  0.00     0.162 HD
HETATM   15  O   UNL     1      -4.385   5.306 -35.298  1.00  0.00    -0.273 OA
BRANCH  13  16
HETATM   16  C   UNL     1      -2.270   4.737 -33.407  1.00  0.00     0.150 C 
BRANCH  16  17
HETATM   17  C   UNL     1      -2.157   6.203 -32.917  1.00  0.00     0.254 C 
BRANCH  17  18
HETATM   18  N   UNL     1      -1.499   6.352 -31.555  1.00  0.00    -0.070 N 
HETATM   19  H   UNL     1      -1.446   5.387 -31.171  1.00  0.00     0.279 HD
HETATM   20  C   UNL     1      -0.093   6.902 -31.598  1.00  0.00     0.235 C 
HETATM   21  C   UNL     1       0.514   6.862 -30.202  1.00  0.00     0.028 C 
HETATM   22  C   UNL     1      -0.335   7.628 -29.197  1.00  0.00     0.003 C 
HETATM   23  C   UNL     1      -1.775   7.133 -29.210  1.00  0.00     0.028 C 
HETATM   24  C   UNL     1      -2.371   7.157 -30.611  1.00  0.00     0.235 C 
ENDBRANCH  17  18
ENDBRANCH  16  17
ENDBRANCH  13  16
ENDBRANCH  11  12
ENDBRANCH   3  11
BRANCH   1  25
HETATM   25  C   UNL     1      -7.454   1.149 -33.055  1.00  0.00    -0.030 A 
HETATM   26  C   UNL     1      -6.667   0.251 -32.291  1.00  0.00     0.010 A 
HETATM   27  C   UNL     1      -6.076  -0.881 -32.857  1.00  0.00     0.007 A 
HETATM   28  C   UNL     1      -6.241  -1.154 -34.211  1.00  0.00    -0.062 A 
HETATM   29  C   UNL     1      -5.720  -2.432 -34.803  1.00  0.00     0.048 C 
HETATM   30  C   UNL     1      -6.983  -0.260 -34.990  1.00  0.00     0.007 A 
HETATM   31  C   UNL     1      -7.567   0.883 -34.424  1.00  0.00     0.010 A 
ENDBRANCH   1  25
BRANCH  10  32
HETATM   32  C   UNL     1     -10.432   2.287 -33.493  1.00  0.00     0.294 C 
HETATM   33  O   UNL     1     -11.229   1.365 -33.410  1.00  0.00    -0.259 OA
BRANCH  32  34
HETATM   34  O   UNL     1     -10.173   3.095 -34.533  1.00  0.00    -0.313 OA
BRANCH  34  35
HETATM   35  C   UNL     1     -11.132   4.110 -34.922  1.00  0.00     0.124 C 
HETATM   36  C   UNL     1     -10.469   5.415 -35.355  1.00  0.00     0.040 C 
HETATM   37  C   UNL     1     -12.115   3.576 -35.958  1.00  0.00     0.040 C 
ENDBRANCH  34  35
ENDBRANCH  32  34
ENDBRANCH  10  32
TORSDOF 9
ENDMDL
MODEL 5
REMARK VINA RESULT:      -7.7      3.178      7.706
REMARK  9 active torsions:
REMARK  status: ('A' for Active; 'I' for Inactive)
REMARK    1  A    between atoms: C_5  and  C_6 
REMARK    2  A    between atoms: C_8  and  C_9 
REMARK    3  A    between atoms: C_9  and  C_10 
REMARK       I    between atoms: C_10  and  N_11 
REMARK    4  A    between atoms: N_11  and  C_12 
REMARK    5  A    between atoms: C_12  and  C_13 
REMARK    6  A    between atoms: C_13  and  N_14 
REMARK    7  A    between atoms: C_28  and  C_29 
REMARK    8  A    between atoms: C_29  and  O_30 
REMARK    9  A    between atoms: O_30  and  C_31 
ROOT
HETATM    1  C   UNL     1      -5.568   5.857 -31.116  1.00  0.00     0.166 C 
HETATM    2  N   UNL     1      -6.373   4.707 -30.667  1.00  0.00    -0.319 N 
HETATM    3  C   UNL     1      -6.284   3.437 -30.449  1.00  0.00     0.011 C 
HETATM    4  C   UNL     1      -7.780   5.233 -30.273  1.00  0.00     0.170 C 
HETATM    5  S   UNL     1      -8.960   3.981 -30.363  1.00  0.00    -0.086 SA
HETATM    6  C   UNL     1      -7.628   2.728 -30.324  1.00  0.00     0.135 C 
HETATM    7  N   UNL     1      -7.978   6.422 -29.812  1.00  0.00    -0.229 NA
HETATM    8  C   UNL     1      -6.842   7.171 -29.497  1.00  0.00     0.048 C 
HETATM    9  C   UNL     1      -7.078   8.186 -28.402  1.00  0.00     0.071 C 
HETATM   10  C   UNL     1      -5.629   6.895 -30.045  1.00  0.00     0.069 C 
ENDROOT
BRANCH   3  11
HETATM   11  C   UNL     1      -4.961   2.732 -30.318  1.00  0.00     0.156 C 
BRANCH  11  12
HETATM   12  C   UNL     1      -4.601   1.897 -31.544  1.00  0.00     0.223 C 
HETATM   13  N   UNL     1      -3.839   0.787 -31.294  1.00  0.00    -0.359 N 
HETATM   14  H   UNL     1      -3.511   0.645 -30.340  1.00  0.00     0.162 HD
HETATM   15  O   UNL     1      -4.974   2.191 -32.676  1.00  0.00    -0.273 OA
BRANCH  13  16
HETATM   16  C   UNL     1      -3.139  -0.017 -32.308  1.00  0.00     0.150 C 
BRANCH  16  17
HETATM   17  C   UNL     1      -3.456  -1.531 -32.402  1.00  0.00     0.254 C 
BRANCH  17  18
HETATM   18  N   UNL     1      -4.423  -1.894 -33.517  1.00  0.00    -0.070 N 
HETATM   19  H   UNL     1      -4.060  -1.409 -34.362  1.00  0.00     0.279 HD
HETATM   20  C   UNL     1      -4.483  -3.370 -33.833  1.00  0.00     0.235 C 
HETATM   21  C   UNL     1      -5.361  -3.594 -35.057  1.00  0.00     0.028 C 
HETATM   22  C   UNL     1      -6.759  -3.026 -34.860  1.00  0.00     0.003 C 
HETATM   23  C   UNL     1      -6.700  -1.558 -34.459  1.00  0.00     0.028 C 
HETATM   24  C   UNL     1      -5.806  -1.336 -33.246  1.00  0.00     0.235 C 
ENDBRANCH  17  18
ENDBRANCH  16  17
ENDBRANCH  13  16
ENDBRANCH  11  12
ENDBRANCH   3  11
BRANCH   1  25
HETATM   25  C   UNL     1      -4.411   5.531 -32.047  1.00  0.00    -0.030 A 
HETATM   26  C   UNL     1      -4.640   5.680 -33.439  1.00  0.00     0.010 A 
HETATM   27  C   UNL     1      -3.617   5.530 -34.378  1.00  0.00     0.007 A 
HETATM   28  C   UNL     1      -2.327   5.216 -33.963  1.00  0.00    -0.062 A 
HETATM   29  C   UNL     1      -1.194   5.179 -34.948  1.00  0.00     0.048 C 
HETATM   30  C   UNL     1      -2.089   5.029 -32.598  1.00  0.00     0.007 A 
HETATM   31  C   UNL     1      -3.119   5.168 -31.655  1.00  0.00     0.010 A 
ENDBRANCH   1  25
BRANCH  10  32
HETATM   32  C   UNL     1      -4.409   7.407 -29.434  1.00  0.00     0.294 C 
HETATM   33  O   UNL     1      -3.859   6.776 -28.544  1.00  0.00    -0.259 OA
BRANCH  32  34
HETATM   34  O   UNL     1      -4.051   8.574 -29.993  1.00  0.00    -0.313 OA
BRANCH  34  35
HETATM   35  C   UNL     1      -2.654   8.858 -30.253  1.00  0.00     0.124 C 
HETATM   36  C   UNL     1      -2.249   8.562 -31.695  1.00  0.00     0.040 C 
HETATM   37  C   UNL     1      -2.285  10.271 -29.815  1.00  0.00     0.040 C 
ENDBRANCH  34  35
ENDBRANCH  32  34
ENDBRANCH  10  32
TORSDOF 9
ENDMDL
MODEL 6
REMARK VINA RESULT:      -7.7      3.004      5.071
REMARK  9 active torsions:
REMARK  status: ('A' for Active; 'I' for Inactive)
REMARK    1  A    between atoms: C_5  and  C_6 
REMARK    2  A    between atoms: C_8  and  C_9 
REMARK    3  A    between atoms: C_9  and  C_10 
REMARK       I    between atoms: C_10  and  N_11 
REMARK    4  A    between atoms: N_11  and  C_12 
REMARK    5  A    between atoms: C_12  and  C_13 
REMARK    6  A    between atoms: C_13  and  N_14 
REMARK    7  A    between atoms: C_28  and  C_29 
REMARK    8  A    between atoms: C_29  and  O_30 
REMARK    9  A    between atoms: O_30  and  C_31 
ROOT
HETATM    1  C   UNL     1      -8.210   3.285 -32.069  1.00  0.00     0.166 C 
HETATM    2  N   UNL     1      -7.116   3.929 -31.321  1.00  0.00    -0.319 N 
HETATM    3  C   UNL     1      -5.833   4.085 -31.344  1.00  0.00     0.011 C 
HETATM    4  C   UNL     1      -7.744   4.733 -30.151  1.00  0.00     0.170 C 
HETATM    5  S   UNL     1      -6.607   4.972 -28.878  1.00  0.00    -0.086 SA
HETATM    6  C   UNL     1      -5.241   4.589 -30.033  1.00  0.00     0.135 C 
HETATM    7  N   UNL     1      -8.922   5.256 -30.215  1.00  0.00    -0.229 NA
HETATM    8  C   UNL     1      -9.552   5.235 -31.462  1.00  0.00     0.048 C 
HETATM    9  C   UNL     1     -10.529   6.372 -31.659  1.00  0.00     0.071 C 
HETATM   10  C   UNL     1      -9.196   4.347 -32.427  1.00  0.00     0.069 C 
ENDROOT
BRANCH   3  11
HETATM   11  C   UNL     1      -5.009   3.804 -32.571  1.00  0.00     0.156 C 
BRANCH  11  12
HETATM   12  C   UNL     1      -3.904   2.778 -32.331  1.00  0.00     0.223 C 
HETATM   13  N   UNL     1      -4.118   1.545 -32.887  1.00  0.00    -0.359 N 
HETATM   14  H   UNL     1      -5.014   1.383 -33.345  1.00  0.00     0.162 HD
HETATM   15  O   UNL     1      -2.889   3.038 -31.692  1.00  0.00    -0.273 OA
BRANCH  13  16
HETATM   16  C   UNL     1      -3.358   0.324 -32.580  1.00  0.00     0.150 C 
BRANCH  16  17
HETATM   17  C   UNL     1      -4.019  -0.756 -31.687  1.00  0.00     0.254 C 
BRANCH  17  18
HETATM   18  N   UNL     1      -4.121  -2.124 -32.342  1.00  0.00    -0.070 N 
HETATM   19  H   UNL     1      -5.025  -2.518 -32.013  1.00  0.00     0.279 HD
HETATM   20  C   UNL     1      -4.163  -2.091 -33.852  1.00  0.00     0.235 C 
HETATM   21  C   UNL     1      -4.418  -3.495 -34.386  1.00  0.00     0.028 C 
HETATM   22  C   UNL     1      -3.368  -4.483 -33.896  1.00  0.00     0.003 C 
HETATM   23  C   UNL     1      -3.263  -4.459 -32.377  1.00  0.00     0.028 C 
HETATM   24  C   UNL     1      -3.027  -3.051 -31.847  1.00  0.00     0.235 C 
ENDBRANCH  17  18
ENDBRANCH  16  17
ENDBRANCH  13  16
ENDBRANCH  11  12
ENDBRANCH   3  11
BRANCH   1  25
HETATM   25  C   UNL     1      -7.829   2.046 -32.864  1.00  0.00    -0.030 A 
HETATM   26  C   UNL     1      -7.924   0.798 -32.199  1.00  0.00     0.010 A 
HETATM   27  C   UNL     1      -7.720  -0.413 -32.866  1.00  0.00     0.007 A 
HETATM   28  C   UNL     1      -7.404  -0.422 -34.220  1.00  0.00    -0.062 A 
HETATM   29  C   UNL     1      -7.310  -1.716 -34.976  1.00  0.00     0.048 C 
HETATM   30  C   UNL     1      -7.269   0.801 -34.885  1.00  0.00     0.007 A 
HETATM   31  C   UNL     1      -7.463   2.018 -34.213  1.00  0.00     0.010 A 
ENDBRANCH   1  25
BRANCH  10  32
HETATM   32  C   UNL     1      -9.568   4.580 -33.817  1.00  0.00     0.294 C 
HETATM   33  O   UNL     1      -8.775   5.107 -34.583  1.00  0.00    -0.259 OA
BRANCH  32  34
HETATM   34  O   UNL     1     -10.812   4.137 -34.057  1.00  0.00    -0.313 OA
BRANCH  34  35
HETATM   35  C   UNL     1     -11.025   3.006 -34.939  1.00  0.00     0.124 C 
HETATM   36  C   UNL     1     -11.161   1.686 -34.185  1.00  0.00     0.040 C 
HETATM   37  C   UNL     1     -12.185   3.261 -35.896  1.00  0.00     0.040 C 
ENDBRANCH  34  35
ENDBRANCH  32  34
ENDBRANCH  10  32
TORSDOF 9
ENDMDL
MODEL 7
REMARK VINA RESULT:      -7.7      3.345      8.506
REMARK  9 active torsions:
REMARK  status: ('A' for Active; 'I' for Inactive)
REMARK    1  A    between atoms: C_5  and  C_6 
REMARK    2  A    between atoms: C_8  and  C_9 
REMARK    3  A    between atoms: C_9  and  C_10 
REMARK       I    between atoms: C_10  and  N_11 
REMARK    4  A    between atoms: N_11  and  C_12 
REMARK    5  A    between atoms: C_12  and  C_13 
REMARK    6  A    between atoms: C_13  and  N_14 
REMARK    7  A    between atoms: C_28  and  C_29 
REMARK    8  A    between atoms: C_29  and  O_30 
REMARK    9  A    between atoms: O_30  and  C_31 
ROOT
HETATM    1  C   UNL     1      -6.855   2.318 -32.523  1.00  0.00     0.166 C 
HETATM    2  N   UNL     1      -6.623   3.403 -31.553  1.00  0.00    -0.319 N 
HETATM    3  C   UNL     1      -7.229   4.083 -30.637  1.00  0.00     0.011 C 
HETATM    4  C   UNL     1      -5.127   3.810 -31.638  1.00  0.00     0.170 C 
HETATM    5  S   UNL     1      -4.887   5.420 -31.075  1.00  0.00    -0.086 SA
HETATM    6  C   UNL     1      -6.505   5.360 -30.223  1.00  0.00     0.135 C 
HETATM    7  N   UNL     1      -4.194   2.979 -31.963  1.00  0.00    -0.229 NA
HETATM    8  C   UNL     1      -4.556   1.633 -32.056  1.00  0.00     0.048 C 
HETATM    9  C   UNL     1      -3.415   0.685 -31.767  1.00  0.00     0.071 C 
HETATM   10  C   UNL     1      -5.845   1.252 -32.254  1.00  0.00     0.069 C 
ENDROOT
BRANCH   3  11
HETATM   11  C   UNL     1      -8.530   3.636 -30.027  1.00  0.00     0.156 C 
BRANCH  11  12
HETATM   12  C   UNL     1      -9.743   4.372 -30.590  1.00  0.00     0.223 C 
HETATM   13  N   UNL     1     -10.865   3.607 -30.763  1.00  0.00    -0.359 N 
HETATM   14  H   UNL     1     -10.788   2.608 -30.579  1.00  0.00     0.162 HD
HETATM   15  O   UNL     1      -9.720   5.569 -30.863  1.00  0.00    -0.273 OA
BRANCH  13  16
HETATM   16  C   UNL     1     -12.057   3.998 -31.529  1.00  0.00     0.150 C 
BRANCH  16  17
HETATM   17  C   UNL     1     -13.270   4.588 -30.765  1.00  0.00     0.254 C 
BRANCH  17  18
HETATM   18  N   UNL     1     -14.594   3.915 -31.089  1.00  0.00    -0.070 N 
HETATM   19  H   UNL     1     -14.954   3.568 -30.178  1.00  0.00     0.279 HD
HETATM   20  C   UNL     1     -15.638   4.842 -31.667  1.00  0.00     0.235 C 
HETATM   21  C   UNL     1     -16.960   4.097 -31.807  1.00  0.00     0.028 C 
HETATM   22  C   UNL     1     -16.813   2.846 -32.663  1.00  0.00     0.003 C 
HETATM   23  C   UNL     1     -15.703   1.949 -32.132  1.00  0.00     0.028 C 
HETATM   24  C   UNL     1     -14.389   2.703 -31.976  1.00  0.00     0.235 C 
ENDBRANCH  17  18
ENDBRANCH  16  17
ENDBRANCH  13  16
ENDBRANCH  11  12
ENDBRANCH   3  11
BRANCH   1  25
HETATM   25  C   UNL     1      -8.286   2.159 -33.009  1.00  0.00    -0.030 A 
HETATM   26  C   UNL     1      -8.771   3.131 -33.920  1.00  0.00     0.010 A 
HETATM   27  C   UNL     1     -10.024   3.017 -34.527  1.00  0.00     0.007 A 
HETATM   28  C   UNL     1     -10.845   1.931 -34.240  1.00  0.00    -0.062 A 
HETATM   29  C   UNL     1     -12.135   1.730 -34.981  1.00  0.00     0.048 C 
HETATM   30  C   UNL     1     -10.400   0.981 -33.316  1.00  0.00     0.007 A 
HETATM   31  C   UNL     1      -9.146   1.101 -32.697  1.00  0.00     0.010 A 
ENDBRANCH   1  25
BRANCH  10  32
HETATM   32  C   UNL     1      -6.264  -0.114 -31.963  1.00  0.00     0.294 C 
HETATM   33  O   UNL     1      -6.818  -0.371 -30.906  1.00  0.00    -0.259 OA
BRANCH  32  34
HETATM   34  O   UNL     1      -5.958  -0.932 -32.983  1.00  0.00    -0.313 OA
BRANCH  34  35
HETATM   35  C   UNL     1      -6.972  -1.297 -33.953  1.00  0.00     0.124 C 
HETATM   36  C   UNL     1      -6.978  -0.380 -35.174  1.00  0.00     0.040 C 
HETATM   37  C   UNL     1      -6.879  -2.773 -34.324  1.00  0.00     0.040 C 
ENDBRANCH  34  35
ENDBRANCH  32  34
ENDBRANCH  10  32
TORSDOF 9
ENDMDL
MODEL 8
REMARK VINA RESULT:      -7.6      2.620      8.112
REMARK  9 active torsions:
REMARK  status: ('A' for Active; 'I' for Inactive)
REMARK    1  A    between atoms: C_5  and  C_6 
REMARK    2  A    between atoms: C_8  and  C_9 
REMARK    3  A    between atoms: C_9  and  C_10 
REMARK       I    between atoms: C_10  and  N_11 
REMARK    4  A    between atoms: N_11  and  C_12 
REMARK    5  A    between atoms: C_12  and  C_13 
REMARK    6  A    between atoms: C_13  and  N_14 
REMARK    7  A    between atoms: C_28  and  C_29 
REMARK    8  A    between atoms: C_29  and  O_30 
REMARK    9  A    between atoms: O_30  and  C_31 
ROOT
HETATM    1  C   UNL     1      -6.465   3.547 -33.167  1.00  0.00     0.166 C 
HETATM    2  N   UNL     1      -7.705   4.007 -32.516  1.00  0.00    -0.319 N 
HETATM    3  C   UNL     1      -8.663   3.585 -31.758  1.00  0.00     0.011 C 
HETATM    4  C   UNL     1      -7.862   5.524 -32.803  1.00  0.00     0.170 C 
HETATM    5  S   UNL     1      -9.509   6.015 -32.676  1.00  0.00    -0.086 SA
HETATM    6  C   UNL     1      -9.884   4.498 -31.726  1.00  0.00     0.135 C 
HETATM    7  N   UNL     1      -6.854   6.312 -32.975  1.00  0.00    -0.229 NA
HETATM    8  C   UNL     1      -5.590   5.781 -32.704  1.00  0.00     0.048 C 
HETATM    9  C   UNL     1      -4.584   6.822 -32.268  1.00  0.00     0.071 C 
HETATM   10  C   UNL     1      -5.361   4.442 -32.712  1.00  0.00     0.069 C 
ENDROOT
BRANCH   3  11
HETATM   11  C   UNL     1      -8.563   2.309 -30.967  1.00  0.00     0.156 C 
BRANCH  11  12
HETATM   12  C   UNL     1      -9.191   1.111 -31.677  1.00  0.00     0.223 C 
HETATM   13  N   UNL     1     -10.149   1.416 -32.606  1.00  0.00    -0.359 N 
HETATM   14  H   UNL     1     -10.422   2.393 -32.699  1.00  0.00     0.162 HD
HETATM   15  O   UNL     1      -8.856  -0.046 -31.440  1.00  0.00    -0.273 OA
BRANCH  13  16
HETATM   16  C   UNL     1     -11.082   0.459 -33.218  1.00  0.00     0.150 C 
BRANCH  16  17
HETATM   17  C   UNL     1     -12.348   1.006 -33.925  1.00  0.00     0.254 C 
BRANCH  17  18
HETATM   18  N   UNL     1     -12.344   2.513 -34.125  1.00  0.00    -0.070 N 
HETATM   19  H   UNL     1     -11.413   2.830 -33.790  1.00  0.00     0.279 HD
HETATM   20  C   UNL     1     -12.481   2.950 -35.565  1.00  0.00     0.235 C 
HETATM   21  C   UNL     1     -12.311   4.461 -35.657  1.00  0.00     0.028 C 
HETATM   22  C   UNL     1     -13.308   5.195 -34.771  1.00  0.00     0.003 C 
HETATM   23  C   UNL     1     -13.231   4.697 -33.334  1.00  0.00     0.028 C 
HETATM   24  C   UNL     1     -13.383   3.184 -33.249  1.00  0.00     0.235 C 
ENDBRANCH  17  18
ENDBRANCH  16  17
ENDBRANCH  13  16
ENDBRANCH  11  12
ENDBRANCH   3  11
BRANCH   1  25
HETATM   25  C   UNL     1      -6.402   2.064 -33.497  1.00  0.00    -0.030 A 
HETATM   26  C   UNL     1      -7.125   1.625 -34.634  1.00  0.00     0.010 A 
HETATM   27  C   UNL     1      -7.040   0.312 -35.104  1.00  0.00     0.007 A 
HETATM   28  C   UNL     1      -6.235  -0.615 -34.449  1.00  0.00    -0.062 A 
HETATM   29  C   UNL     1      -6.033  -1.990 -35.017  1.00  0.00     0.048 C 
HETATM   30  C   UNL     1      -5.542  -0.210 -33.304  1.00  0.00     0.007 A 
HETATM   31  C   UNL     1      -5.637   1.106 -32.825  1.00  0.00     0.010 A 
ENDBRANCH   1  25
BRANCH  10  32
HETATM   32  C   UNL     1      -4.177   3.892 -32.062  1.00  0.00     0.294 C 
HETATM   33  O   UNL     1      -4.205   3.616 -30.872  1.00  0.00    -0.259 OA
BRANCH  32  34
HETATM   34  O   UNL     1      -3.171   3.758 -32.941  1.00  0.00    -0.313 OA
BRANCH  34  35
HETATM   35  C   UNL     1      -2.264   4.863 -33.181  1.00  0.00     0.124 C 
HETATM   36  C   UNL     1      -1.114   4.912 -32.177  1.00  0.00     0.040 C 
HETATM   37  C   UNL     1      -1.784   4.881 -34.628  1.00  0.00     0.040 C 
ENDBRANCH  34  35
ENDBRANCH  32  34
ENDBRANCH  10  32
TORSDOF 9
ENDMDL
MODEL 9
REMARK VINA RESULT:      -7.4      2.590      5.042
REMARK  9 active torsions:
REMARK  status: ('A' for Active; 'I' for Inactive)
REMARK    1  A    between atoms: C_5  and  C_6 
REMARK    2  A    between atoms: C_8  and  C_9 
REMARK    3  A    between atoms: C_9  and  C_10 
REMARK       I    between atoms: C_10  and  N_11 
REMARK    4  A    between atoms: N_11  and  C_12 
REMARK    5  A    between atoms: C_12  and  C_13 
REMARK    6  A    between atoms: C_13  and  N_14 
REMARK    7  A    between atoms: C_28  and  C_29 
REMARK    8  A    between atoms: C_29  and  O_30 
REMARK    9  A    between atoms: O_30  and  C_31 
ROOT
HETATM    1  C   UNL     1      -7.700   2.443 -31.962  1.00  0.00     0.166 C 
HETATM    2  N   UNL     1      -8.355   3.200 -33.045  1.00  0.00    -0.319 N 
HETATM    3  C   UNL     1      -8.355   4.365 -33.604  1.00  0.00     0.011 C 
HETATM    4  C   UNL     1      -9.323   2.237 -33.784  1.00  0.00     0.170 C 
HETATM    5  S   UNL     1     -10.572   3.108 -34.591  1.00  0.00    -0.086 SA
HETATM    6  C   UNL     1      -9.569   4.635 -34.486  1.00  0.00     0.135 C 
HETATM    7  N   UNL     1      -9.112   0.967 -33.875  1.00  0.00    -0.229 NA
HETATM    8  C   UNL     1      -7.867   0.505 -33.441  1.00  0.00     0.048 C 
HETATM    9  C   UNL     1      -7.417  -0.754 -34.146  1.00  0.00     0.071 C 
HETATM   10  C   UNL     1      -7.106   1.215 -32.569  1.00  0.00     0.069 C 
ENDROOT
BRANCH   3  11
HETATM   11  C   UNL     1      -7.240   5.354 -33.405  1.00  0.00     0.156 C 
BRANCH  11  12
HETATM   12  C   UNL     1      -5.916   4.898 -34.013  1.00  0.00     0.223 C 
HETATM   13  N   UNL     1      -4.818   5.631 -33.648  1.00  0.00    -0.359 N 
HETATM   14  H   UNL     1      -4.973   6.457 -33.071  1.00  0.00     0.162 HD
HETATM   15  O   UNL     1      -5.834   3.934 -34.769  1.00  0.00    -0.273 OA
BRANCH  13  16
HETATM   16  C   UNL     1      -3.498   5.574 -34.292  1.00  0.00     0.150 C 
BRANCH  16  17
HETATM   17  C   UNL     1      -2.439   6.639 -33.908  1.00  0.00     0.254 C 
BRANCH  17  18
HETATM   18  N   UNL     1      -1.731   6.363 -32.592  1.00  0.00    -0.070 N 
HETATM   19  H   UNL     1      -2.371   6.726 -31.857  1.00  0.00     0.279 HD
HETATM   20  C   UNL     1      -1.496   4.898 -32.306  1.00  0.00     0.235 C 
HETATM   21  C   UNL     1      -0.924   4.738 -30.903  1.00  0.00     0.028 C 
HETATM   22  C   UNL     1       0.359   5.537 -30.723  1.00  0.00     0.003 C 
HETATM   23  C   UNL     1       0.148   6.999 -31.092  1.00  0.00     0.028 C 
HETATM   24  C   UNL     1      -0.442   7.154 -32.487  1.00  0.00     0.235 C 
ENDBRANCH  17  18
ENDBRANCH  16  17
ENDBRANCH  13  16
ENDBRANCH  11  12
ENDBRANCH   3  11
BRANCH   1  25
HETATM   25  C   UNL     1      -7.174   3.270 -30.801  1.00  0.00    -0.030 A 
HETATM   26  C   UNL     1      -5.770   3.456 -30.724  1.00  0.00     0.010 A 
HETATM   27  C   UNL     1      -5.186   4.298 -29.775  1.00  0.00     0.007 A 
HETATM   28  C   UNL     1      -5.982   4.980 -28.860  1.00  0.00    -0.062 A 
HETATM   29  C   UNL     1      -5.378   5.985 -27.921  1.00  0.00     0.048 C 
HETATM   30  C   UNL     1      -7.365   4.782 -28.896  1.00  0.00     0.007 A 
HETATM   31  C   UNL     1      -7.951   3.927 -29.842  1.00  0.00     0.010 A 
ENDBRANCH   1  25
BRANCH  10  32
HETATM   32  C   UNL     1      -5.683   0.931 -32.430  1.00  0.00     0.294 C 
HETATM   33  O   UNL     1      -4.877   1.464 -33.178  1.00  0.00    -0.259 OA
BRANCH  32  34
HETATM   34  O   UNL     1      -5.466   0.071 -31.422  1.00  0.00    -0.313 OA
BRANCH  34  35
HETATM   35  C   UNL     1      -4.261  -0.734 -31.399  1.00  0.00     0.124 C 
HETATM   36  C   UNL     1      -4.114  -1.613 -32.638  1.00  0.00     0.040 C 
HETATM   37  C   UNL     1      -3.028   0.121 -31.132  1.00  0.00     0.040 C 
ENDBRANCH  34  35
ENDBRANCH  32  34
ENDBRANCH  10  32
TORSDOF 9
ENDMDL
MODEL 10
REMARK VINA RESULT:      -7.3      2.880      4.959
REMARK  9 active torsions:
REMARK  status: ('A' for Active; 'I' for Inactive)
REMARK    1  A    between atoms: C_5  and  C_6 
REMARK    2  A    between atoms: C_8  and  C_9 
REMARK    3  A    between atoms: C_9  and  C_10 
REMARK       I    between atoms: C_10  and  N_11 
REMARK    4  A    between atoms: N_11  and  C_12 
REMARK    5  A    between atoms: C_12  and  C_13 
REMARK    6  A    between atoms: C_13  and  N_14 
REMARK    7  A    between atoms: C_28  and  C_29 
REMARK    8  A    between atoms: C_29  and  O_30 
REMARK    9  A    between atoms: O_30  and  C_31 
ROOT
HETATM    1  C   UNL     1      -5.604   2.739 -31.810  1.00  0.00     0.166 C 
HETATM    2  N   UNL     1      -4.600   3.754 -31.441  1.00  0.00    -0.319 N 
HETATM    3  C   UNL     1      -4.458   4.817 -30.721  1.00  0.00     0.011 C 
HETATM    4  C   UNL     1      -3.254   3.359 -32.108  1.00  0.00     0.170 C 
HETATM    5  S   UNL     1      -2.229   4.731 -32.299  1.00  0.00    -0.086 SA
HETATM    6  C   UNL     1      -3.219   5.639 -31.057  1.00  0.00     0.135 C 
HETATM    7  N   UNL     1      -2.925   2.135 -32.348  1.00  0.00    -0.229 NA
HETATM    8  C   UNL     1      -3.751   1.145 -31.810  1.00  0.00     0.048 C 
HETATM    9  C   UNL     1      -3.027  -0.151 -31.527  1.00  0.00     0.071 C 
HETATM   10  C   UNL     1      -5.039   1.402 -31.462  1.00  0.00     0.069 C 
ENDROOT
BRANCH   3  11
HETATM   11  C   UNL     1      -5.430   5.191 -29.636  1.00  0.00     0.156 C 
BRANCH  11  12
HETATM   12  C   UNL     1      -5.051   6.478 -28.906  1.00  0.00     0.223 C 
HETATM   13  N   UNL     1      -4.091   6.343 -27.939  1.00  0.00    -0.359 N 
HETATM   14  H   UNL     1      -3.762   5.401 -27.729  1.00  0.00     0.162 HD
HETATM   15  O   UNL     1      -5.562   7.562 -29.171  1.00  0.00    -0.273 OA
BRANCH  13  16
HETATM   16  C   UNL     1      -3.752   7.350 -26.924  1.00  0.00     0.150 C 
BRANCH  16  17
HETATM   17  C   UNL     1      -2.939   8.596 -27.358  1.00  0.00     0.254 C 
BRANCH  17  18
HETATM   18  N   UNL     1      -1.433   8.396 -27.326  1.00  0.00    -0.070 N 
HETATM   19  H   UNL     1      -1.035   9.343 -27.162  1.00  0.00     0.279 HD
HETATM   20  C   UNL     1      -0.947   7.501 -26.210  1.00  0.00     0.235 C 
HETATM   21  C   UNL     1       0.576   7.498 -26.185  1.00  0.00     0.028 C 
HETATM   22  C   UNL     1       1.161   7.063 -27.521  1.00  0.00     0.003 C 
HETATM   23  C   UNL     1       0.609   7.910 -28.660  1.00  0.00     0.028 C 
HETATM   24  C   UNL     1      -0.914   7.924 -28.670  1.00  0.00     0.235 C 
ENDBRANCH  17  18
ENDBRANCH  16  17
ENDBRANCH  13  16
ENDBRANCH  11  12
ENDBRANCH   3  11
BRANCH   1  25
HETATM   25  C   UNL     1      -7.053   3.193 -31.758  1.00  0.00    -0.030 A 
HETATM   26  C   UNL     1      -7.624   3.671 -32.964  1.00  0.00     0.010 A 
HETATM   27  C   UNL     1      -8.979   3.997 -33.064  1.00  0.00     0.007 A 
HETATM   28  C   UNL     1      -9.814   3.866 -31.958  1.00  0.00    -0.062 A 
HETATM   29  C   UNL     1     -11.293   4.088 -32.086  1.00  0.00     0.048 C 
HETATM   30  C   UNL     1      -9.262   3.430 -30.750  1.00  0.00     0.007 A 
HETATM   31  C   UNL     1      -7.899   3.114 -30.646  1.00  0.00     0.010 A 
ENDBRANCH   1  25
BRANCH  10  32
HETATM   32  C   UNL     1      -5.754   0.504 -30.563  1.00  0.00     0.294 C 
HETATM   33  O   UNL     1      -5.795   0.741 -29.366  1.00  0.00    -0.259 OA
BRANCH  32  34
HETATM   34  O   UNL     1      -6.303  -0.514 -31.246  1.00  0.00    -0.313 OA
BRANCH  34  35
HETATM   35  C   UNL     1      -6.821  -0.298 -32.582  1.00  0.00     0.124 C 
HETATM   36  C   UNL     1      -6.396  -1.388 -33.564  1.00  0.00     0.040 C 
HETATM   37  C   UNL     1      -8.330  -0.078 -32.563  1.00  0.00     0.040 C 
ENDBRANCH  34  35
ENDBRANCH  32  34
ENDBRANCH  10  32
TORSDOF 9
ENDMDL
