MODEL 1
REMARK VINA RESULT:     -10.0      0.000      0.000
REMARK  6 active torsions:
REMARK  status: ('A' for Active; 'I' for Inactive)
REMARK    1  A    between atoms: O_2  and  C_3 
REMARK    2  A    between atoms: C_6  and  C_7 
REMARK    3  A    between atoms: C_13  and  C_14 
REMARK       I    between atoms: C_14  and  N_15 
REMARK    4  A    between atoms: N_15  and  C_16 
REMARK    5  A    between atoms: C_18  and  O_19 
REMARK    6  A    between atoms: C_24  and  C_25 
ROOT
HETATM    1  C   UNL     1      -7.334   0.248 -33.438  1.00  0.00     0.118 C 
HETATM    2  N   UNL     1      -6.592   1.509 -33.276  1.00  0.00    -0.365 N 
HETATM    3  C   UNL     1      -7.220   2.702 -33.493  1.00  0.00     0.138 A 
HETATM    4  N   UNL     1      -8.514   2.745 -33.960  1.00  0.00    -0.240 N 
HETATM    5  N   UNL     1      -8.997   3.981 -34.140  1.00  0.00    -0.181 NA
HETATM    6  C   UNL     1      -7.988   4.759 -33.741  1.00  0.00     0.160 A 
HETATM    7  C   UNL     1      -6.836   4.026 -33.356  1.00  0.00     0.096 A 
HETATM    8  C   UNL     1      -9.321   1.581 -34.266  1.00  0.00     0.221 C 
HETATM    9  C   UNL     1      -8.399   0.386 -34.538  1.00  0.00     0.066 C 
HETATM   10  H   UNL     1      -5.928   1.448 -32.500  1.00  0.00     0.161 HD
ENDROOT
BRANCH   7  11
HETATM   11  C   UNL     1      -5.569   4.614 -32.947  1.00  0.00     0.261 C 
HETATM   12  N   UNL     1      -4.776   5.028 -34.000  1.00  0.00    -0.323 N 
HETATM   13  H   UNL     1      -5.181   4.912 -34.920  1.00  0.00     0.169 HD
HETATM   14  O   UNL     1      -5.305   4.733 -31.756  1.00  0.00    -0.267 OA
BRANCH  12  15
HETATM   15  C   UNL     1      -3.514   5.653 -33.937  1.00  0.00     0.037 A 
HETATM   16  C   UNL     1      -3.258   6.833 -33.234  1.00  0.00     0.066 A 
HETATM   17  C   UNL     1      -1.979   7.389 -33.242  1.00  0.00     0.067 A 
HETATM   18  C   UNL     1      -0.936   6.781 -33.930  1.00  0.00     0.036 A 
HETATM   19  C   UNL     1      -1.180   5.601 -34.628  1.00  0.00     0.005 A 
HETATM   20  C   UNL     1      -2.462   5.043 -34.636  1.00  0.00     0.029 A 
BRANCH  17  21
HETATM   21  O   UNL     1      -1.788   8.553 -32.555  1.00  0.00    -0.361 OA
HETATM   22  H   UNL     1      -2.542   9.142 -32.718  1.00  0.00     0.217 HD
ENDBRANCH  17  21
ENDBRANCH  12  15
ENDBRANCH   7  11
BRANCH   1  23
HETATM   23  C   UNL     1      -6.386  -0.887 -33.784  1.00  0.00    -0.035 A 
HETATM   24  C   UNL     1      -5.088  -0.898 -33.248  1.00  0.00     0.012 A 
HETATM   25  C   UNL     1      -4.227  -1.980 -33.468  1.00  0.00     0.037 A 
HETATM   26  C   UNL     1      -4.651  -3.069 -34.226  1.00  0.00     0.068 A 
HETATM   27  C   UNL     1      -5.930  -3.056 -34.784  1.00  0.00     0.037 A 
HETATM   28  C   UNL     1      -6.795  -1.980 -34.560  1.00  0.00     0.012 A 
BRANCH  26  29
HETATM   29  O   UNL     1      -3.918  -4.192 -34.492  1.00  0.00    -0.356 OA
HETATM   30  C   UNL     1      -3.508  -4.965 -33.370  1.00  0.00     0.210 C 
ENDBRANCH  26  29
ENDBRANCH   1  23
BRANCH   8  31
HETATM   31  C   UNL     1     -10.297   1.313 -33.141  1.00  0.00     0.409 C 
HETATM   32  F   UNL     1      -9.819   1.675 -31.930  1.00  0.00    -0.169 F 
HETATM   33  F   UNL     1     -11.486   1.925 -33.315  1.00  0.00    -0.169 F 
HETATM   34  F   UNL     1     -10.556  -0.019 -33.068  1.00  0.00    -0.169 F 
ENDBRANCH   8  31
TORSDOF 6
ENDMDL
MODEL 2
REMARK VINA RESULT:      -9.8      1.228      1.426
REMARK  6 active torsions:
REMARK  status: ('A' for Active; 'I' for Inactive)
REMARK    1  A    between atoms: O_2  and  C_3 
REMARK    2  A    between atoms: C_6  and  C_7 
REMARK    3  A    between atoms: C_13  and  C_14 
REMARK       I    between atoms: C_14  and  N_15 
REMARK    4  A    between atoms: N_15  and  C_16 
REMARK    5  A    between atoms: C_18  and  O_19 
REMARK    6  A    between atoms: C_24  and  C_25 
ROOT
HETATM    1  C   UNL     1      -7.521   0.282 -33.512  1.00  0.00     0.118 C 
HETATM    2  N   UNL     1      -6.874   1.599 -33.394  1.00  0.00    -0.365 N 
HETATM    3  C   UNL     1      -7.593   2.735 -33.636  1.00  0.00     0.138 A 
HETATM    4  N   UNL     1      -8.890   2.668 -34.087  1.00  0.00    -0.240 N 
HETATM    5  N   UNL     1      -9.466   3.858 -34.296  1.00  0.00    -0.181 NA
HETATM    6  C   UNL     1      -8.515   4.721 -33.931  1.00  0.00     0.160 A 
HETATM    7  C   UNL     1      -7.307   4.087 -33.541  1.00  0.00     0.096 A 
HETATM    8  C   UNL     1      -9.611   1.438 -34.351  1.00  0.00     0.221 C 
HETATM    9  C   UNL     1      -8.605   0.308 -34.602  1.00  0.00     0.066 C 
HETATM   10  H   UNL     1      -6.199   1.610 -32.625  1.00  0.00     0.161 HD
ENDROOT
BRANCH   7  11
HETATM   11  C   UNL     1      -6.084   4.780 -33.164  1.00  0.00     0.261 C 
HETATM   12  N   UNL     1      -4.929   4.077 -33.451  1.00  0.00    -0.323 N 
HETATM   13  H   UNL     1      -5.066   3.191 -33.922  1.00  0.00     0.169 HD
HETATM   14  O   UNL     1      -6.141   5.899 -32.670  1.00  0.00    -0.267 OA
BRANCH  12  15
HETATM   15  C   UNL     1      -3.596   4.481 -33.235  1.00  0.00     0.037 A 
HETATM   16  C   UNL     1      -2.893   4.262 -32.048  1.00  0.00     0.066 A 
HETATM   17  C   UNL     1      -1.580   4.714 -31.918  1.00  0.00     0.067 A 
HETATM   18  C   UNL     1      -0.941   5.373 -32.962  1.00  0.00     0.036 A 
HETATM   19  C   UNL     1      -1.632   5.590 -34.151  1.00  0.00     0.005 A 
HETATM   20  C   UNL     1      -2.952   5.152 -34.286  1.00  0.00     0.029 A 
BRANCH  17  21
HETATM   21  O   UNL     1      -0.946   4.491 -30.731  1.00  0.00    -0.361 OA
HETATM   22  H   UNL     1      -1.582   4.603 -30.008  1.00  0.00     0.217 HD
ENDBRANCH  17  21
ENDBRANCH  12  15
ENDBRANCH   7  11
BRANCH   1  23
HETATM   23  C   UNL     1      -6.494  -0.789 -33.838  1.00  0.00    -0.035 A 
HETATM   24  C   UNL     1      -5.170  -0.642 -33.394  1.00  0.00     0.012 A 
HETATM   25  C   UNL     1      -4.227  -1.657 -33.594  1.00  0.00     0.037 A 
HETATM   26  C   UNL     1      -4.593  -2.837 -34.238  1.00  0.00     0.068 A 
HETATM   27  C   UNL     1      -5.900  -2.981 -34.705  1.00  0.00     0.037 A 
HETATM   28  C   UNL     1      -6.847  -1.972 -34.502  1.00  0.00     0.012 A 
BRANCH  26  29
HETATM   29  O   UNL     1      -3.777  -3.908 -34.471  1.00  0.00    -0.356 OA
HETATM   30  C   UNL     1      -3.514  -4.761 -33.363  1.00  0.00     0.210 C 
ENDBRANCH  26  29
ENDBRANCH   1  23
BRANCH   8  31
HETATM   31  C   UNL     1     -10.552   1.131 -33.207  1.00  0.00     0.409 C 
HETATM   32  F   UNL     1     -10.712  -0.194 -32.995  1.00  0.00    -0.169 F 
HETATM   33  F   UNL     1     -10.171   1.693 -32.042  1.00  0.00    -0.169 F 
HETATM   34  F   UNL     1     -11.788   1.625 -33.486  1.00  0.00    -0.169 F 
ENDBRANCH   8  31
TORSDOF 6
ENDMDL
MODEL 3
REMARK VINA RESULT:      -9.4      1.994      2.290
REMARK  6 active torsions:
REMARK  status: ('A' for Active; 'I' for Inactive)
REMARK    1  A    between atoms: O_2  and  C_3 
REMARK    2  A    between atoms: C_6  and  C_7 
REMARK    3  A    between atoms: C_13  and  C_14 
REMARK       I    between atoms: C_14  and  N_15 
REMARK    4  A    between atoms: N_15  and  C_16 
REMARK    5  A    between atoms: C_18  and  O_19 
REMARK    6  A    between atoms: C_24  and  C_25 
ROOT
HETATM    1  C   UNL     1      -6.810   0.613 -33.486  1.00  0.00     0.118 C 
HETATM    2  N   UNL     1      -5.687   1.542 -33.285  1.00  0.00    -0.365 N 
HETATM    3  C   UNL     1      -5.874   2.885 -33.450  1.00  0.00     0.138 A 
HETATM    4  N   UNL     1      -7.076   3.380 -33.901  1.00  0.00    -0.240 N 
HETATM    5  N   UNL     1      -7.112   4.712 -34.030  1.00  0.00    -0.181 NA
HETATM    6  C   UNL     1      -5.901   5.088 -33.612  1.00  0.00     0.160 A 
HETATM    7  C   UNL     1      -5.066   3.994 -33.267  1.00  0.00     0.096 A 
HETATM    8  C   UNL     1      -8.228   2.570 -34.243  1.00  0.00     0.221 C 
HETATM    9  C   UNL     1      -7.763   1.145 -34.570  1.00  0.00     0.066 C 
HETATM   10  H   UNL     1      -5.085   1.230 -32.519  1.00  0.00     0.161 HD
ENDROOT
BRANCH   7  11
HETATM   11  C   UNL     1      -3.676   4.104 -32.849  1.00  0.00     0.261 C 
HETATM   12  N   UNL     1      -3.353   5.325 -32.289  1.00  0.00    -0.323 N 
HETATM   13  H   UNL     1      -4.121   5.978 -32.197  1.00  0.00     0.169 HD
HETATM   14  O   UNL     1      -2.919   3.150 -32.982  1.00  0.00    -0.267 OA
BRANCH  12  15
HETATM   15  C   UNL     1      -2.108   5.733 -31.767  1.00  0.00     0.037 A 
HETATM   16  C   UNL     1      -1.572   5.267 -30.564  1.00  0.00     0.066 A 
HETATM   17  C   UNL     1      -0.338   5.741 -30.117  1.00  0.00     0.067 A 
HETATM   18  C   UNL     1       0.385   6.668 -30.858  1.00  0.00     0.036 A 
HETATM   19  C   UNL     1      -0.138   7.133 -32.062  1.00  0.00     0.005 A 
HETATM   20  C   UNL     1      -1.380   6.672 -32.511  1.00  0.00     0.029 A 
BRANCH  17  21
HETATM   21  O   UNL     1       0.131   5.268 -28.927  1.00  0.00    -0.361 OA
HETATM   22  H   UNL     1      -0.512   4.639 -28.563  1.00  0.00     0.217 HD
ENDBRANCH  17  21
ENDBRANCH  12  15
ENDBRANCH   7  11
BRANCH   1  23
HETATM   23  C   UNL     1      -6.301  -0.761 -33.885  1.00  0.00    -0.035 A 
HETATM   24  C   UNL     1      -4.964  -1.108 -33.632  1.00  0.00     0.012 A 
HETATM   25  C   UNL     1      -4.493  -2.399 -33.897  1.00  0.00     0.037 A 
HETATM   26  C   UNL     1      -5.351  -3.365 -34.416  1.00  0.00     0.068 A 
HETATM   27  C   UNL     1      -6.675  -3.023 -34.694  1.00  0.00     0.037 A 
HETATM   28  C   UNL     1      -7.151  -1.736 -34.424  1.00  0.00     0.012 A 
BRANCH  26  29
HETATM   29  O   UNL     1      -5.022  -4.663 -34.694  1.00  0.00    -0.356 OA
HETATM   30  C   UNL     1      -4.022  -5.255 -33.872  1.00  0.00     0.210 C 
ENDBRANCH  26  29
ENDBRANCH   1  23
BRANCH   8  31
HETATM   31  C   UNL     1      -9.240   2.605 -33.119  1.00  0.00     0.409 C 
HETATM   32  F   UNL     1      -9.942   1.456 -33.004  1.00  0.00    -0.169 F 
HETATM   33  F   UNL     1      -8.689   2.873 -31.918  1.00  0.00    -0.169 F 
HETATM   34  F   UNL     1     -10.150   3.587 -33.353  1.00  0.00    -0.169 F 
ENDBRANCH   8  31
TORSDOF 6
ENDMDL
MODEL 4
REMARK VINA RESULT:      -9.3      2.916      5.438
REMARK  6 active torsions:
REMARK  status: ('A' for Active; 'I' for Inactive)
REMARK    1  A    between atoms: O_2  and  C_3 
REMARK    2  A    between atoms: C_6  and  C_7 
REMARK    3  A    between atoms: C_13  and  C_14 
REMARK       I    between atoms: C_14  and  N_15 
REMARK    4  A    between atoms: N_15  and  C_16 
REMARK    5  A    between atoms: C_18  and  O_19 
REMARK    6  A    between atoms: C_24  and  C_25 
ROOT
HETATM    1  C   UNL     1      -7.988   0.796 -34.012  1.00  0.00     0.118 C 
HETATM    2  N   UNL     1      -6.957   1.726 -33.525  1.00  0.00    -0.365 N 
HETATM    3  C   UNL     1      -5.778   1.241 -33.035  1.00  0.00     0.138 A 
HETATM    4  N   UNL     1      -5.576  -0.113 -32.894  1.00  0.00    -0.240 N 
HETATM    5  N   UNL     1      -4.382  -0.444 -32.387  1.00  0.00    -0.181 NA
HETATM    6  C   UNL     1      -3.782   0.739 -32.230  1.00  0.00     0.160 A 
HETATM    7  C   UNL     1      -4.612   1.835 -32.584  1.00  0.00     0.096 A 
HETATM    8  C   UNL     1      -6.548  -1.134 -33.229  1.00  0.00     0.221 C 
HETATM    9  C   UNL     1      -7.953  -0.517 -33.213  1.00  0.00     0.066 C 
HETATM   10  H   UNL     1      -6.928   2.575 -34.096  1.00  0.00     0.161 HD
ENDROOT
BRANCH   7  11
HETATM   11  C   UNL     1      -4.246   3.237 -32.447  1.00  0.00     0.261 C 
HETATM   12  N   UNL     1      -2.916   3.499 -32.715  1.00  0.00    -0.323 N 
HETATM   13  H   UNL     1      -2.367   2.701 -33.012  1.00  0.00     0.169 HD
HETATM   14  O   UNL     1      -5.097   4.066 -32.150  1.00  0.00    -0.267 OA
BRANCH  12  15
HETATM   15  C   UNL     1      -2.261   4.748 -32.696  1.00  0.00     0.037 A 
HETATM   16  C   UNL     1      -2.502   5.774 -33.612  1.00  0.00     0.066 A 
HETATM   17  C   UNL     1      -1.793   6.971 -33.526  1.00  0.00     0.067 A 
HETATM   18  C   UNL     1      -0.848   7.175 -32.527  1.00  0.00     0.036 A 
HETATM   19  C   UNL     1      -0.606   6.161 -31.605  1.00  0.00     0.005 A 
HETATM   20  C   UNL     1      -1.303   4.952 -31.691  1.00  0.00     0.029 A 
BRANCH  17  21
HETATM   21  O   UNL     1      -2.054   7.933 -34.458  1.00  0.00    -0.361 OA
HETATM   22  H   UNL     1      -1.311   8.556 -34.484  1.00  0.00     0.217 HD
ENDBRANCH  17  21
ENDBRANCH  12  15
ENDBRANCH   7  11
BRANCH   1  23
HETATM   23  C   UNL     1      -9.367   1.424 -33.901  1.00  0.00    -0.035 A 
HETATM   24  C   UNL     1      -9.553   2.765 -34.272  1.00  0.00     0.012 A 
HETATM   25  C   UNL     1     -10.829   3.341 -34.275  1.00  0.00     0.037 A 
HETATM   26  C   UNL     1     -11.940   2.584 -33.910  1.00  0.00     0.068 A 
HETATM   27  C   UNL     1     -11.762   1.258 -33.516  1.00  0.00     0.037 A 
HETATM   28  C   UNL     1     -10.490   0.677 -33.518  1.00  0.00     0.012 A 
BRANCH  26  29
HETATM   29  O   UNL     1     -13.236   3.021 -33.895  1.00  0.00    -0.356 OA
HETATM   30  C   UNL     1     -13.866   3.098 -32.621  1.00  0.00     0.210 C 
ENDBRANCH  26  29
ENDBRANCH   1  23
BRANCH   8  31
HETATM   31  C   UNL     1      -6.207  -1.758 -34.565  1.00  0.00     0.409 C 
HETATM   32  F   UNL     1      -6.261  -0.878 -35.589  1.00  0.00    -0.169 F 
HETATM   33  F   UNL     1      -4.990  -2.338 -34.583  1.00  0.00    -0.169 F 
HETATM   34  F   UNL     1      -7.104  -2.737 -34.854  1.00  0.00    -0.169 F 
ENDBRANCH   8  31
TORSDOF 6
ENDMDL
MODEL 5
REMARK VINA RESULT:      -9.1      3.702      6.877
REMARK  6 active torsions:
REMARK  status: ('A' for Active; 'I' for Inactive)
REMARK    1  A    between atoms: O_2  and  C_3 
REMARK    2  A    between atoms: C_6  and  C_7 
REMARK    3  A    between atoms: C_13  and  C_14 
REMARK       I    between atoms: C_14  and  N_15 
REMARK    4  A    between atoms: N_15  and  C_16 
REMARK    5  A    between atoms: C_18  and  O_19 
REMARK    6  A    between atoms: C_24  and  C_25 
ROOT
HETATM    1  C   UNL     1      -5.521   0.971 -33.015  1.00  0.00     0.118 C 
HETATM    2  N   UNL     1      -6.893   1.421 -32.731  1.00  0.00    -0.365 N 
HETATM    3  C   UNL     1      -7.107   2.435 -31.840  1.00  0.00     0.138 A 
HETATM    4  N   UNL     1      -6.066   2.979 -31.126  1.00  0.00    -0.240 N 
HETATM    5  N   UNL     1      -6.424   3.953 -30.281  1.00  0.00    -0.181 NA
HETATM    6  C   UNL     1      -7.739   4.062 -30.486  1.00  0.00     0.160 A 
HETATM    7  C   UNL     1      -8.237   3.119 -31.423  1.00  0.00     0.096 A 
HETATM    8  C   UNL     1      -4.683   2.556 -31.227  1.00  0.00     0.221 C 
HETATM    9  C   UNL     1      -4.634   1.122 -31.769  1.00  0.00     0.066 C 
HETATM   10  H   UNL     1      -7.473   1.388 -33.573  1.00  0.00     0.161 HD
ENDROOT
BRANCH   7  11
HETATM   11  C   UNL     1      -9.637   2.961 -31.786  1.00  0.00     0.261 C 
HETATM   12  N   UNL     1      -9.847   2.123 -32.864  1.00  0.00    -0.323 N 
HETATM   13  H   UNL     1      -9.015   1.689 -33.245  1.00  0.00     0.169 HD
HETATM   14  O   UNL     1     -10.506   3.525 -31.132  1.00  0.00    -0.267 OA
BRANCH  12  15
HETATM   15  C   UNL     1     -11.078   1.747 -33.439  1.00  0.00     0.037 A 
HETATM   16  C   UNL     1     -11.710   0.523 -33.211  1.00  0.00     0.066 A 
HETATM   17  C   UNL     1     -12.921   0.232 -33.838  1.00  0.00     0.067 A 
HETATM   18  C   UNL     1     -13.529   1.150 -34.686  1.00  0.00     0.036 A 
HETATM   19  C   UNL     1     -12.910   2.376 -34.915  1.00  0.00     0.005 A 
HETATM   20  C   UNL     1     -11.689   2.672 -34.300  1.00  0.00     0.029 A 
BRANCH  17  21
HETATM   21  O   UNL     1     -13.485  -0.986 -33.595  1.00  0.00    -0.361 OA
HETATM   22  H   UNL     1     -13.307  -1.238 -32.675  1.00  0.00     0.217 HD
ENDBRANCH  17  21
ENDBRANCH  12  15
ENDBRANCH   7  11
BRANCH   1  23
HETATM   23  C   UNL     1      -5.518  -0.477 -33.472  1.00  0.00    -0.035 A 
HETATM   24  C   UNL     1      -6.667  -1.020 -34.070  1.00  0.00     0.012 A 
HETATM   25  C   UNL     1      -6.661  -2.320 -34.590  1.00  0.00     0.037 A 
HETATM   26  C   UNL     1      -5.507  -3.097 -34.523  1.00  0.00     0.068 A 
HETATM   27  C   UNL     1      -4.368  -2.575 -33.907  1.00  0.00     0.037 A 
HETATM   28  C   UNL     1      -4.368  -1.274 -33.393  1.00  0.00     0.012 A 
BRANCH  26  29
HETATM   29  O   UNL     1      -5.366  -4.365 -35.013  1.00  0.00    -0.356 OA
HETATM   30  C   UNL     1      -4.526  -5.244 -34.272  1.00  0.00     0.210 C 
ENDBRANCH  26  29
ENDBRANCH   1  23
BRANCH   8  31
HETATM   31  C   UNL     1      -3.903   3.526 -32.087  1.00  0.00     0.409 C 
HETATM   32  F   UNL     1      -4.665   4.129 -33.027  1.00  0.00    -0.169 F 
HETATM   33  F   UNL     1      -3.289   4.491 -31.374  1.00  0.00    -0.169 F 
HETATM   34  F   UNL     1      -2.926   2.860 -32.757  1.00  0.00    -0.169 F 
ENDBRANCH   8  31
TORSDOF 6
ENDMDL
MODEL 6
REMARK VINA RESULT:      -9.1      3.793      6.646
REMARK  6 active torsions:
REMARK  status: ('A' for Active; 'I' for Inactive)
REMARK    1  A    between atoms: O_2  and  C_3 
REMARK    2  A    between atoms: C_6  and  C_7 
REMARK    3  A    between atoms: C_13  and  C_14 
REMARK       I    between atoms: C_14  and  N_15 
REMARK    4  A    between atoms: N_15  and  C_16 
REMARK    5  A    between atoms: C_18  and  O_19 
REMARK    6  A    between atoms: C_24  and  C_25 
ROOT
HETATM    1  C   UNL     1      -5.191   1.018 -32.993  1.00  0.00     0.118 C 
HETATM    2  N   UNL     1      -6.523   1.433 -32.524  1.00  0.00    -0.365 N 
HETATM    3  C   UNL     1      -6.635   2.360 -31.527  1.00  0.00     0.138 A 
HETATM    4  N   UNL     1      -5.521   2.842 -30.882  1.00  0.00    -0.240 N 
HETATM    5  N   UNL     1      -5.782   3.734 -29.918  1.00  0.00    -0.181 NA
HETATM    6  C   UNL     1      -7.111   3.854 -29.970  1.00  0.00     0.160 A 
HETATM    7  C   UNL     1      -7.710   2.999 -30.931  1.00  0.00     0.096 A 
HETATM    8  C   UNL     1      -4.159   2.437 -31.168  1.00  0.00     0.221 C 
HETATM    9  C   UNL     1      -4.175   1.058 -31.840  1.00  0.00     0.066 C 
HETATM   10  H   UNL     1      -7.190   1.474 -33.299  1.00  0.00     0.161 HD
ENDROOT
BRANCH   7  11
HETATM   11  C   UNL     1      -9.142   2.867 -31.154  1.00  0.00     0.261 C 
HETATM   12  N   UNL     1      -9.481   2.549 -32.456  1.00  0.00    -0.323 N 
HETATM   13  H   UNL     1      -8.700   2.405 -33.084  1.00  0.00     0.169 HD
HETATM   14  O   UNL     1      -9.923   3.008 -30.221  1.00  0.00    -0.267 OA
BRANCH  12  15
HETATM   15  C   UNL     1     -10.769   2.330 -32.984  1.00  0.00     0.037 A 
HETATM   16  C   UNL     1     -11.718   3.336 -33.180  1.00  0.00     0.066 A 
HETATM   17  C   UNL     1     -12.976   3.022 -33.693  1.00  0.00     0.067 A 
HETATM   18  C   UNL     1     -13.308   1.715 -34.031  1.00  0.00     0.036 A 
HETATM   19  C   UNL     1     -12.366   0.706 -33.846  1.00  0.00     0.005 A 
HETATM   20  C   UNL     1     -11.106   1.010 -33.320  1.00  0.00     0.029 A 
BRANCH  17  21
HETATM   21  O   UNL     1     -13.872   4.040 -33.847  1.00  0.00    -0.361 OA
HETATM   22  H   UNL     1     -14.163   4.067 -34.772  1.00  0.00     0.217 HD
ENDBRANCH  17  21
ENDBRANCH  12  15
ENDBRANCH   7  11
BRANCH   1  23
HETATM   23  C   UNL     1      -5.244  -0.383 -33.578  1.00  0.00    -0.035 A 
HETATM   24  C   UNL     1      -4.126  -1.225 -33.470  1.00  0.00     0.012 A 
HETATM   25  C   UNL     1      -4.179  -2.553 -33.909  1.00  0.00     0.037 A 
HETATM   26  C   UNL     1      -5.352  -3.062 -34.461  1.00  0.00     0.068 A 
HETATM   27  C   UNL     1      -6.461  -2.225 -34.596  1.00  0.00     0.037 A 
HETATM   28  C   UNL     1      -6.414  -0.900 -34.152  1.00  0.00     0.012 A 
BRANCH  26  29
HETATM   29  O   UNL     1      -5.539  -4.342 -34.903  1.00  0.00    -0.356 OA
HETATM   30  C   UNL     1      -6.719  -4.587 -35.662  1.00  0.00     0.210 C 
ENDBRANCH  26  29
ENDBRANCH   1  23
BRANCH   8  31
HETATM   31  C   UNL     1      -3.471   3.486 -32.015  1.00  0.00     0.409 C 
HETATM   32  F   UNL     1      -2.615   2.958 -32.918  1.00  0.00    -0.169 F 
HETATM   33  F   UNL     1      -4.335   4.279 -32.680  1.00  0.00    -0.169 F 
HETATM   34  F   UNL     1      -2.731   4.303 -31.220  1.00  0.00    -0.169 F 
ENDBRANCH   8  31
TORSDOF 6
ENDMDL
MODEL 7
REMARK VINA RESULT:      -8.9      3.887      7.468
REMARK  6 active torsions:
REMARK  status: ('A' for Active; 'I' for Inactive)
REMARK    1  A    between atoms: O_2  and  C_3 
REMARK    2  A    between atoms: C_6  and  C_7 
REMARK    3  A    between atoms: C_13  and  C_14 
REMARK       I    between atoms: C_14  and  N_15 
REMARK    4  A    between atoms: N_15  and  C_16 
REMARK    5  A    between atoms: C_18  and  O_19 
REMARK    6  A    between atoms: C_24  and  C_25 
ROOT
HETATM    1  C   UNL     1      -6.335   1.621 -33.868  1.00  0.00     0.118 C 
HETATM    2  N   UNL     1      -7.795   1.794 -33.826  1.00  0.00    -0.365 N 
HETATM    3  C   UNL     1      -8.339   2.831 -33.122  1.00  0.00     0.138 A 
HETATM    4  N   UNL     1      -7.546   3.662 -32.365  1.00  0.00    -0.240 N 
HETATM    5  N   UNL     1      -8.215   4.625 -31.717  1.00  0.00    -0.181 NA
HETATM    6  C   UNL     1      -9.478   4.425 -32.101  1.00  0.00     0.160 A 
HETATM    7  C   UNL     1      -9.631   3.300 -32.952  1.00  0.00     0.096 A 
HETATM    8  C   UNL     1      -6.109   3.537 -32.229  1.00  0.00     0.221 C 
HETATM    9  C   UNL     1      -5.696   2.096 -32.553  1.00  0.00     0.066 C 
HETATM   10  H   UNL     1      -8.222   1.544 -34.722  1.00  0.00     0.161 HD
ENDROOT
BRANCH   7  11
HETATM   11  C   UNL     1     -10.901   2.806 -33.463  1.00  0.00     0.261 C 
HETATM   12  N   UNL     1     -11.931   2.847 -32.544  1.00  0.00    -0.323 N 
HETATM   13  H   UNL     1     -11.695   3.250 -31.645  1.00  0.00     0.169 HD
HETATM   14  O   UNL     1     -10.988   2.431 -34.626  1.00  0.00    -0.267 OA
BRANCH  12  15
HETATM   15  C   UNL     1     -13.275   2.468 -32.735  1.00  0.00     0.037 A 
HETATM   16  C   UNL     1     -13.697   1.527 -33.677  1.00  0.00     0.066 A 
HETATM   17  C   UNL     1     -15.053   1.226 -33.807  1.00  0.00     0.067 A 
HETATM   18  C   UNL     1     -16.005   1.839 -33.001  1.00  0.00     0.036 A 
HETATM   19  C   UNL     1     -15.592   2.773 -32.054  1.00  0.00     0.005 A 
HETATM   20  C   UNL     1     -14.237   3.090 -31.925  1.00  0.00     0.029 A 
BRANCH  17  21
HETATM   21  O   UNL     1     -15.413   0.314 -34.756  1.00  0.00    -0.361 OA
HETATM   22  H   UNL     1     -15.967   0.753 -35.420  1.00  0.00     0.217 HD
ENDBRANCH  17  21
ENDBRANCH  12  15
ENDBRANCH   7  11
BRANCH   1  23
HETATM   23  C   UNL     1      -5.977   0.165 -34.112  1.00  0.00    -0.035 A 
HETATM   24  C   UNL     1      -4.844  -0.387 -33.494  1.00  0.00     0.012 A 
HETATM   25  C   UNL     1      -4.546  -1.749 -33.620  1.00  0.00     0.037 A 
HETATM   26  C   UNL     1      -5.378  -2.582 -34.364  1.00  0.00     0.068 A 
HETATM   27  C   UNL     1      -6.492  -2.038 -35.003  1.00  0.00     0.037 A 
HETATM   28  C   UNL     1      -6.797  -0.680 -34.874  1.00  0.00     0.012 A 
BRANCH  26  29
HETATM   29  O   UNL     1      -5.210  -3.927 -34.543  1.00  0.00    -0.356 OA
HETATM   30  C   UNL     1      -6.318  -4.640 -35.081  1.00  0.00     0.210 C 
ENDBRANCH  26  29
ENDBRANCH   1  23
BRANCH   8  31
HETATM   31  C   UNL     1      -5.412   4.550 -33.112  1.00  0.00     0.409 C 
HETATM   32  F   UNL     1      -4.204   4.130 -33.547  1.00  0.00    -0.169 F 
HETATM   33  F   UNL     1      -6.140   4.901 -34.191  1.00  0.00    -0.169 F 
HETATM   34  F   UNL     1      -5.190   5.692 -32.409  1.00  0.00    -0.169 F 
ENDBRANCH   8  31
TORSDOF 6
ENDMDL
MODEL 8
REMARK VINA RESULT:      -8.7      2.611      7.508
REMARK  6 active torsions:
REMARK  status: ('A' for Active; 'I' for Inactive)
REMARK    1  A    between atoms: O_2  and  C_3 
REMARK    2  A    between atoms: C_6  and  C_7 
REMARK    3  A    between atoms: C_13  and  C_14 
REMARK       I    between atoms: C_14  and  N_15 
REMARK    4  A    between atoms: N_15  and  C_16 
REMARK    5  A    between atoms: C_18  and  O_19 
REMARK    6  A    between atoms: C_24  and  C_25 
ROOT
HETATM    1  C   UNL     1      -5.557   4.713 -32.979  1.00  0.00     0.118 C 
HETATM    2  N   UNL     1      -5.820   3.345 -33.456  1.00  0.00    -0.365 N 
HETATM    3  C   UNL     1      -7.065   2.802 -33.317  1.00  0.00     0.138 A 
HETATM    4  N   UNL     1      -8.059   3.476 -32.645  1.00  0.00    -0.240 N 
HETATM    5  N   UNL     1      -9.223   2.818 -32.574  1.00  0.00    -0.181 NA
HETATM    6  C   UNL     1      -8.977   1.696 -33.255  1.00  0.00     0.160 A 
HETATM    7  C   UNL     1      -7.638   1.607 -33.718  1.00  0.00     0.096 A 
HETATM    8  C   UNL     1      -7.904   4.780 -32.031  1.00  0.00     0.221 C 
HETATM    9  C   UNL     1      -6.418   5.028 -31.744  1.00  0.00     0.066 C 
HETATM   10  H   UNL     1      -5.302   3.151 -34.317  1.00  0.00     0.161 HD
ENDROOT
BRANCH   7  11
HETATM   11  C   UNL     1      -7.074   0.467 -34.424  1.00  0.00     0.261 C 
HETATM   12  N   UNL     1      -6.705  -0.579 -33.600  1.00  0.00    -0.323 N 
HETATM   13  H   UNL     1      -6.907  -0.448 -32.616  1.00  0.00     0.169 HD
HETATM   14  O   UNL     1      -6.990   0.484 -35.646  1.00  0.00    -0.267 OA
BRANCH  12  15
HETATM   15  C   UNL     1      -6.157  -1.822 -33.975  1.00  0.00     0.037 A 
HETATM   16  C   UNL     1      -6.887  -2.856 -34.565  1.00  0.00     0.066 A 
HETATM   17  C   UNL     1      -6.262  -4.060 -34.887  1.00  0.00     0.067 A 
HETATM   18  C   UNL     1      -4.908  -4.253 -34.644  1.00  0.00     0.036 A 
HETATM   19  C   UNL     1      -4.169  -3.226 -34.062  1.00  0.00     0.005 A 
HETATM   20  C   UNL     1      -4.790  -2.020 -33.725  1.00  0.00     0.029 A 
BRANCH  17  21
HETATM   21  O   UNL     1      -7.027  -5.044 -35.444  1.00  0.00    -0.361 OA
HETATM   22  H   UNL     1      -7.844  -4.650 -35.788  1.00  0.00     0.217 HD
ENDBRANCH  17  21
ENDBRANCH  12  15
ENDBRANCH   7  11
BRANCH   1  23
HETATM   23  C   UNL     1      -4.088   4.884 -32.634  1.00  0.00    -0.035 A 
HETATM   24  C   UNL     1      -3.721   5.320 -31.350  1.00  0.00     0.012 A 
HETATM   25  C   UNL     1      -2.375   5.392 -30.972  1.00  0.00     0.037 A 
HETATM   26  C   UNL     1      -1.375   5.027 -31.870  1.00  0.00     0.068 A 
HETATM   27  C   UNL     1      -1.729   4.617 -33.156  1.00  0.00     0.037 A 
HETATM   28  C   UNL     1      -3.072   4.537 -33.535  1.00  0.00     0.012 A 
BRANCH  26  29
HETATM   29  O   UNL     1      -0.031   5.030 -31.616  1.00  0.00    -0.356 OA
HETATM   30  C   UNL     1       0.360   5.233 -30.262  1.00  0.00     0.210 C 
ENDBRANCH  26  29
ENDBRANCH   1  23
BRANCH   8  31
HETATM   31  C   UNL     1      -8.509   5.847 -32.916  1.00  0.00     0.409 C 
HETATM   32  F   UNL     1      -8.415   5.558 -34.232  1.00  0.00    -0.169 F 
HETATM   33  F   UNL     1      -9.805   6.093 -32.639  1.00  0.00    -0.169 F 
HETATM   34  F   UNL     1      -7.847   7.021 -32.735  1.00  0.00    -0.169 F 
ENDBRANCH   8  31
TORSDOF 6
ENDMDL
MODEL 9
REMARK VINA RESULT:      -8.5      2.125      7.651
REMARK  6 active torsions:
REMARK  status: ('A' for Active; 'I' for Inactive)
REMARK    1  A    between atoms: O_2  and  C_3 
REMARK    2  A    between atoms: C_6  and  C_7 
REMARK    3  A    between atoms: C_13  and  C_14 
REMARK       I    between atoms: C_14  and  N_15 
REMARK    4  A    between atoms: N_15  and  C_16 
REMARK    5  A    between atoms: C_18  and  O_19 
REMARK    6  A    between atoms: C_24  and  C_25 
ROOT
HETATM    1  C   UNL     1      -7.168   4.992 -33.641  1.00  0.00     0.118 C 
HETATM    2  N   UNL     1      -7.060   3.565 -33.983  1.00  0.00    -0.365 N 
HETATM    3  C   UNL     1      -8.146   2.747 -33.849  1.00  0.00     0.138 A 
HETATM    4  N   UNL     1      -9.319   3.215 -33.303  1.00  0.00    -0.240 N 
HETATM    5  N   UNL     1     -10.293   2.301 -33.220  1.00  0.00    -0.181 NA
HETATM    6  C   UNL     1      -9.737   1.217 -33.765  1.00  0.00     0.160 A 
HETATM    7  C   UNL     1      -8.385   1.417 -34.148  1.00  0.00     0.096 A 
HETATM    8  C   UNL     1      -9.526   4.567 -32.823  1.00  0.00     0.221 C 
HETATM    9  C   UNL     1      -8.168   5.198 -32.492  1.00  0.00     0.066 C 
HETATM   10  H   UNL     1      -6.449   3.426 -34.792  1.00  0.00     0.161 HD
ENDROOT
BRANCH   7  11
HETATM   11  C   UNL     1      -7.513   0.391 -34.701  1.00  0.00     0.261 C 
HETATM   12  N   UNL     1      -7.227  -0.636 -33.822  1.00  0.00    -0.323 N 
HETATM   13  H   UNL     1      -7.685  -0.576 -32.921  1.00  0.00     0.169 HD
HETATM   14  O   UNL     1      -7.129   0.474 -35.861  1.00  0.00    -0.267 OA
BRANCH  12  15
HETATM   15  C   UNL     1      -6.440  -1.782 -34.060  1.00  0.00     0.037 A 
HETATM   16  C   UNL     1      -6.918  -2.951 -34.656  1.00  0.00     0.066 A 
HETATM   17  C   UNL     1      -6.068  -4.043 -34.836  1.00  0.00     0.067 A 
HETATM   18  C   UNL     1      -4.736  -3.988 -34.442  1.00  0.00     0.036 A 
HETATM   19  C   UNL     1      -4.250  -2.824 -33.854  1.00  0.00     0.005 A 
HETATM   20  C   UNL     1      -5.097  -1.729 -33.658  1.00  0.00     0.029 A 
BRANCH  17  21
HETATM   21  O   UNL     1      -6.591  -5.167 -35.405  1.00  0.00    -0.361 OA
HETATM   22  H   UNL     1      -6.653  -5.035 -36.364  1.00  0.00     0.217 HD
ENDBRANCH  17  21
ENDBRANCH  12  15
ENDBRANCH   7  11
BRANCH   1  23
HETATM   23  C   UNL     1      -5.812   5.550 -33.244  1.00  0.00    -0.035 A 
HETATM   24  C   UNL     1      -4.685   5.263 -34.031  1.00  0.00     0.012 A 
HETATM   25  C   UNL     1      -3.443   5.844 -33.747  1.00  0.00     0.037 A 
HETATM   26  C   UNL     1      -3.309   6.721 -32.673  1.00  0.00     0.068 A 
HETATM   27  C   UNL     1      -4.418   6.992 -31.871  1.00  0.00     0.037 A 
HETATM   28  C   UNL     1      -5.661   6.420 -32.156  1.00  0.00     0.012 A 
BRANCH  26  29
HETATM   29  O   UNL     1      -2.161   7.369 -32.308  1.00  0.00    -0.356 OA
HETATM   30  C   UNL     1      -0.954   6.621 -32.394  1.00  0.00     0.210 C 
ENDBRANCH  26  29
ENDBRANCH   1  23
BRANCH   8  31
HETATM   31  C   UNL     1     -10.302   5.369 -33.846  1.00  0.00     0.409 C 
HETATM   32  F   UNL     1     -10.008   6.687 -33.817  1.00  0.00    -0.169 F 
HETATM   33  F   UNL     1     -10.120   4.933 -35.109  1.00  0.00    -0.169 F 
HETATM   34  F   UNL     1     -11.634   5.268 -33.591  1.00  0.00    -0.169 F 
ENDBRANCH   8  31
TORSDOF 6
ENDMDL
MODEL 10
REMARK VINA RESULT:      -8.3     16.539     18.577
REMARK  6 active torsions:
REMARK  status: ('A' for Active; 'I' for Inactive)
REMARK    1  A    between atoms: O_2  and  C_3 
REMARK    2  A    between atoms: C_6  and  C_7 
REMARK    3  A    between atoms: C_13  and  C_14 
REMARK       I    between atoms: C_14  and  N_15 
REMARK    4  A    between atoms: N_15  and  C_16 
REMARK    5  A    between atoms: C_18  and  O_19 
REMARK    6  A    between atoms: C_24  and  C_25 
ROOT
HETATM    1  C   UNL     1      -4.525 -13.112 -38.071  1.00  0.00     0.118 C 
HETATM    2  N   UNL     1      -4.749 -13.716 -36.748  1.00  0.00    -0.365 N 
HETATM    3  C   UNL     1      -3.828 -14.580 -36.228  1.00  0.00     0.138 A 
HETATM    4  N   UNL     1      -2.736 -14.975 -36.965  1.00  0.00    -0.240 N 
HETATM    5  N   UNL     1      -1.925 -15.835 -36.335  1.00  0.00    -0.181 NA
HETATM    6  C   UNL     1      -2.500 -15.968 -35.137  1.00  0.00     0.160 A 
HETATM    7  C   UNL     1      -3.711 -15.238 -35.015  1.00  0.00     0.096 A 
HETATM    8  C   UNL     1      -2.451 -14.544 -38.319  1.00  0.00     0.221 C 
HETATM    9  C   UNL     1      -3.754 -14.080 -38.983  1.00  0.00     0.066 C 
HETATM   10  H   UNL     1      -5.202 -13.054 -36.113  1.00  0.00     0.161 HD
ENDROOT
BRANCH   7  11
HETATM   11  C   UNL     1      -4.583 -15.255 -33.850  1.00  0.00     0.261 C 
HETATM   12  N   UNL     1      -4.309 -16.275 -32.959  1.00  0.00    -0.323 N 
HETATM   13  H   UNL     1      -3.517 -16.859 -33.197  1.00  0.00     0.169 HD
HETATM   14  O   UNL     1      -5.443 -14.394 -33.717  1.00  0.00    -0.267 OA
BRANCH  12  15
HETATM   15  C   UNL     1      -4.951 -16.546 -31.733  1.00  0.00     0.037 A 
HETATM   16  C   UNL     1      -4.486 -16.109 -30.491  1.00  0.00     0.066 A 
HETATM   17  C   UNL     1      -5.179 -16.440 -29.327  1.00  0.00     0.067 A 
HETATM   18  C   UNL     1      -6.346 -17.194 -29.377  1.00  0.00     0.036 A 
HETATM   19  C   UNL     1      -6.822 -17.628 -30.612  1.00  0.00     0.005 A 
HETATM   20  C   UNL     1      -6.126 -17.311 -31.782  1.00  0.00     0.029 A 
BRANCH  17  21
HETATM   21  O   UNL     1      -4.670 -16.005 -28.138  1.00  0.00    -0.361 OA
HETATM   22  H   UNL     1      -3.753 -15.721 -28.274  1.00  0.00     0.217 HD
ENDBRANCH  17  21
ENDBRANCH  12  15
ENDBRANCH   7  11
BRANCH   1  23
HETATM   23  C   UNL     1      -5.847 -12.743 -38.721  1.00  0.00    -0.035 A 
HETATM   24  C   UNL     1      -5.889 -12.442 -40.092  1.00  0.00     0.012 A 
HETATM   25  C   UNL     1      -7.106 -12.196 -40.738  1.00  0.00     0.037 A 
HETATM   26  C   UNL     1      -8.301 -12.250 -40.025  1.00  0.00     0.068 A 
HETATM   27  C   UNL     1      -8.267 -12.524 -38.656  1.00  0.00     0.037 A 
HETATM   28  C   UNL     1      -7.054 -12.777 -38.009  1.00  0.00     0.012 A 
BRANCH  26  29
HETATM   29  O   UNL     1      -9.552 -12.054 -40.542  1.00  0.00    -0.356 OA
HETATM   30  C   UNL     1     -10.577 -12.926 -40.077  1.00  0.00     0.210 C 
ENDBRANCH  26  29
ENDBRANCH   1  23
BRANCH   8  31
HETATM   31  C   UNL     1      -1.390 -13.465 -38.310  1.00  0.00     0.409 C 
HETATM   32  F   UNL     1      -1.463 -12.644 -39.380  1.00  0.00    -0.169 F 
HETATM   33  F   UNL     1      -1.422 -12.700 -37.200  1.00  0.00    -0.169 F 
HETATM   34  F   UNL     1      -0.157 -14.036 -38.349  1.00  0.00    -0.169 F 
ENDBRANCH   8  31
TORSDOF 6
ENDMDL
