MODEL 1
REMARK VINA RESULT:      -9.8      0.000      0.000
REMARK  7 active torsions:
REMARK  status: ('A' for Active; 'I' for Inactive)
REMARK    1  A    between atoms: O_2  and  C_3 
REMARK    2  A    between atoms: C_6  and  C_7 
REMARK       I    between atoms: C_7  and  N_8 
REMARK    3  A    between atoms: C_14  and  C_15 
REMARK       I    between atoms: C_15  and  N_16 
REMARK    4  A    between atoms: N_16  and  C_17 
REMARK    5  A    between atoms: C_17  and  C_18 
REMARK       I    between atoms: N_25  and  C_26 
REMARK    6  A    between atoms: C_26  and  C_27 
REMARK    7  A    between atoms: C_30  and  O_31 
ROOT
HETATM    1  C   UNL     1      -3.371   7.131 -31.570  1.00  0.00     0.253 C 
HETATM    2  N   UNL     1      -4.529   6.343 -31.471  1.00  0.00    -0.348 N 
HETATM    3  C   UNL     1      -4.671   5.247 -30.518  1.00  0.00     0.131 C 
HETATM    4  C   UNL     1      -6.119   4.948 -30.177  1.00  0.00     0.081 C 
HETATM    5  C   UNL     1      -7.025   4.752 -31.402  1.00  0.00     0.142 C 
HETATM    6  O   UNL     1      -8.378   4.956 -30.907  1.00  0.00    -0.358 OA
HETATM    7  C   UNL     1      -9.017   3.695 -30.696  1.00  0.00     0.206 C 
HETATM    8  C   UNL     1      -8.075   2.622 -31.202  1.00  0.00     0.206 C 
HETATM    9  N   UNL     1      -7.051   3.378 -31.917  1.00  0.00    -0.300 N 
HETATM   10  C   UNL     1      -5.960   2.813 -32.560  1.00  0.00     0.257 C 
HETATM   11  O   UNL     1      -4.985   3.443 -32.949  1.00  0.00    -0.267 OA
HETATM   12  C   UNL     1      -6.816   5.876 -32.423  1.00  0.00     0.081 C 
HETATM   13  C   UNL     1      -5.376   6.310 -32.661  1.00  0.00     0.131 C 
HETATM   14  O   UNL     1      -3.255   8.061 -32.368  1.00  0.00    -0.267 OA
ENDROOT
BRANCH   8  15
HETATM   15  C   UNL     1      -8.916   1.579 -31.942  1.00  0.00     0.243 C 
HETATM   16  N   UNL     1      -9.767   2.044 -32.917  1.00  0.00    -0.355 N 
HETATM   17  H   UNL     1      -9.635   2.985 -33.268  1.00  0.00     0.162 HD
HETATM   18  O   UNL     1      -8.909   0.404 -31.573  1.00  0.00    -0.271 OA
BRANCH  16  19
HETATM   19  C   UNL     1     -10.470   1.093 -33.751  1.00  0.00     0.161 C 
BRANCH  19  20
HETATM   20  C   UNL     1     -11.963   1.221 -33.643  1.00  0.00    -0.041 A 
HETATM   21  C   UNL     1     -12.786   0.093 -33.774  1.00  0.00     0.009 A 
HETATM   22  C   UNL     1     -14.167   0.200 -33.599  1.00  0.00     0.001 A 
HETATM   23  C   UNL     1     -14.739   1.434 -33.291  1.00  0.00     0.000 A 
HETATM   24  C   UNL     1     -13.931   2.562 -33.160  1.00  0.00     0.001 A 
HETATM   25  C   UNL     1     -12.551   2.457 -33.333  1.00  0.00     0.009 A 
ENDBRANCH  19  20
ENDBRANCH  16  19
ENDBRANCH   8  15
BRANCH  10  26
HETATM   26  C   UNL     1      -5.959   1.380 -32.910  1.00  0.00     0.032 A 
HETATM   27  C   UNL     1      -6.465   1.020 -34.164  1.00  0.00     0.020 A 
HETATM   28  C   UNL     1      -6.444  -0.317 -34.558  1.00  0.00     0.038 A 
HETATM   29  C   UNL     1      -5.911  -1.298 -33.718  1.00  0.00     0.068 A 
HETATM   30  C   UNL     1      -5.386  -0.928 -32.477  1.00  0.00     0.038 A 
HETATM   31  C   UNL     1      -5.395   0.414 -32.077  1.00  0.00     0.020 A 
BRANCH  29  32
HETATM   32  O   UNL     1      -5.953  -2.564 -34.229  1.00  0.00    -0.356 OA
HETATM   33  C   UNL     1      -4.712  -3.152 -34.599  1.00  0.00     0.210 C 
ENDBRANCH  29  32
ENDBRANCH  10  26
BRANCH   1  34
HETATM   34  C   UNL     1      -2.207   6.859 -30.693  1.00  0.00     0.032 A 
HETATM   35  C   UNL     1      -2.105   7.445 -29.429  1.00  0.00     0.020 A 
HETATM   36  C   UNL     1      -1.029   7.120 -28.599  1.00  0.00     0.038 A 
HETATM   37  C   UNL     1      -0.080   6.177 -29.002  1.00  0.00     0.068 A 
HETATM   38  C   UNL     1      -0.194   5.578 -30.257  1.00  0.00     0.038 A 
HETATM   39  C   UNL     1      -1.262   5.912 -31.100  1.00  0.00     0.020 A 
BRANCH  37  40
HETATM   40  O   UNL     1       0.911   5.934 -28.090  1.00  0.00    -0.356 OA
HETATM   41  C   UNL     1       1.137   6.952 -27.122  1.00  0.00     0.210 C 
ENDBRANCH  37  40
ENDBRANCH   1  34
TORSDOF 7
ENDMDL
MODEL 2
REMARK VINA RESULT:      -9.0      2.767      5.544
REMARK  7 active torsions:
REMARK  status: ('A' for Active; 'I' for Inactive)
REMARK    1  A    between atoms: O_2  and  C_3 
REMARK    2  A    between atoms: C_6  and  C_7 
REMARK       I    between atoms: C_7  and  N_8 
REMARK    3  A    between atoms: C_14  and  C_15 
REMARK       I    between atoms: C_15  and  N_16 
REMARK    4  A    between atoms: N_16  and  C_17 
REMARK    5  A    between atoms: C_17  and  C_18 
REMARK       I    between atoms: N_25  and  C_26 
REMARK    6  A    between atoms: C_26  and  C_27 
REMARK    7  A    between atoms: C_30  and  O_31 
ROOT
HETATM    1  C   UNL     1      -0.124   6.208 -29.336  1.00  0.00     0.253 C 
HETATM    2  N   UNL     1      -1.025   6.007 -30.393  1.00  0.00    -0.348 N 
HETATM    3  C   UNL     1      -2.102   6.939 -30.713  1.00  0.00     0.131 C 
HETATM    4  C   UNL     1      -2.541   6.856 -32.163  1.00  0.00     0.081 C 
HETATM    5  C   UNL     1      -2.866   5.431 -32.638  1.00  0.00     0.142 C 
HETATM    6  O   UNL     1      -2.792   5.493 -34.090  1.00  0.00    -0.358 OA
HETATM    7  C   UNL     1      -4.106   5.580 -34.645  1.00  0.00     0.206 C 
HETATM    8  C   UNL     1      -5.088   5.438 -33.501  1.00  0.00     0.206 C 
HETATM    9  N   UNL     1      -4.250   5.013 -32.383  1.00  0.00    -0.300 N 
HETATM   10  C   UNL     1      -4.716   4.755 -31.103  1.00  0.00     0.257 C 
HETATM   11  O   UNL     1      -3.998   4.634 -30.118  1.00  0.00    -0.267 OA
HETATM   12  C   UNL     1      -1.757   4.453 -32.238  1.00  0.00     0.081 C 
HETATM   13  C   UNL     1      -1.181   4.625 -30.838  1.00  0.00     0.131 C 
HETATM   14  O   UNL     1       0.790   5.426 -29.072  1.00  0.00    -0.267 OA
ENDROOT
BRANCH   8  15
HETATM   15  C   UNL     1      -6.235   4.546 -33.982  1.00  0.00     0.243 C 
HETATM   16  N   UNL     1      -5.927   3.237 -34.267  1.00  0.00    -0.355 N 
HETATM   17  H   UNL     1      -5.050   2.860 -33.929  1.00  0.00     0.162 HD
HETATM   18  O   UNL     1      -7.341   5.034 -34.221  1.00  0.00    -0.271 OA
BRANCH  16  19
HETATM   19  C   UNL     1      -6.996   2.312 -34.577  1.00  0.00     0.161 C 
BRANCH  19  20
HETATM   20  C   UNL     1      -6.609   0.879 -34.340  1.00  0.00    -0.041 A 
HETATM   21  C   UNL     1      -7.157  -0.146 -35.123  1.00  0.00     0.009 A 
HETATM   22  C   UNL     1      -6.742  -1.468 -34.951  1.00  0.00     0.001 A 
HETATM   23  C   UNL     1      -5.775  -1.777 -33.996  1.00  0.00     0.000 A 
HETATM   24  C   UNL     1      -5.223  -0.767 -33.211  1.00  0.00     0.001 A 
HETATM   25  C   UNL     1      -5.637   0.555 -33.382  1.00  0.00     0.009 A 
ENDBRANCH  19  20
ENDBRANCH  16  19
ENDBRANCH   8  15
BRANCH  10  26
HETATM   26  C   UNL     1      -6.151   4.506 -30.866  1.00  0.00     0.032 A 
HETATM   27  C   UNL     1      -6.580   3.175 -30.836  1.00  0.00     0.020 A 
HETATM   28  C   UNL     1      -7.918   2.887 -30.571  1.00  0.00     0.038 A 
HETATM   29  C   UNL     1      -8.830   3.916 -30.323  1.00  0.00     0.068 A 
HETATM   30  C   UNL     1      -8.390   5.242 -30.332  1.00  0.00     0.038 A 
HETATM   31  C   UNL     1      -7.046   5.539 -30.587  1.00  0.00     0.020 A 
BRANCH  29  32
HETATM   32  O   UNL     1     -10.106   3.492 -30.077  1.00  0.00    -0.356 OA
HETATM   33  C   UNL     1     -11.149   4.138 -30.797  1.00  0.00     0.210 C 
ENDBRANCH  29  32
ENDBRANCH  10  26
BRANCH   1  34
HETATM   34  C   UNL     1      -0.246   7.403 -28.468  1.00  0.00     0.032 A 
HETATM   35  C   UNL     1      -1.427   7.668 -27.769  1.00  0.00     0.020 A 
HETATM   36  C   UNL     1      -1.491   8.766 -26.908  1.00  0.00     0.038 A 
HETATM   37  C   UNL     1      -0.370   9.574 -26.700  1.00  0.00     0.068 A 
HETATM   38  C   UNL     1       0.815   9.296 -27.384  1.00  0.00     0.038 A 
HETATM   39  C   UNL     1       0.880   8.206 -28.261  1.00  0.00     0.020 A 
BRANCH  37  40
HETATM   40  O   UNL     1      -0.558  10.603 -25.818  1.00  0.00    -0.356 OA
HETATM   41  C   UNL     1       0.047  10.451 -24.539  1.00  0.00     0.210 C 
ENDBRANCH  37  40
ENDBRANCH   1  34
TORSDOF 7
ENDMDL
MODEL 3
REMARK VINA RESULT:      -9.0      2.812     10.065
REMARK  7 active torsions:
REMARK  status: ('A' for Active; 'I' for Inactive)
REMARK    1  A    between atoms: O_2  and  C_3 
REMARK    2  A    between atoms: C_6  and  C_7 
REMARK       I    between atoms: C_7  and  N_8 
REMARK    3  A    between atoms: C_14  and  C_15 
REMARK       I    between atoms: C_15  and  N_16 
REMARK    4  A    between atoms: N_16  and  C_17 
REMARK    5  A    between atoms: C_17  and  C_18 
REMARK       I    between atoms: N_25  and  C_26 
REMARK    6  A    between atoms: C_26  and  C_27 
REMARK    7  A    between atoms: C_30  and  O_31 
ROOT
HETATM    1  C   UNL     1     -12.187   1.859 -34.854  1.00  0.00     0.253 C 
HETATM    2  N   UNL     1     -10.958   1.545 -34.254  1.00  0.00    -0.348 N 
HETATM    3  C   UNL     1     -10.817   1.236 -32.835  1.00  0.00     0.131 C 
HETATM    4  C   UNL     1      -9.598   0.382 -32.537  1.00  0.00     0.081 C 
HETATM    5  C   UNL     1      -8.290   0.930 -33.128  1.00  0.00     0.142 C 
HETATM    6  O   UNL     1      -7.383  -0.207 -33.156  1.00  0.00    -0.358 OA
HETATM    7  C   UNL     1      -6.479  -0.140 -32.051  1.00  0.00     0.206 C 
HETATM    8  C   UNL     1      -6.728   1.177 -31.344  1.00  0.00     0.206 C 
HETATM    9  N   UNL     1      -7.600   1.899 -32.267  1.00  0.00    -0.300 N 
HETATM   10  C   UNL     1      -8.100   3.172 -32.044  1.00  0.00     0.257 C 
HETATM   11  O   UNL     1      -9.010   3.680 -32.689  1.00  0.00    -0.267 OA
HETATM   12  C   UNL     1      -8.472   1.313 -34.601  1.00  0.00     0.081 C 
HETATM   13  C   UNL     1      -9.770   2.025 -34.956  1.00  0.00     0.131 C 
HETATM   14  O   UNL     1     -12.307   2.112 -36.054  1.00  0.00    -0.267 OA
ENDROOT
BRANCH   8  15
HETATM   15  C   UNL     1      -5.367   1.761 -30.959  1.00  0.00     0.243 C 
HETATM   16  N   UNL     1      -4.489   2.021 -31.984  1.00  0.00    -0.355 N 
HETATM   17  H   UNL     1      -4.844   2.050 -32.932  1.00  0.00     0.162 HD
HETATM   18  O   UNL     1      -5.049   1.859 -29.773  1.00  0.00    -0.271 OA
BRANCH  16  19
HETATM   19  C   UNL     1      -3.252   2.714 -31.695  1.00  0.00     0.161 C 
BRANCH  19  20
HETATM   20  C   UNL     1      -2.982   3.840 -32.652  1.00  0.00    -0.041 A 
HETATM   21  C   UNL     1      -3.921   4.181 -33.635  1.00  0.00     0.009 A 
HETATM   22  C   UNL     1      -3.702   5.274 -34.476  1.00  0.00     0.001 A 
HETATM   23  C   UNL     1      -2.542   6.037 -34.342  1.00  0.00     0.000 A 
HETATM   24  C   UNL     1      -1.601   5.707 -33.369  1.00  0.00     0.001 A 
HETATM   25  C   UNL     1      -1.819   4.615 -32.528  1.00  0.00     0.009 A 
ENDBRANCH  19  20
ENDBRANCH  16  19
ENDBRANCH   8  15
BRANCH  10  26
HETATM   26  C   UNL     1      -7.475   4.056 -31.041  1.00  0.00     0.032 A 
HETATM   27  C   UNL     1      -6.532   4.983 -31.495  1.00  0.00     0.020 A 
HETATM   28  C   UNL     1      -5.947   5.870 -30.592  1.00  0.00     0.038 A 
HETATM   29  C   UNL     1      -6.305   5.848 -29.241  1.00  0.00     0.068 A 
HETATM   30  C   UNL     1      -7.265   4.935 -28.800  1.00  0.00     0.038 A 
HETATM   31  C   UNL     1      -7.864   4.047 -29.701  1.00  0.00     0.020 A 
BRANCH  29  32
HETATM   32  O   UNL     1      -5.655   6.771 -28.471  1.00  0.00    -0.356 OA
HETATM   33  C   UNL     1      -5.160   6.326 -27.214  1.00  0.00     0.210 C 
ENDBRANCH  29  32
ENDBRANCH  10  26
BRANCH   1  34
HETATM   34  C   UNL     1     -13.425   1.905 -34.040  1.00  0.00     0.032 A 
HETATM   35  C   UNL     1     -13.619   2.901 -33.080  1.00  0.00     0.020 A 
HETATM   36  C   UNL     1     -14.823   2.958 -32.373  1.00  0.00     0.038 A 
HETATM   37  C   UNL     1     -15.854   2.056 -32.651  1.00  0.00     0.068 A 
HETATM   38  C   UNL     1     -15.665   1.074 -33.624  1.00  0.00     0.038 A 
HETATM   39  C   UNL     1     -14.455   1.003 -34.325  1.00  0.00     0.020 A 
BRANCH  37  40
HETATM   40  O   UNL     1     -16.987   2.231 -31.904  1.00  0.00    -0.356 OA
HETATM   41  C   UNL     1     -17.939   3.157 -32.416  1.00  0.00     0.210 C 
ENDBRANCH  37  40
ENDBRANCH   1  34
TORSDOF 7
ENDMDL
MODEL 4
REMARK VINA RESULT:      -8.8      3.681      6.639
REMARK  7 active torsions:
REMARK  status: ('A' for Active; 'I' for Inactive)
REMARK    1  A    between atoms: O_2  and  C_3 
REMARK    2  A    between atoms: C_6  and  C_7 
REMARK       I    between atoms: C_7  and  N_8 
REMARK    3  A    between atoms: C_14  and  C_15 
REMARK       I    between atoms: C_15  and  N_16 
REMARK    4  A    between atoms: N_16  and  C_17 
REMARK    5  A    between atoms: C_17  and  C_18 
REMARK       I    between atoms: N_25  and  C_26 
REMARK    6  A    between atoms: C_26  and  C_27 
REMARK    7  A    between atoms: C_30  and  O_31 
ROOT
HETATM    1  C   UNL     1      -4.084   1.554 -32.683  1.00  0.00     0.253 C 
HETATM    2  N   UNL     1      -5.259   2.149 -32.198  1.00  0.00    -0.348 N 
HETATM    3  C   UNL     1      -6.328   1.396 -31.551  1.00  0.00     0.131 C 
HETATM    4  C   UNL     1      -7.166   2.249 -30.616  1.00  0.00     0.081 C 
HETATM    5  C   UNL     1      -7.693   3.544 -31.252  1.00  0.00     0.142 C 
HETATM    6  O   UNL     1      -8.032   4.405 -30.130  1.00  0.00    -0.358 OA
HETATM    7  C   UNL     1      -9.443   4.381 -29.902  1.00  0.00     0.206 C 
HETATM    8  C   UNL     1     -10.065   3.564 -31.015  1.00  0.00     0.206 C 
HETATM    9  N   UNL     1      -8.968   3.390 -31.964  1.00  0.00    -0.300 N 
HETATM   10  C   UNL     1      -9.064   2.695 -33.160  1.00  0.00     0.257 C 
HETATM   11  O   UNL     1      -8.103   2.345 -33.834  1.00  0.00    -0.267 OA
HETATM   12  C   UNL     1      -6.572   4.290 -31.984  1.00  0.00     0.081 C 
HETATM   13  C   UNL     1      -5.613   3.433 -32.799  1.00  0.00     0.131 C 
HETATM   14  O   UNL     1      -3.178   2.191 -33.221  1.00  0.00    -0.267 OA
ENDROOT
BRANCH   8  15
HETATM   15  C   UNL     1     -11.350   4.273 -31.450  1.00  0.00     0.243 C 
HETATM   16  N   UNL     1     -11.236   5.593 -31.821  1.00  0.00    -0.355 N 
HETATM   17  H   UNL     1     -10.315   5.962 -32.023  1.00  0.00     0.162 HD
HETATM   18  O   UNL     1     -12.438   3.708 -31.336  1.00  0.00    -0.271 OA
BRANCH  16  19
HETATM   19  C   UNL     1     -12.385   6.268 -32.385  1.00  0.00     0.161 C 
BRANCH  19  20
HETATM   20  C   UNL     1     -12.158   6.709 -33.803  1.00  0.00    -0.041 A 
HETATM   21  C   UNL     1     -13.220   6.743 -34.717  1.00  0.00     0.009 A 
HETATM   22  C   UNL     1     -13.024   7.223 -36.014  1.00  0.00     0.001 A 
HETATM   23  C   UNL     1     -11.765   7.675 -36.408  1.00  0.00     0.000 A 
HETATM   24  C   UNL     1     -10.702   7.644 -35.509  1.00  0.00     0.001 A 
HETATM   25  C   UNL     1     -10.896   7.166 -34.213  1.00  0.00     0.009 A 
ENDBRANCH  19  20
ENDBRANCH  16  19
ENDBRANCH   8  15
BRANCH  10  26
HETATM   26  C   UNL     1     -10.383   2.412 -33.756  1.00  0.00     0.032 A 
HETATM   27  C   UNL     1     -11.030   1.236 -33.366  1.00  0.00     0.020 A 
HETATM   28  C   UNL     1     -12.298   0.946 -33.868  1.00  0.00     0.038 A 
HETATM   29  C   UNL     1     -12.933   1.829 -34.747  1.00  0.00     0.068 A 
HETATM   30  C   UNL     1     -12.290   3.013 -35.114  1.00  0.00     0.038 A 
HETATM   31  C   UNL     1     -11.021   3.316 -34.607  1.00  0.00     0.020 A 
BRANCH  29  32
HETATM   32  O   UNL     1     -14.170   1.422 -35.159  1.00  0.00    -0.356 OA
HETATM   33  C   UNL     1     -14.956   0.698 -34.222  1.00  0.00     0.210 C 
ENDBRANCH  29  32
ENDBRANCH  10  26
BRANCH   1  34
HETATM   34  C   UNL     1      -3.887   0.090 -32.566  1.00  0.00     0.032 A 
HETATM   35  C   UNL     1      -4.505  -0.793 -33.455  1.00  0.00     0.020 A 
HETATM   36  C   UNL     1      -4.249  -2.164 -33.362  1.00  0.00     0.038 A 
HETATM   37  C   UNL     1      -3.343  -2.656 -32.418  1.00  0.00     0.068 A 
HETATM   38  C   UNL     1      -2.711  -1.769 -31.543  1.00  0.00     0.038 A 
HETATM   39  C   UNL     1      -2.976  -0.396 -31.623  1.00  0.00     0.020 A 
BRANCH  37  40
HETATM   40  O   UNL     1      -3.166  -4.012 -32.443  1.00  0.00    -0.356 OA
HETATM   41  C   UNL     1      -3.648  -4.686 -33.600  1.00  0.00     0.210 C 
ENDBRANCH  37  40
ENDBRANCH   1  34
TORSDOF 7
ENDMDL
MODEL 5
REMARK VINA RESULT:      -8.8      1.995      2.578
REMARK  7 active torsions:
REMARK  status: ('A' for Active; 'I' for Inactive)
REMARK    1  A    between atoms: O_2  and  C_3 
REMARK    2  A    between atoms: C_6  and  C_7 
REMARK       I    between atoms: C_7  and  N_8 
REMARK    3  A    between atoms: C_14  and  C_15 
REMARK       I    between atoms: C_15  and  N_16 
REMARK    4  A    between atoms: N_16  and  C_17 
REMARK    5  A    between atoms: C_17  and  C_18 
REMARK       I    between atoms: N_25  and  C_26 
REMARK    6  A    between atoms: C_26  and  C_27 
REMARK    7  A    between atoms: C_30  and  O_31 
ROOT
HETATM    1  C   UNL     1      -0.984   7.045 -31.607  1.00  0.00     0.253 C 
HETATM    2  N   UNL     1      -2.198   6.402 -31.896  1.00  0.00    -0.348 N 
HETATM    3  C   UNL     1      -3.015   5.744 -30.882  1.00  0.00     0.131 C 
HETATM    4  C   UNL     1      -4.479   5.657 -31.272  1.00  0.00     0.081 C 
HETATM    5  C   UNL     1      -4.722   5.061 -32.667  1.00  0.00     0.142 C 
HETATM    6  O   UNL     1      -6.062   5.492 -33.033  1.00  0.00    -0.358 OA
HETATM    7  C   UNL     1      -6.994   4.429 -32.823  1.00  0.00     0.206 C 
HETATM    8  C   UNL     1      -6.197   3.204 -32.422  1.00  0.00     0.206 C 
HETATM    9  N   UNL     1      -4.815   3.596 -32.687  1.00  0.00    -0.300 N 
HETATM   10  C   UNL     1      -3.711   2.785 -32.469  1.00  0.00     0.257 C 
HETATM   11  O   UNL     1      -2.553   3.183 -32.460  1.00  0.00    -0.267 OA
HETATM   12  C   UNL     1      -3.809   5.716 -33.709  1.00  0.00     0.081 C 
HETATM   13  C   UNL     1      -2.369   5.967 -33.280  1.00  0.00     0.131 C 
HETATM   14  O   UNL     1      -0.299   7.607 -32.462  1.00  0.00    -0.267 OA
ENDROOT
BRANCH   8  15
HETATM   15  C   UNL     1      -6.804   1.999 -33.144  1.00  0.00     0.243 C 
HETATM   16  N   UNL     1      -7.609   1.170 -32.398  1.00  0.00    -0.355 N 
HETATM   17  H   UNL     1      -7.958   1.503 -31.508  1.00  0.00     0.162 HD
HETATM   18  O   UNL     1      -6.466   1.733 -34.298  1.00  0.00    -0.271 OA
BRANCH  16  19
HETATM   19  C   UNL     1      -8.331   0.105 -33.062  1.00  0.00     0.161 C 
BRANCH  19  20
HETATM   20  C   UNL     1      -9.745   0.487 -33.398  1.00  0.00    -0.041 A 
HETATM   21  C   UNL     1     -10.010   1.608 -34.197  1.00  0.00     0.009 A 
HETATM   22  C   UNL     1     -11.320   1.918 -34.570  1.00  0.00     0.001 A 
HETATM   23  C   UNL     1     -12.376   1.112 -34.148  1.00  0.00     0.000 A 
HETATM   24  C   UNL     1     -12.125  -0.004 -33.352  1.00  0.00     0.001 A 
HETATM   25  C   UNL     1     -10.817  -0.316 -32.980  1.00  0.00     0.009 A 
ENDBRANCH  19  20
ENDBRANCH  16  19
ENDBRANCH   8  15
BRANCH  10  26
HETATM   26  C   UNL     1      -3.873   1.326 -32.325  1.00  0.00     0.032 A 
HETATM   27  C   UNL     1      -3.483   0.523 -33.401  1.00  0.00     0.020 A 
HETATM   28  C   UNL     1      -3.575  -0.864 -33.297  1.00  0.00     0.038 A 
HETATM   29  C   UNL     1      -4.039  -1.459 -32.120  1.00  0.00     0.068 A 
HETATM   30  C   UNL     1      -4.405  -0.651 -31.041  1.00  0.00     0.038 A 
HETATM   31  C   UNL     1      -4.307   0.742 -31.134  1.00  0.00     0.020 A 
BRANCH  29  32
HETATM   32  O   UNL     1      -4.076  -2.824 -32.154  1.00  0.00    -0.356 OA
HETATM   33  C   UNL     1      -2.875  -3.510 -31.823  1.00  0.00     0.210 C 
ENDBRANCH  29  32
ENDBRANCH  10  26
BRANCH   1  34
HETATM   34  C   UNL     1      -0.464   7.067 -30.219  1.00  0.00     0.032 A 
HETATM   35  C   UNL     1      -0.772   8.118 -29.351  1.00  0.00     0.020 A 
HETATM   36  C   UNL     1      -0.321   8.080 -28.029  1.00  0.00     0.038 A 
HETATM   37  C   UNL     1       0.395   6.977 -27.553  1.00  0.00     0.068 A 
HETATM   38  C   UNL     1       0.685   5.920 -28.417  1.00  0.00     0.038 A 
HETATM   39  C   UNL     1       0.248   5.960 -29.747  1.00  0.00     0.020 A 
BRANCH  37  40
HETATM   40  O   UNL     1       0.760   7.054 -26.237  1.00  0.00    -0.356 OA
HETATM   41  C   UNL     1       1.722   8.051 -25.910  1.00  0.00     0.210 C 
ENDBRANCH  37  40
ENDBRANCH   1  34
TORSDOF 7
ENDMDL
MODEL 6
REMARK VINA RESULT:      -8.7      3.355      8.541
REMARK  7 active torsions:
REMARK  status: ('A' for Active; 'I' for Inactive)
REMARK    1  A    between atoms: O_2  and  C_3 
REMARK    2  A    between atoms: C_6  and  C_7 
REMARK       I    between atoms: C_7  and  N_8 
REMARK    3  A    between atoms: C_14  and  C_15 
REMARK       I    between atoms: C_15  and  N_16 
REMARK    4  A    between atoms: N_16  and  C_17 
REMARK    5  A    between atoms: C_17  and  C_18 
REMARK       I    between atoms: N_25  and  C_26 
REMARK    6  A    between atoms: C_26  and  C_27 
REMARK    7  A    between atoms: C_30  and  O_31 
ROOT
HETATM    1  C   UNL     1     -12.826   5.505 -34.701  1.00  0.00     0.253 C 
HETATM    2  N   UNL     1     -12.093   4.384 -34.280  1.00  0.00    -0.348 N 
HETATM    3  C   UNL     1     -11.739   4.138 -32.886  1.00  0.00     0.131 C 
HETATM    4  C   UNL     1     -11.502   2.669 -32.589  1.00  0.00     0.081 C 
HETATM    5  C   UNL     1     -10.518   1.986 -33.551  1.00  0.00     0.142 C 
HETATM    6  O   UNL     1     -10.787   0.562 -33.418  1.00  0.00    -0.358 OA
HETATM    7  C   UNL     1      -9.807  -0.045 -32.573  1.00  0.00     0.206 C 
HETATM    8  C   UNL     1      -8.775   1.015 -32.247  1.00  0.00     0.206 C 
HETATM    9  N   UNL     1      -9.109   2.107 -33.157  1.00  0.00    -0.300 N 
HETATM   10  C   UNL     1      -8.428   3.313 -33.224  1.00  0.00     0.257 C 
HETATM   11  O   UNL     1      -8.842   4.309 -33.804  1.00  0.00    -0.267 OA
HETATM   12  C   UNL     1     -10.864   2.307 -35.009  1.00  0.00     0.081 C 
HETATM   13  C   UNL     1     -11.269   3.746 -35.303  1.00  0.00     0.131 C 
HETATM   14  O   UNL     1     -13.132   5.708 -35.876  1.00  0.00    -0.267 OA
ENDROOT
BRANCH   8  15
HETATM   15  C   UNL     1      -7.395   0.356 -32.314  1.00  0.00     0.243 C 
HETATM   16  N   UNL     1      -7.015  -0.167 -33.528  1.00  0.00    -0.355 N 
HETATM   17  H   UNL     1      -7.527   0.108 -34.357  1.00  0.00     0.162 HD
HETATM   18  O   UNL     1      -6.735   0.196 -31.287  1.00  0.00    -0.271 OA
BRANCH  16  19
HETATM   19  C   UNL     1      -5.665  -0.664 -33.689  1.00  0.00     0.161 C 
BRANCH  19  20
HETATM   20  C   UNL     1      -5.625  -2.101 -34.125  1.00  0.00    -0.041 A 
HETATM   21  C   UNL     1      -4.463  -2.866 -33.953  1.00  0.00     0.009 A 
HETATM   22  C   UNL     1      -4.450  -4.221 -34.290  1.00  0.00     0.001 A 
HETATM   23  C   UNL     1      -5.599  -4.825 -34.800  1.00  0.00     0.000 A 
HETATM   24  C   UNL     1      -6.760  -4.074 -34.977  1.00  0.00     0.001 A 
HETATM   25  C   UNL     1      -6.774  -2.720 -34.640  1.00  0.00     0.009 A 
ENDBRANCH  19  20
ENDBRANCH  16  19
ENDBRANCH   8  15
BRANCH  10  26
HETATM   26  C   UNL     1      -7.070   3.437 -32.660  1.00  0.00     0.032 A 
HETATM   27  C   UNL     1      -5.990   3.243 -33.526  1.00  0.00     0.020 A 
HETATM   28  C   UNL     1      -4.688   3.393 -33.051  1.00  0.00     0.038 A 
HETATM   29  C   UNL     1      -4.455   3.748 -31.719  1.00  0.00     0.068 A 
HETATM   30  C   UNL     1      -5.539   3.962 -30.865  1.00  0.00     0.038 A 
HETATM   31  C   UNL     1      -6.850   3.823 -31.337  1.00  0.00     0.020 A 
BRANCH  29  32
HETATM   32  O   UNL     1      -3.134   3.861 -31.389  1.00  0.00    -0.356 OA
HETATM   33  C   UNL     1      -2.306   4.593 -32.283  1.00  0.00     0.210 C 
ENDBRANCH  29  32
ENDBRANCH  10  26
BRANCH   1  34
HETATM   34  C   UNL     1     -13.266   6.521 -33.716  1.00  0.00     0.032 A 
HETATM   35  C   UNL     1     -12.479   7.642 -33.437  1.00  0.00     0.020 A 
HETATM   36  C   UNL     1     -12.949   8.616 -32.552  1.00  0.00     0.038 A 
HETATM   37  C   UNL     1     -14.220   8.505 -31.980  1.00  0.00     0.068 A 
HETATM   38  C   UNL     1     -15.012   7.394 -32.276  1.00  0.00     0.038 A 
HETATM   39  C   UNL     1     -14.539   6.406 -33.150  1.00  0.00     0.020 A 
BRANCH  37  40
HETATM   40  O   UNL     1     -14.569   9.533 -31.149  1.00  0.00    -0.356 OA
HETATM   41  C   UNL     1     -13.543  10.024 -30.294  1.00  0.00     0.210 C 
ENDBRANCH  37  40
ENDBRANCH   1  34
TORSDOF 7
ENDMDL
MODEL 7
REMARK VINA RESULT:      -8.4      1.642      2.229
REMARK  7 active torsions:
REMARK  status: ('A' for Active; 'I' for Inactive)
REMARK    1  A    between atoms: O_2  and  C_3 
REMARK    2  A    between atoms: C_6  and  C_7 
REMARK       I    between atoms: C_7  and  N_8 
REMARK    3  A    between atoms: C_14  and  C_15 
REMARK       I    between atoms: C_15  and  N_16 
REMARK    4  A    between atoms: N_16  and  C_17 
REMARK    5  A    between atoms: C_17  and  C_18 
REMARK       I    between atoms: N_25  and  C_26 
REMARK    6  A    between atoms: C_26  and  C_27 
REMARK    7  A    between atoms: C_30  and  O_31 
ROOT
HETATM    1  C   UNL     1      -2.525   8.314 -30.684  1.00  0.00     0.253 C 
HETATM    2  N   UNL     1      -3.680   7.517 -30.649  1.00  0.00    -0.348 N 
HETATM    3  C   UNL     1      -3.922   6.506 -29.625  1.00  0.00     0.131 C 
HETATM    4  C   UNL     1      -5.397   6.211 -29.426  1.00  0.00     0.081 C 
HETATM    5  C   UNL     1      -6.154   5.892 -30.724  1.00  0.00     0.142 C 
HETATM    6  O   UNL     1      -7.556   6.113 -30.407  1.00  0.00    -0.358 OA
HETATM    7  C   UNL     1      -8.205   4.864 -30.159  1.00  0.00     0.206 C 
HETATM    8  C   UNL     1      -7.202   3.768 -30.458  1.00  0.00     0.206 C 
HETATM    9  N   UNL     1      -6.109   4.478 -31.116  1.00  0.00    -0.300 N 
HETATM   10  C   UNL     1      -4.946   3.880 -31.578  1.00  0.00     0.257 C 
HETATM   11  O   UNL     1      -3.938   4.492 -31.907  1.00  0.00    -0.267 OA
HETATM   12  C   UNL     1      -5.838   6.927 -31.810  1.00  0.00     0.081 C 
HETATM   13  C   UNL     1      -4.384   7.365 -31.920  1.00  0.00     0.131 C 
HETATM   14  O   UNL     1      -2.326   9.174 -31.544  1.00  0.00    -0.267 OA
ENDROOT
BRANCH   8  15
HETATM   15  C   UNL     1      -7.943   2.649 -31.194  1.00  0.00     0.243 C 
HETATM   16  N   UNL     1      -8.629   3.002 -32.332  1.00  0.00    -0.355 N 
HETATM   17  H   UNL     1      -8.427   3.896 -32.764  1.00  0.00     0.162 HD
HETATM   18  O   UNL     1      -8.016   1.525 -30.697  1.00  0.00    -0.271 OA
BRANCH  16  19
HETATM   19  C   UNL     1      -9.217   1.963 -33.150  1.00  0.00     0.161 C 
BRANCH  19  20
HETATM   20  C   UNL     1     -10.513   2.389 -33.782  1.00  0.00    -0.041 A 
HETATM   21  C   UNL     1     -10.976   3.704 -33.642  1.00  0.00     0.009 A 
HETATM   22  C   UNL     1     -12.142   4.118 -34.290  1.00  0.00     0.001 A 
HETATM   23  C   UNL     1     -12.855   3.220 -35.084  1.00  0.00     0.000 A 
HETATM   24  C   UNL     1     -12.405   1.910 -35.229  1.00  0.00     0.001 A 
HETATM   25  C   UNL     1     -11.240   1.495 -34.583  1.00  0.00     0.009 A 
ENDBRANCH  19  20
ENDBRANCH  16  19
ENDBRANCH   8  15
BRANCH  10  26
HETATM   26  C   UNL     1      -4.893   2.422 -31.797  1.00  0.00     0.032 A 
HETATM   27  C   UNL     1      -5.319   1.939 -33.038  1.00  0.00     0.020 A 
HETATM   28  C   UNL     1      -5.247   0.573 -33.309  1.00  0.00     0.038 A 
HETATM   29  C   UNL     1      -4.738  -0.314 -32.357  1.00  0.00     0.068 A 
HETATM   30  C   UNL     1      -4.292   0.179 -31.128  1.00  0.00     0.038 A 
HETATM   31  C   UNL     1      -4.353   1.549 -30.851  1.00  0.00     0.020 A 
BRANCH  29  32
HETATM   32  O   UNL     1      -4.723  -1.621 -32.754  1.00  0.00    -0.356 OA
HETATM   33  C   UNL     1      -5.346  -1.925 -33.996  1.00  0.00     0.210 C 
ENDBRANCH  29  32
ENDBRANCH  10  26
BRANCH   1  34
HETATM   34  C   UNL     1      -1.468   8.142 -29.661  1.00  0.00     0.032 A 
HETATM   35  C   UNL     1      -0.401   7.263 -29.868  1.00  0.00     0.020 A 
HETATM   36  C   UNL     1       0.615   7.169 -28.914  1.00  0.00     0.038 A 
HETATM   37  C   UNL     1       0.600   7.981 -27.776  1.00  0.00     0.068 A 
HETATM   38  C   UNL     1      -0.456   8.872 -27.581  1.00  0.00     0.038 A 
HETATM   39  C   UNL     1      -1.486   8.959 -28.526  1.00  0.00     0.020 A 
BRANCH  37  40
HETATM   40  O   UNL     1       1.662   7.807 -26.932  1.00  0.00    -0.356 OA
HETATM   41  C   UNL     1       1.832   8.798 -25.924  1.00  0.00     0.210 C 
ENDBRANCH  37  40
ENDBRANCH   1  34
TORSDOF 7
ENDMDL
MODEL 8
REMARK VINA RESULT:      -8.4      3.146      6.528
REMARK  7 active torsions:
REMARK  status: ('A' for Active; 'I' for Inactive)
REMARK    1  A    between atoms: O_2  and  C_3 
REMARK    2  A    between atoms: C_6  and  C_7 
REMARK       I    between atoms: C_7  and  N_8 
REMARK    3  A    between atoms: C_14  and  C_15 
REMARK       I    between atoms: C_15  and  N_16 
REMARK    4  A    between atoms: N_16  and  C_17 
REMARK    5  A    between atoms: C_17  and  C_18 
REMARK       I    between atoms: N_25  and  C_26 
REMARK    6  A    between atoms: C_26  and  C_27 
REMARK    7  A    between atoms: C_30  and  O_31 
ROOT
HETATM    1  C   UNL     1      -6.165   5.797 -28.270  1.00  0.00     0.253 C 
HETATM    2  N   UNL     1      -6.096   5.089 -29.480  1.00  0.00    -0.348 N 
HETATM    3  C   UNL     1      -6.807   5.497 -30.687  1.00  0.00     0.131 C 
HETATM    4  C   UNL     1      -6.155   4.983 -31.957  1.00  0.00     0.081 C 
HETATM    5  C   UNL     1      -5.874   3.473 -31.951  1.00  0.00     0.142 C 
HETATM    6  O   UNL     1      -4.865   3.273 -32.979  1.00  0.00    -0.358 OA
HETATM    7  C   UNL     1      -5.473   2.779 -34.174  1.00  0.00     0.206 C 
HETATM    8  C   UNL     1      -6.934   2.524 -33.864  1.00  0.00     0.206 C 
HETATM    9  N   UNL     1      -7.000   2.650 -32.410  1.00  0.00    -0.300 N 
HETATM   10  C   UNL     1      -8.155   2.498 -31.658  1.00  0.00     0.257 C 
HETATM   11  O   UNL     1      -8.265   2.833 -30.485  1.00  0.00    -0.267 OA
HETATM   12  C   UNL     1      -5.187   3.048 -30.649  1.00  0.00     0.081 C 
HETATM   13  C   UNL     1      -5.718   3.682 -29.369  1.00  0.00     0.131 C 
HETATM   14  O   UNL     1      -5.558   5.456 -27.254  1.00  0.00    -0.267 OA
ENDROOT
BRANCH   8  15
HETATM   15  C   UNL     1      -7.329   1.208 -34.539  1.00  0.00     0.243 C 
HETATM   16  N   UNL     1      -6.540   0.114 -34.275  1.00  0.00    -0.355 N 
HETATM   17  H   UNL     1      -5.904   0.151 -33.488  1.00  0.00     0.162 HD
HETATM   18  O   UNL     1      -8.232   1.189 -35.376  1.00  0.00    -0.271 OA
BRANCH  16  19
HETATM   19  C   UNL     1      -6.952  -1.186 -34.761  1.00  0.00     0.161 C 
BRANCH  19  20
HETATM   20  C   UNL     1      -5.978  -2.273 -34.404  1.00  0.00    -0.041 A 
HETATM   21  C   UNL     1      -6.179  -3.585 -34.855  1.00  0.00     0.009 A 
HETATM   22  C   UNL     1      -5.235  -4.579 -34.585  1.00  0.00     0.001 A 
HETATM   23  C   UNL     1      -4.083  -4.270 -33.864  1.00  0.00     0.000 A 
HETATM   24  C   UNL     1      -3.873  -2.969 -33.410  1.00  0.00     0.001 A 
HETATM   25  C   UNL     1      -4.815  -1.976 -33.679  1.00  0.00     0.009 A 
ENDBRANCH  19  20
ENDBRANCH  16  19
ENDBRANCH   8  15
BRANCH  10  26
HETATM   26  C   UNL     1      -9.330   1.808 -32.225  1.00  0.00     0.032 A 
HETATM   27  C   UNL     1     -10.307   2.596 -32.840  1.00  0.00     0.020 A 
HETATM   28  C   UNL     1     -11.415   1.987 -33.429  1.00  0.00     0.038 A 
HETATM   29  C   UNL     1     -11.548   0.596 -33.422  1.00  0.00     0.068 A 
HETATM   30  C   UNL     1     -10.556  -0.186 -32.825  1.00  0.00     0.038 A 
HETATM   31  C   UNL     1      -9.437   0.417 -32.240  1.00  0.00     0.020 A 
BRANCH  29  32
HETATM   32  O   UNL     1     -12.679   0.134 -34.034  1.00  0.00    -0.356 OA
HETATM   33  C   UNL     1     -13.923   0.584 -33.514  1.00  0.00     0.210 C 
ENDBRANCH  29  32
ENDBRANCH  10  26
BRANCH   1  34
HETATM   34  C   UNL     1      -7.002   7.016 -28.166  1.00  0.00     0.032 A 
HETATM   35  C   UNL     1      -8.381   6.927 -27.961  1.00  0.00     0.020 A 
HETATM   36  C   UNL     1      -9.135   8.092 -27.802  1.00  0.00     0.038 A 
HETATM   37  C   UNL     1      -8.516   9.345 -27.797  1.00  0.00     0.068 A 
HETATM   38  C   UNL     1      -7.135   9.431 -27.981  1.00  0.00     0.038 A 
HETATM   39  C   UNL     1      -6.376   8.266 -28.157  1.00  0.00     0.020 A 
BRANCH  37  40
HETATM   40  O   UNL     1      -9.362  10.404 -27.611  1.00  0.00    -0.356 OA
HETATM   41  C   UNL     1     -10.205  10.340 -26.467  1.00  0.00     0.210 C 
ENDBRANCH  37  40
ENDBRANCH   1  34
TORSDOF 7
ENDMDL
MODEL 9
REMARK VINA RESULT:      -8.4      3.661      6.856
REMARK  7 active torsions:
REMARK  status: ('A' for Active; 'I' for Inactive)
REMARK    1  A    between atoms: O_2  and  C_3 
REMARK    2  A    between atoms: C_6  and  C_7 
REMARK       I    between atoms: C_7  and  N_8 
REMARK    3  A    between atoms: C_14  and  C_15 
REMARK       I    between atoms: C_15  and  N_16 
REMARK    4  A    between atoms: N_16  and  C_17 
REMARK    5  A    between atoms: C_17  and  C_18 
REMARK       I    between atoms: N_25  and  C_26 
REMARK    6  A    between atoms: C_26  and  C_27 
REMARK    7  A    between atoms: C_30  and  O_31 
ROOT
HETATM    1  C   UNL     1      -3.642   0.442 -32.490  1.00  0.00     0.253 C 
HETATM    2  N   UNL     1      -4.710   1.173 -31.948  1.00  0.00    -0.348 N 
HETATM    3  C   UNL     1      -6.007   0.582 -31.637  1.00  0.00     0.131 C 
HETATM    4  C   UNL     1      -6.761   1.347 -30.564  1.00  0.00     0.081 C 
HETATM    5  C   UNL     1      -6.878   2.854 -30.835  1.00  0.00     0.142 C 
HETATM    6  O   UNL     1      -7.177   3.447 -29.541  1.00  0.00    -0.358 OA
HETATM    7  C   UNL     1      -8.574   3.732 -29.443  1.00  0.00     0.206 C 
HETATM    8  C   UNL     1      -9.191   3.427 -30.792  1.00  0.00     0.206 C 
HETATM    9  N   UNL     1      -8.033   3.229 -31.659  1.00  0.00    -0.300 N 
HETATM   10  C   UNL     1      -8.103   2.922 -33.010  1.00  0.00     0.257 C 
HETATM   11  O   UNL     1      -7.157   2.524 -33.678  1.00  0.00    -0.267 OA
HETATM   12  C   UNL     1      -5.520   3.448 -31.225  1.00  0.00     0.081 C 
HETATM   13  C   UNL     1      -4.669   2.616 -32.175  1.00  0.00     0.131 C 
HETATM   14  O   UNL     1      -2.545   0.940 -32.745  1.00  0.00    -0.267 OA
ENDROOT
BRANCH   8  15
HETATM   15  C   UNL     1     -10.201   4.535 -31.102  1.00  0.00     0.243 C 
HETATM   16  N   UNL     1     -11.485   4.140 -31.397  1.00  0.00    -0.355 N 
HETATM   17  H   UNL     1     -11.768   3.195 -31.168  1.00  0.00     0.162 HD
HETATM   18  O   UNL     1      -9.826   5.703 -31.206  1.00  0.00    -0.271 OA
BRANCH  16  19
HETATM   19  C   UNL     1     -12.515   5.146 -31.547  1.00  0.00     0.161 C 
BRANCH  19  20
HETATM   20  C   UNL     1     -13.891   4.553 -31.658  1.00  0.00    -0.041 A 
HETATM   21  C   UNL     1     -15.027   5.373 -31.600  1.00  0.00     0.009 A 
HETATM   22  C   UNL     1     -16.301   4.831 -31.778  1.00  0.00     0.001 A 
HETATM   23  C   UNL     1     -16.453   3.466 -32.017  1.00  0.00     0.000 A 
HETATM   24  C   UNL     1     -15.331   2.641 -32.076  1.00  0.00     0.001 A 
HETATM   25  C   UNL     1     -14.057   3.181 -31.899  1.00  0.00     0.009 A 
ENDBRANCH  19  20
ENDBRANCH  16  19
ENDBRANCH   8  15
BRANCH  10  26
HETATM   26  C   UNL     1      -9.348   3.160 -33.766  1.00  0.00     0.032 A 
HETATM   27  C   UNL     1      -9.498   4.402 -34.390  1.00  0.00     0.020 A 
HETATM   28  C   UNL     1     -10.636   4.658 -35.153  1.00  0.00     0.038 A 
HETATM   29  C   UNL     1     -11.621   3.679 -35.311  1.00  0.00     0.068 A 
HETATM   30  C   UNL     1     -11.453   2.432 -34.704  1.00  0.00     0.038 A 
HETATM   31  C   UNL     1     -10.309   2.163 -33.943  1.00  0.00     0.020 A 
BRANCH  29  32
HETATM   32  O   UNL     1     -12.680   4.063 -36.084  1.00  0.00    -0.356 OA
HETATM   33  C   UNL     1     -13.104   5.415 -35.971  1.00  0.00     0.210 C 
ENDBRANCH  29  32
ENDBRANCH  10  26
BRANCH   1  34
HETATM   34  C   UNL     1      -3.802  -1.001 -32.791  1.00  0.00     0.032 A 
HETATM   35  C   UNL     1      -4.444  -1.427 -33.956  1.00  0.00     0.020 A 
HETATM   36  C   UNL     1      -4.523  -2.792 -34.245  1.00  0.00     0.038 A 
HETATM   37  C   UNL     1      -3.923  -3.733 -33.403  1.00  0.00     0.068 A 
HETATM   38  C   UNL     1      -3.265  -3.304 -32.249  1.00  0.00     0.038 A 
HETATM   39  C   UNL     1      -3.197  -1.938 -31.947  1.00  0.00     0.020 A 
BRANCH  37  40
HETATM   40  O   UNL     1      -4.054  -5.033 -33.809  1.00  0.00    -0.356 OA
HETATM   41  C   UNL     1      -5.145  -5.311 -34.679  1.00  0.00     0.210 C 
ENDBRANCH  37  40
ENDBRANCH   1  34
TORSDOF 7
ENDMDL
MODEL 10
REMARK VINA RESULT:      -8.3      3.964      8.345
REMARK  7 active torsions:
REMARK  status: ('A' for Active; 'I' for Inactive)
REMARK    1  A    between atoms: O_2  and  C_3 
REMARK    2  A    between atoms: C_6  and  C_7 
REMARK       I    between atoms: C_7  and  N_8 
REMARK    3  A    between atoms: C_14  and  C_15 
REMARK       I    between atoms: C_15  and  N_16 
REMARK    4  A    between atoms: N_16  and  C_17 
REMARK    5  A    between atoms: C_17  and  C_18 
REMARK       I    between atoms: N_25  and  C_26 
REMARK    6  A    between atoms: C_26  and  C_27 
REMARK    7  A    between atoms: C_30  and  O_31 
ROOT
HETATM    1  C   UNL     1     -11.716   5.798 -35.342  1.00  0.00     0.253 C 
HETATM    2  N   UNL     1     -11.042   5.319 -34.208  1.00  0.00    -0.348 N 
HETATM    3  C   UNL     1     -10.210   6.164 -33.358  1.00  0.00     0.131 C 
HETATM    4  C   UNL     1     -10.083   5.631 -31.942  1.00  0.00     0.081 C 
HETATM    5  C   UNL     1      -9.658   4.157 -31.863  1.00  0.00     0.142 C 
HETATM    6  O   UNL     1     -10.049   3.723 -30.531  1.00  0.00    -0.358 OA
HETATM    7  C   UNL     1      -8.912   3.713 -29.665  1.00  0.00     0.206 C 
HETATM    8  C   UNL     1      -7.698   4.033 -30.512  1.00  0.00     0.206 C 
HETATM    9  N   UNL     1      -8.205   3.949 -31.879  1.00  0.00    -0.300 N 
HETATM   10  C   UNL     1      -7.443   4.168 -33.017  1.00  0.00     0.257 C 
HETATM   11  O   UNL     1      -7.907   4.334 -34.138  1.00  0.00    -0.267 OA
HETATM   12  C   UNL     1     -10.496   3.293 -32.811  1.00  0.00     0.081 C 
HETATM   13  C   UNL     1     -10.779   3.883 -34.187  1.00  0.00     0.131 C 
HETATM   14  O   UNL     1     -12.425   5.086 -36.055  1.00  0.00    -0.267 OA
ENDROOT
BRANCH   8  15
HETATM   15  C   UNL     1      -6.560   3.116 -30.058  1.00  0.00     0.243 C 
HETATM   16  N   UNL     1      -6.839   1.772 -29.979  1.00  0.00    -0.355 N 
HETATM   17  H   UNL     1      -7.670   1.421 -30.440  1.00  0.00     0.162 HD
HETATM   18  O   UNL     1      -5.498   3.597 -29.661  1.00  0.00    -0.271 OA
BRANCH  16  19
HETATM   19  C   UNL     1      -5.763   0.844 -29.705  1.00  0.00     0.161 C 
BRANCH  19  20
HETATM   20  C   UNL     1      -5.341   0.070 -30.922  1.00  0.00    -0.041 A 
HETATM   21  C   UNL     1      -6.286  -0.318 -31.883  1.00  0.00     0.009 A 
HETATM   22  C   UNL     1      -5.883  -0.972 -33.049  1.00  0.00     0.001 A 
HETATM   23  C   UNL     1      -4.532  -1.243 -33.267  1.00  0.00     0.000 A 
HETATM   24  C   UNL     1      -3.585  -0.862 -32.318  1.00  0.00     0.001 A 
HETATM   25  C   UNL     1      -3.986  -0.209 -31.153  1.00  0.00     0.009 A 
ENDBRANCH  19  20
ENDBRANCH  16  19
ENDBRANCH   8  15
BRANCH  10  26
HETATM   26  C   UNL     1      -5.969   4.116 -32.951  1.00  0.00     0.032 A 
HETATM   27  C   UNL     1      -5.292   5.309 -32.678  1.00  0.00     0.020 A 
HETATM   28  C   UNL     1      -3.903   5.303 -32.562  1.00  0.00     0.038 A 
HETATM   29  C   UNL     1      -3.184   4.113 -32.702  1.00  0.00     0.068 A 
HETATM   30  C   UNL     1      -3.869   2.921 -32.951  1.00  0.00     0.038 A 
HETATM   31  C   UNL     1      -5.265   2.917 -33.060  1.00  0.00     0.020 A 
BRANCH  29  32
HETATM   32  O   UNL     1      -1.832   4.251 -32.563  1.00  0.00    -0.356 OA
HETATM   33  C   UNL     1      -1.373   5.067 -31.493  1.00  0.00     0.210 C 
ENDBRANCH  29  32
ENDBRANCH  10  26
BRANCH   1  34
HETATM   34  C   UNL     1     -11.591   7.220 -35.740  1.00  0.00     0.032 A 
HETATM   35  C   UNL     1     -10.511   7.660 -36.509  1.00  0.00     0.020 A 
HETATM   36  C   UNL     1     -10.453   8.993 -36.924  1.00  0.00     0.038 A 
HETATM   37  C   UNL     1     -11.490   9.879 -36.618  1.00  0.00     0.068 A 
HETATM   38  C   UNL     1     -12.578   9.432 -35.867  1.00  0.00     0.038 A 
HETATM   39  C   UNL     1     -12.633   8.100 -35.435  1.00  0.00     0.020 A 
BRANCH  37  40
HETATM   40  O   UNL     1     -11.322  11.148 -37.100  1.00  0.00    -0.356 OA
HETATM   41  C   UNL     1     -12.035  11.467 -38.290  1.00  0.00     0.210 C 
ENDBRANCH  37  40
ENDBRANCH   1  34
TORSDOF 7
ENDMDL
