MODEL 1
REMARK VINA RESULT:      -8.4      0.000      0.000
REMARK  3 active torsions:
REMARK  status: ('A' for Active; 'I' for Inactive)
REMARK    1  A    between atoms: C_9  and  C_10 
REMARK    2  A    between atoms: C_16  and  C_17 
REMARK       I    between atoms: C_17  and  N_18 
REMARK    3  A    between atoms: N_18  and  C_19 
ROOT
HETATM    1  C   UNL     1      -3.359   0.882 -30.937  1.00  0.00     0.070 C 
HETATM    2  C   UNL     1      -4.237   1.724 -31.830  1.00  0.00     0.037 C 
HETATM    3  N   UNL     1      -3.913   3.077 -31.887  1.00  0.00    -0.191 N 
HETATM    4  C   UNL     1      -4.420   3.907 -32.825  1.00  0.00     0.735 A 
HETATM    5  N   UNL     1      -5.412   3.457 -33.652  1.00  0.00    -0.092 N 
HETATM    6  N   UNL     1      -5.724   4.398 -34.557  1.00  0.00     0.012 NA
HETATM    7  N   UNL     1      -4.947   5.430 -34.243  1.00  0.00     0.033 NA
HETATM    8  N   UNL     1      -4.131   5.138 -33.166  1.00  0.00     0.030 NA
HETATM    9  C   UNL     1      -6.011   2.126 -33.581  1.00  0.00     0.198 C 
HETATM   10  C   UNL     1      -5.239   1.239 -32.607  1.00  0.00     0.062 C 
HETATM   11  H   UNL     1      -3.095   3.386 -31.367  1.00  0.00     0.184 HD
ENDROOT
BRANCH  10  12
HETATM   12  C   UNL     1      -5.596  -0.202 -32.698  1.00  0.00     0.257 C 
HETATM   13  N   UNL     1      -5.028  -0.831 -33.780  1.00  0.00    -0.308 N 
HETATM   14  H   UNL     1      -4.396  -0.303 -34.363  1.00  0.00     0.170 HD
HETATM   15  O   UNL     1      -6.293  -0.678 -31.812  1.00  0.00    -0.267 OA
BRANCH  13  16
HETATM   16  C   UNL     1      -5.263  -2.162 -34.154  1.00  0.00     0.129 A 
HETATM   17  N   UNL     1      -4.299  -3.090 -34.026  1.00  0.00    -0.243 NA
HETATM   18  C   UNL     1      -4.588  -4.360 -34.380  1.00  0.00     0.119 A 
HETATM   19  C   UNL     1      -5.823  -4.763 -34.855  1.00  0.00     0.019 A 
HETATM   20  C   UNL     1      -6.816  -3.801 -34.977  1.00  0.00     0.005 A 
HETATM   21  C   UNL     1      -6.532  -2.482 -34.626  1.00  0.00     0.050 A 
ENDBRANCH  13  16
ENDBRANCH  10  12
BRANCH   9  22
HETATM   22  C   UNL     1      -7.489   2.222 -33.209  1.00  0.00    -0.029 A 
HETATM   23  C   UNL     1      -8.461   1.775 -34.120  1.00  0.00     0.009 A 
HETATM   24  C   UNL     1      -9.819   1.846 -33.806  1.00  0.00     0.001 A 
HETATM   25  C   UNL     1     -10.225   2.357 -32.575  1.00  0.00     0.000 A 
HETATM   26  C   UNL     1      -9.276   2.787 -31.652  1.00  0.00     0.001 A 
HETATM   27  C   UNL     1      -7.916   2.715 -31.962  1.00  0.00     0.009 A 
ENDBRANCH   9  22
TORSDOF 3
ENDMDL
MODEL 2
REMARK VINA RESULT:      -7.9      2.587      4.171
REMARK  3 active torsions:
REMARK  status: ('A' for Active; 'I' for Inactive)
REMARK    1  A    between atoms: C_9  and  C_10 
REMARK    2  A    between atoms: C_16  and  C_17 
REMARK       I    between atoms: C_17  and  N_18 
REMARK    3  A    between atoms: N_18  and  C_19 
ROOT
HETATM    1  C   UNL     1     -10.039  -0.028 -32.698  1.00  0.00     0.070 C 
HETATM    2  C   UNL     1      -9.319   1.176 -32.146  1.00  0.00     0.037 C 
HETATM    3  N   UNL     1     -10.123   2.277 -31.857  1.00  0.00    -0.191 N 
HETATM    4  C   UNL     1      -9.687   3.322 -31.121  1.00  0.00     0.735 A 
HETATM    5  N   UNL     1      -8.365   3.395 -30.778  1.00  0.00    -0.092 N 
HETATM    6  N   UNL     1      -8.149   4.459 -29.988  1.00  0.00     0.012 NA
HETATM    7  N   UNL     1      -9.337   5.049 -29.894  1.00  0.00     0.033 NA
HETATM    8  N   UNL     1     -10.303   4.352 -30.594  1.00  0.00     0.030 NA
HETATM    9  C   UNL     1      -7.348   2.427 -31.182  1.00  0.00     0.198 C 
HETATM   10  C   UNL     1      -7.993   1.217 -31.855  1.00  0.00     0.062 C 
HETATM   11  H   UNL     1     -11.125   2.175 -31.996  1.00  0.00     0.184 HD
ENDROOT
BRANCH  10  12
HETATM   12  C   UNL     1      -7.070   0.065 -32.026  1.00  0.00     0.257 C 
HETATM   13  N   UNL     1      -6.930  -0.324 -33.337  1.00  0.00    -0.308 N 
HETATM   14  H   UNL     1      -7.397   0.217 -34.049  1.00  0.00     0.170 HD
HETATM   15  O   UNL     1      -6.511  -0.376 -31.031  1.00  0.00    -0.267 OA
BRANCH  13  16
HETATM   16  C   UNL     1      -6.191  -1.433 -33.775  1.00  0.00     0.129 A 
HETATM   17  N   UNL     1      -4.874  -1.519 -33.523  1.00  0.00    -0.243 NA
HETATM   18  C   UNL     1      -4.216  -2.619 -33.949  1.00  0.00     0.119 A 
HETATM   19  C   UNL     1      -4.824  -3.666 -34.617  1.00  0.00     0.019 A 
HETATM   20  C   UNL     1      -6.186  -3.573 -34.867  1.00  0.00     0.005 A 
HETATM   21  C   UNL     1      -6.879  -2.439 -34.445  1.00  0.00     0.050 A 
ENDBRANCH  13  16
ENDBRANCH  10  12
BRANCH   9  22
HETATM   22  C   UNL     1      -6.308   3.087 -32.085  1.00  0.00    -0.029 A 
HETATM   23  C   UNL     1      -4.977   3.191 -31.643  1.00  0.00     0.009 A 
HETATM   24  C   UNL     1      -4.003   3.785 -32.447  1.00  0.00     0.001 A 
HETATM   25  C   UNL     1      -4.342   4.276 -33.706  1.00  0.00     0.000 A 
HETATM   26  C   UNL     1      -5.651   4.165 -34.167  1.00  0.00     0.001 A 
HETATM   27  C   UNL     1      -6.627   3.568 -33.367  1.00  0.00     0.009 A 
ENDBRANCH   9  22
TORSDOF 3
ENDMDL
MODEL 3
REMARK VINA RESULT:      -7.8      2.782      5.662
REMARK  3 active torsions:
REMARK  status: ('A' for Active; 'I' for Inactive)
REMARK    1  A    between atoms: C_9  and  C_10 
REMARK    2  A    between atoms: C_16  and  C_17 
REMARK       I    between atoms: C_17  and  N_18 
REMARK    3  A    between atoms: N_18  and  C_19 
ROOT
HETATM    1  C   UNL     1      -8.953   5.553 -33.909  1.00  0.00     0.070 C 
HETATM    2  C   UNL     1      -7.862   4.562 -33.590  1.00  0.00     0.037 C 
HETATM    3  N   UNL     1      -6.565   4.983 -33.877  1.00  0.00    -0.191 N 
HETATM    4  C   UNL     1      -5.472   4.338 -33.415  1.00  0.00     0.735 A 
HETATM    5  N   UNL     1      -5.622   3.136 -32.780  1.00  0.00    -0.092 N 
HETATM    6  N   UNL     1      -4.435   2.697 -32.332  1.00  0.00     0.012 NA
HETATM    7  N   UNL     1      -3.566   3.617 -32.738  1.00  0.00     0.033 NA
HETATM    8  N   UNL     1      -4.198   4.644 -33.414  1.00  0.00     0.030 NA
HETATM    9  C   UNL     1      -6.900   2.455 -32.584  1.00  0.00     0.198 C 
HETATM   10  C   UNL     1      -8.061   3.360 -32.991  1.00  0.00     0.062 C 
HETATM   11  H   UNL     1      -6.447   5.928 -34.234  1.00  0.00     0.184 HD
ENDROOT
BRANCH  10  12
HETATM   12  C   UNL     1      -9.391   2.863 -32.550  1.00  0.00     0.257 C 
HETATM   13  N   UNL     1     -10.202   2.491 -33.595  1.00  0.00    -0.308 N 
HETATM   14  H   UNL     1      -9.825   2.528 -34.530  1.00  0.00     0.170 HD
HETATM   15  O   UNL     1      -9.606   2.791 -31.347  1.00  0.00    -0.267 OA
BRANCH  13  16
HETATM   16  C   UNL     1     -11.534   2.069 -33.471  1.00  0.00     0.129 A 
HETATM   17  N   UNL     1     -12.500   2.939 -33.132  1.00  0.00    -0.243 NA
HETATM   18  C   UNL     1     -13.767   2.481 -33.049  1.00  0.00     0.119 A 
HETATM   19  C   UNL     1     -14.129   1.172 -33.305  1.00  0.00     0.019 A 
HETATM   20  C   UNL     1     -13.127   0.280 -33.662  1.00  0.00     0.005 A 
HETATM   21  C   UNL     1     -11.810   0.732 -33.742  1.00  0.00     0.050 A 
ENDBRANCH  13  16
ENDBRANCH  10  12
BRANCH   9  22
HETATM   22  C   UNL     1      -6.923   1.130 -33.343  1.00  0.00    -0.029 A 
HETATM   23  C   UNL     1      -7.044   1.138 -34.743  1.00  0.00     0.009 A 
HETATM   24  C   UNL     1      -7.064  -0.057 -35.464  1.00  0.00     0.001 A 
HETATM   25  C   UNL     1      -6.956  -1.276 -34.798  1.00  0.00     0.000 A 
HETATM   26  C   UNL     1      -6.817  -1.303 -33.413  1.00  0.00     0.001 A 
HETATM   27  C   UNL     1      -6.793  -0.109 -32.689  1.00  0.00     0.009 A 
ENDBRANCH   9  22
TORSDOF 3
ENDMDL
MODEL 4
REMARK VINA RESULT:      -7.8      2.327      4.127
REMARK  3 active torsions:
REMARK  status: ('A' for Active; 'I' for Inactive)
REMARK    1  A    between atoms: C_9  and  C_10 
REMARK    2  A    between atoms: C_16  and  C_17 
REMARK       I    between atoms: C_17  and  N_18 
REMARK    3  A    between atoms: N_18  and  C_19 
ROOT
HETATM    1  C   UNL     1      -9.956   1.466 -34.204  1.00  0.00     0.070 C 
HETATM    2  C   UNL     1      -8.961   2.110 -33.271  1.00  0.00     0.037 C 
HETATM    3  N   UNL     1      -9.484   3.061 -32.398  1.00  0.00    -0.191 N 
HETATM    4  C   UNL     1      -8.793   3.531 -31.337  1.00  0.00     0.735 A 
HETATM    5  N   UNL     1      -7.476   3.195 -31.193  1.00  0.00    -0.092 N 
HETATM    6  N   UNL     1      -6.992   3.694 -30.044  1.00  0.00     0.012 NA
HETATM    7  N   UNL     1      -8.012   4.368 -29.520  1.00  0.00     0.033 NA
HETATM    8  N   UNL     1      -9.140   4.275 -30.315  1.00  0.00     0.030 NA
HETATM    9  C   UNL     1      -6.720   2.376 -32.138  1.00  0.00     0.198 C 
HETATM   10  C   UNL     1      -7.649   1.771 -33.189  1.00  0.00     0.062 C 
HETATM   11  H   UNL     1     -10.489   3.218 -32.423  1.00  0.00     0.184 HD
ENDROOT
BRANCH  10  12
HETATM   12  C   UNL     1      -7.016   0.698 -34.000  1.00  0.00     0.257 C 
HETATM   13  N   UNL     1      -6.889  -0.490 -33.319  1.00  0.00    -0.308 N 
HETATM   14  H   UNL     1      -7.273  -0.550 -32.388  1.00  0.00     0.170 HD
HETATM   15  O   UNL     1      -6.725   0.951 -35.161  1.00  0.00    -0.267 OA
BRANCH  13  16
HETATM   16  C   UNL     1      -6.254  -1.638 -33.813  1.00  0.00     0.129 A 
HETATM   17  N   UNL     1      -4.927  -1.798 -33.679  1.00  0.00    -0.243 NA
HETATM   18  C   UNL     1      -4.372  -2.933 -34.154  1.00  0.00     0.119 A 
HETATM   19  C   UNL     1      -5.093  -3.947 -34.758  1.00  0.00     0.019 A 
HETATM   20  C   UNL     1      -6.465  -3.778 -34.887  1.00  0.00     0.005 A 
HETATM   21  C   UNL     1      -7.055  -2.607 -34.412  1.00  0.00     0.050 A 
ENDBRANCH  13  16
ENDBRANCH  10  12
BRANCH   9  22
HETATM   22  C   UNL     1      -5.597   3.190 -32.777  1.00  0.00    -0.029 A 
HETATM   23  C   UNL     1      -5.912   4.153 -33.752  1.00  0.00     0.009 A 
HETATM   24  C   UNL     1      -4.908   4.915 -34.351  1.00  0.00     0.001 A 
HETATM   25  C   UNL     1      -3.578   4.733 -33.979  1.00  0.00     0.000 A 
HETATM   26  C   UNL     1      -3.249   3.797 -33.002  1.00  0.00     0.001 A 
HETATM   27  C   UNL     1      -4.252   3.035 -32.398  1.00  0.00     0.009 A 
ENDBRANCH   9  22
TORSDOF 3
ENDMDL
MODEL 5
REMARK VINA RESULT:      -7.7      2.499      5.552
REMARK  3 active torsions:
REMARK  status: ('A' for Active; 'I' for Inactive)
REMARK    1  A    between atoms: C_9  and  C_10 
REMARK    2  A    between atoms: C_16  and  C_17 
REMARK       I    between atoms: C_17  and  N_18 
REMARK    3  A    between atoms: N_18  and  C_19 
ROOT
HETATM    1  C   UNL     1      -7.774   5.515 -32.174  1.00  0.00     0.070 C 
HETATM    2  C   UNL     1      -6.925   4.269 -32.131  1.00  0.00     0.037 C 
HETATM    3  N   UNL     1      -5.548   4.479 -32.189  1.00  0.00    -0.191 N 
HETATM    4  C   UNL     1      -4.653   3.510 -31.899  1.00  0.00     0.735 A 
HETATM    5  N   UNL     1      -5.092   2.230 -31.699  1.00  0.00    -0.092 N 
HETATM    6  N   UNL     1      -4.067   1.437 -31.349  1.00  0.00     0.012 NA
HETATM    7  N   UNL     1      -3.004   2.235 -31.383  1.00  0.00     0.033 NA
HETATM    8  N   UNL     1      -3.355   3.529 -31.724  1.00  0.00     0.030 NA
HETATM    9  C   UNL     1      -6.485   1.803 -31.811  1.00  0.00     0.198 C 
HETATM   10  C   UNL     1      -7.407   3.010 -31.969  1.00  0.00     0.062 C 
HETATM   11  H   UNL     1      -5.221   5.441 -32.211  1.00  0.00     0.184 HD
ENDROOT
BRANCH  10  12
HETATM   12  C   UNL     1      -8.848   2.690 -31.792  1.00  0.00     0.257 C 
HETATM   13  N   UNL     1      -9.508   2.497 -32.982  1.00  0.00    -0.308 N 
HETATM   14  H   UNL     1      -8.972   2.528 -33.837  1.00  0.00     0.170 HD
HETATM   15  O   UNL     1      -9.277   2.587 -30.651  1.00  0.00    -0.267 OA
BRANCH  13  16
HETATM   16  C   UNL     1     -10.885   2.267 -33.112  1.00  0.00     0.129 A 
HETATM   17  N   UNL     1     -11.771   3.235 -32.823  1.00  0.00    -0.243 NA
HETATM   18  C   UNL     1     -13.084   2.965 -32.987  1.00  0.00     0.119 A 
HETATM   19  C   UNL     1     -13.567   1.755 -33.449  1.00  0.00     0.019 A 
HETATM   20  C   UNL     1     -12.646   0.762 -33.753  1.00  0.00     0.005 A 
HETATM   21  C   UNL     1     -11.286   1.019 -33.579  1.00  0.00     0.050 A 
ENDBRANCH  13  16
ENDBRANCH  10  12
BRANCH   9  22
HETATM   22  C   UNL     1      -6.652   0.811 -32.960  1.00  0.00    -0.029 A 
HETATM   23  C   UNL     1      -6.792  -0.558 -32.674  1.00  0.00     0.009 A 
HETATM   24  C   UNL     1      -6.951  -1.489 -33.702  1.00  0.00     0.001 A 
HETATM   25  C   UNL     1      -6.979  -1.065 -35.029  1.00  0.00     0.000 A 
HETATM   26  C   UNL     1      -6.859   0.289 -35.330  1.00  0.00     0.001 A 
HETATM   27  C   UNL     1      -6.705   1.223 -34.303  1.00  0.00     0.009 A 
ENDBRANCH   9  22
TORSDOF 3
ENDMDL
MODEL 6
REMARK VINA RESULT:      -7.4     14.905     16.545
REMARK  3 active torsions:
REMARK  status: ('A' for Active; 'I' for Inactive)
REMARK    1  A    between atoms: C_9  and  C_10 
REMARK    2  A    between atoms: C_16  and  C_17 
REMARK       I    between atoms: C_17  and  N_18 
REMARK    3  A    between atoms: N_18  and  C_19 
ROOT
HETATM    1  C   UNL     1      -3.955 -12.172 -38.011  1.00  0.00     0.070 C 
HETATM    2  C   UNL     1      -4.826 -12.866 -39.028  1.00  0.00     0.037 C 
HETATM    3  N   UNL     1      -4.378 -12.803 -40.346  1.00  0.00    -0.191 N 
HETATM    4  C   UNL     1      -4.887 -13.582 -41.325  1.00  0.00     0.735 A 
HETATM    5  N   UNL     1      -5.990 -14.348 -41.066  1.00  0.00    -0.092 N 
HETATM    6  N   UNL     1      -6.292 -15.103 -42.135  1.00  0.00     0.012 NA
HETATM    7  N   UNL     1      -5.393 -14.755 -43.051  1.00  0.00     0.033 NA
HETATM    8  N   UNL     1      -4.512 -13.809 -42.560  1.00  0.00     0.030 NA
HETATM    9  C   UNL     1      -6.707 -14.368 -39.793  1.00  0.00     0.198 C 
HETATM   10  C   UNL     1      -5.938 -13.586 -38.730  1.00  0.00     0.062 C 
HETATM   11  H   UNL     1      -3.490 -12.338 -40.517  1.00  0.00     0.184 HD
ENDROOT
BRANCH  10  12
HETATM   12  C   UNL     1      -6.440 -13.803 -37.348  1.00  0.00     0.257 C 
HETATM   13  N   UNL     1      -5.914 -14.924 -36.752  1.00  0.00    -0.308 N 
HETATM   14  H   UNL     1      -5.217 -15.451 -37.256  1.00  0.00     0.170 HD
HETATM   15  O   UNL     1      -7.205 -12.971 -36.877  1.00  0.00    -0.267 OA
BRANCH  13  16
HETATM   16  C   UNL     1      -6.277 -15.412 -35.488  1.00  0.00     0.129 A 
HETATM   17  N   UNL     1      -5.798 -14.839 -34.371  1.00  0.00    -0.243 NA
HETATM   18  C   UNL     1      -6.198 -15.336 -33.181  1.00  0.00     0.119 A 
HETATM   19  C   UNL     1      -7.082 -16.391 -33.047  1.00  0.00     0.019 A 
HETATM   20  C   UNL     1      -7.578 -16.972 -34.205  1.00  0.00     0.005 A 
HETATM   21  C   UNL     1      -7.167 -16.480 -35.444  1.00  0.00     0.050 A 
ENDBRANCH  13  16
ENDBRANCH  10  12
BRANCH   9  22
HETATM   22  C   UNL     1      -8.128 -13.835 -39.969  1.00  0.00    -0.029 A 
HETATM   23  C   UNL     1      -8.328 -12.460 -40.181  1.00  0.00     0.009 A 
HETATM   24  C   UNL     1      -9.614 -11.944 -40.350  1.00  0.00     0.001 A 
HETATM   25  C   UNL     1     -10.717 -12.795 -40.317  1.00  0.00     0.000 A 
HETATM   26  C   UNL     1     -10.536 -14.162 -40.126  1.00  0.00     0.001 A 
HETATM   27  C   UNL     1      -9.251 -14.682 -39.960  1.00  0.00     0.009 A 
ENDBRANCH   9  22
TORSDOF 3
ENDMDL
MODEL 7
REMARK VINA RESULT:      -7.3      2.529      4.325
REMARK  3 active torsions:
REMARK  status: ('A' for Active; 'I' for Inactive)
REMARK    1  A    between atoms: C_9  and  C_10 
REMARK    2  A    between atoms: C_16  and  C_17 
REMARK       I    between atoms: C_17  and  N_18 
REMARK    3  A    between atoms: N_18  and  C_19 
ROOT
HETATM    1  C   UNL     1      -9.333   1.767 -31.290  1.00  0.00     0.070 C 
HETATM    2  C   UNL     1      -8.189   2.656 -30.871  1.00  0.00     0.037 C 
HETATM    3  N   UNL     1      -8.551   3.898 -30.355  1.00  0.00    -0.191 N 
HETATM    4  C   UNL     1      -7.680   4.695 -29.699  1.00  0.00     0.735 A 
HETATM    5  N   UNL     1      -6.355   4.359 -29.672  1.00  0.00    -0.092 N 
HETATM    6  N   UNL     1      -5.672   5.229 -28.910  1.00  0.00     0.012 NA
HETATM    7  N   UNL     1      -6.584   6.112 -28.515  1.00  0.00     0.033 NA
HETATM    8  N   UNL     1      -7.839   5.791 -28.999  1.00  0.00     0.030 NA
HETATM    9  C   UNL     1      -5.779   3.197 -30.344  1.00  0.00     0.198 C 
HETATM   10  C   UNL     1      -6.880   2.295 -30.897  1.00  0.00     0.062 C 
HETATM   11  H   UNL     1      -9.545   4.095 -30.260  1.00  0.00     0.184 HD
ENDROOT
BRANCH  10  12
HETATM   12  C   UNL     1      -6.397   0.957 -31.329  1.00  0.00     0.257 C 
HETATM   13  N   UNL     1      -6.314   0.827 -32.695  1.00  0.00    -0.308 N 
HETATM   14  H   UNL     1      -6.522   1.634 -33.265  1.00  0.00     0.170 HD
HETATM   15  O   UNL     1      -6.087   0.151 -30.462  1.00  0.00    -0.267 OA
BRANCH  13  16
HETATM   16  C   UNL     1      -5.971  -0.350 -33.374  1.00  0.00     0.129 A 
HETATM   17  N   UNL     1      -4.694  -0.764 -33.424  1.00  0.00    -0.243 NA
HETATM   18  C   UNL     1      -4.424  -1.917 -34.073  1.00  0.00     0.119 A 
HETATM   19  C   UNL     1      -5.389  -2.702 -34.678  1.00  0.00     0.019 A 
HETATM   20  C   UNL     1      -6.707  -2.271 -34.616  1.00  0.00     0.005 A 
HETATM   21  C   UNL     1      -7.003  -1.078 -33.959  1.00  0.00     0.050 A 
ENDBRANCH  13  16
ENDBRANCH  10  12
BRANCH   9  22
HETATM   22  C   UNL     1      -4.806   3.636 -31.436  1.00  0.00    -0.029 A 
HETATM   23  C   UNL     1      -5.277   4.411 -32.510  1.00  0.00     0.009 A 
HETATM   24  C   UNL     1      -4.410   4.830 -33.520  1.00  0.00     0.001 A 
HETATM   25  C   UNL     1      -3.061   4.489 -33.469  1.00  0.00     0.000 A 
HETATM   26  C   UNL     1      -2.573   3.737 -32.403  1.00  0.00     0.001 A 
HETATM   27  C   UNL     1      -3.436   3.319 -31.388  1.00  0.00     0.009 A 
ENDBRANCH   9  22
TORSDOF 3
ENDMDL
MODEL 8
REMARK VINA RESULT:      -7.2     15.378     16.735
REMARK  3 active torsions:
REMARK  status: ('A' for Active; 'I' for Inactive)
REMARK    1  A    between atoms: C_9  and  C_10 
REMARK    2  A    between atoms: C_16  and  C_17 
REMARK       I    between atoms: C_17  and  N_18 
REMARK    3  A    between atoms: N_18  and  C_19 
ROOT
HETATM    1  C   UNL     1      -5.768 -13.863 -36.041  1.00  0.00     0.070 C 
HETATM    2  C   UNL     1      -6.397 -13.601 -37.387  1.00  0.00     0.037 C 
HETATM    3  N   UNL     1      -7.788 -13.667 -37.422  1.00  0.00    -0.191 N 
HETATM    4  C   UNL     1      -8.511 -13.205 -38.466  1.00  0.00     0.735 A 
HETATM    5  N   UNL     1      -7.866 -12.805 -39.603  1.00  0.00    -0.092 N 
HETATM    6  N   UNL     1      -8.747 -12.311 -40.487  1.00  0.00     0.012 NA
HETATM    7  N   UNL     1      -9.929 -12.455 -39.894  1.00  0.00     0.033 NA
HETATM    8  N   UNL     1      -9.796 -13.011 -38.635  1.00  0.00     0.030 NA
HETATM    9  C   UNL     1      -6.420 -12.871 -39.804  1.00  0.00     0.198 C 
HETATM   10  C   UNL     1      -5.712 -13.243 -38.503  1.00  0.00     0.062 C 
HETATM   11  H   UNL     1      -8.272 -13.841 -36.545  1.00  0.00     0.184 HD
ENDROOT
BRANCH  10  12
HETATM   12  C   UNL     1      -4.240 -13.042 -38.545  1.00  0.00     0.257 C 
HETATM   13  N   UNL     1      -3.553 -14.166 -38.938  1.00  0.00    -0.308 N 
HETATM   14  H   UNL     1      -4.083 -14.979 -39.211  1.00  0.00     0.170 HD
HETATM   15  O   UNL     1      -3.804 -11.929 -38.282  1.00  0.00    -0.267 OA
BRANCH  13  16
HETATM   16  C   UNL     1      -2.156 -14.282 -38.983  1.00  0.00     0.129 A 
HETATM   17  N   UNL     1      -1.453 -14.526 -37.863  1.00  0.00    -0.243 NA
HETATM   18  C   UNL     1      -0.113 -14.650 -37.969  1.00  0.00     0.119 A 
HETATM   19  C   UNL     1       0.576 -14.555 -39.164  1.00  0.00     0.019 A 
HETATM   20  C   UNL     1      -0.158 -14.310 -40.317  1.00  0.00     0.005 A 
HETATM   21  C   UNL     1      -1.542 -14.168 -40.226  1.00  0.00     0.050 A 
ENDBRANCH  13  16
ENDBRANCH  10  12
BRANCH   9  22
HETATM   22  C   UNL     1      -6.079 -13.843 -40.931  1.00  0.00    -0.029 A 
HETATM   23  C   UNL     1      -6.612 -15.144 -40.906  1.00  0.00     0.009 A 
HETATM   24  C   UNL     1      -6.321 -16.053 -41.924  1.00  0.00     0.001 A 
HETATM   25  C   UNL     1      -5.501 -15.675 -42.985  1.00  0.00     0.000 A 
HETATM   26  C   UNL     1      -4.978 -14.385 -43.036  1.00  0.00     0.001 A 
HETATM   27  C   UNL     1      -5.270 -13.472 -42.021  1.00  0.00     0.009 A 
ENDBRANCH   9  22
TORSDOF 3
ENDMDL
MODEL 9
REMARK VINA RESULT:      -7.2      5.840      9.338
REMARK  3 active torsions:
REMARK  status: ('A' for Active; 'I' for Inactive)
REMARK    1  A    between atoms: C_9  and  C_10 
REMARK    2  A    between atoms: C_16  and  C_17 
REMARK       I    between atoms: C_17  and  N_18 
REMARK    3  A    between atoms: N_18  and  C_19 
ROOT
HETATM    1  C   UNL     1      -6.444   5.470 -30.176  1.00  0.00     0.070 C 
HETATM    2  C   UNL     1      -5.320   5.686 -31.159  1.00  0.00     0.037 C 
HETATM    3  N   UNL     1      -5.432   4.993 -32.362  1.00  0.00    -0.191 N 
HETATM    4  C   UNL     1      -4.664   5.273 -33.437  1.00  0.00     0.735 A 
HETATM    5  N   UNL     1      -3.627   6.154 -33.308  1.00  0.00    -0.092 N 
HETATM    6  N   UNL     1      -3.038   6.356 -34.497  1.00  0.00     0.012 NA
HETATM    7  N   UNL     1      -3.699   5.561 -35.333  1.00  0.00     0.033 NA
HETATM    8  N   UNL     1      -4.714   4.881 -34.686  1.00  0.00     0.030 NA
HETATM    9  C   UNL     1      -3.245   6.809 -32.058  1.00  0.00     0.198 C 
HETATM   10  C   UNL     1      -4.285   6.545 -30.972  1.00  0.00     0.062 C 
HETATM   11  H   UNL     1      -6.271   4.435 -32.505  1.00  0.00     0.184 HD
ENDROOT
BRANCH  10  12
HETATM   12  C   UNL     1      -4.130   7.408 -29.772  1.00  0.00     0.257 C 
HETATM   13  N   UNL     1      -3.604   6.741 -28.691  1.00  0.00    -0.308 N 
HETATM   14  H   UNL     1      -3.324   5.780 -28.813  1.00  0.00     0.170 HD
HETATM   15  O   UNL     1      -4.428   8.591 -29.873  1.00  0.00    -0.267 OA
BRANCH  13  16
HETATM   16  C   UNL     1      -3.431   7.289 -27.412  1.00  0.00     0.129 A 
HETATM   17  N   UNL     1      -4.489   7.707 -26.697  1.00  0.00    -0.243 NA
HETATM   18  C   UNL     1      -4.265   8.205 -25.463  1.00  0.00     0.119 A 
HETATM   19  C   UNL     1      -3.011   8.297 -24.887  1.00  0.00     0.019 A 
HETATM   20  C   UNL     1      -1.924   7.857 -25.629  1.00  0.00     0.005 A 
HETATM   21  C   UNL     1      -2.134   7.349 -26.910  1.00  0.00     0.050 A 
ENDBRANCH  13  16
ENDBRANCH  10  12
BRANCH   9  22
HETATM   22  C   UNL     1      -1.850   6.365 -31.624  1.00  0.00    -0.029 A 
HETATM   23  C   UNL     1      -1.640   5.030 -31.235  1.00  0.00     0.009 A 
HETATM   24  C   UNL     1      -0.375   4.595 -30.837  1.00  0.00     0.001 A 
HETATM   25  C   UNL     1       0.699   5.482 -30.830  1.00  0.00     0.000 A 
HETATM   26  C   UNL     1       0.514   6.802 -31.230  1.00  0.00     0.001 A 
HETATM   27  C   UNL     1      -0.749   7.242 -31.632  1.00  0.00     0.009 A 
ENDBRANCH   9  22
TORSDOF 3
ENDMDL
MODEL 10
REMARK VINA RESULT:      -7.2      6.753      9.659
REMARK  3 active torsions:
REMARK  status: ('A' for Active; 'I' for Inactive)
REMARK    1  A    between atoms: C_9  and  C_10 
REMARK    2  A    between atoms: C_16  and  C_17 
REMARK       I    between atoms: C_17  and  N_18 
REMARK    3  A    between atoms: N_18  and  C_19 
ROOT
HETATM    1  C   UNL     1      -5.097  10.425 -30.805  1.00  0.00     0.070 C 
HETATM    2  C   UNL     1      -4.507   9.589 -29.696  1.00  0.00     0.037 C 
HETATM    3  N   UNL     1      -5.032   9.819 -28.426  1.00  0.00    -0.191 N 
HETATM    4  C   UNL     1      -4.809   8.987 -27.386  1.00  0.00     0.735 A 
HETATM    5  N   UNL     1      -3.908   7.967 -27.525  1.00  0.00    -0.092 N 
HETATM    6  N   UNL     1      -3.887   7.213 -26.414  1.00  0.00     0.012 NA
HETATM    7  N   UNL     1      -4.747   7.807 -25.593  1.00  0.00     0.033 NA
HETATM    8  N   UNL     1      -5.328   8.913 -26.185  1.00  0.00     0.030 NA
HETATM    9  C   UNL     1      -3.116   7.717 -28.727  1.00  0.00     0.198 C 
HETATM   10  C   UNL     1      -3.582   8.610 -29.874  1.00  0.00     0.062 C 
HETATM   11  H   UNL     1      -5.792  10.491 -28.348  1.00  0.00     0.184 HD
ENDROOT
BRANCH  10  12
HETATM   12  C   UNL     1      -3.037   8.216 -31.200  1.00  0.00     0.257 C 
HETATM   13  N   UNL     1      -3.440   6.963 -31.598  1.00  0.00    -0.308 N 
HETATM   14  H   UNL     1      -4.091   6.462 -31.012  1.00  0.00     0.170 HD
HETATM   15  O   UNL     1      -2.350   9.029 -31.803  1.00  0.00    -0.267 OA
BRANCH  13  16
HETATM   16  C   UNL     1      -3.009   6.309 -32.761  1.00  0.00     0.129 A 
HETATM   17  N   UNL     1      -3.864   6.071 -33.769  1.00  0.00    -0.243 NA
HETATM   18  C   UNL     1      -3.389   5.458 -34.874  1.00  0.00     0.119 A 
HETATM   19  C   UNL     1      -2.070   5.073 -35.032  1.00  0.00     0.019 A 
HETATM   20  C   UNL     1      -1.191   5.328 -33.989  1.00  0.00     0.005 A 
HETATM   21  C   UNL     1      -1.666   5.951 -32.835  1.00  0.00     0.050 A 
ENDBRANCH  13  16
ENDBRANCH  10  12
BRANCH   9  22
HETATM   22  C   UNL     1      -1.628   7.901 -28.436  1.00  0.00    -0.029 A 
HETATM   23  C   UNL     1      -0.727   6.877 -28.778  1.00  0.00     0.009 A 
HETATM   24  C   UNL     1       0.639   7.018 -28.529  1.00  0.00     0.001 A 
HETATM   25  C   UNL     1       1.126   8.185 -27.944  1.00  0.00     0.000 A 
HETATM   26  C   UNL     1       0.250   9.217 -27.616  1.00  0.00     0.001 A 
HETATM   27  C   UNL     1      -1.117   9.081 -27.867  1.00  0.00     0.009 A 
ENDBRANCH   9  22
TORSDOF 3
ENDMDL
