MODEL 1
REMARK VINA RESULT:      -7.2      0.000      0.000
REMARK  3 active torsions:
REMARK  status: ('A' for Active; 'I' for Inactive)
REMARK    1  A    between atoms: C_2  and  N_3 
REMARK    2  A    between atoms: C_2  and  C_14 
REMARK       I    between atoms: N_3  and  C_4 
REMARK    3  A    between atoms: C_4  and  C_5 
ROOT
HETATM    1  N   UNL     1      -7.445  -0.393 -33.711  1.00  0.00    -0.347 N 
HETATM    2  C   UNL     1      -7.810   0.903 -33.980  1.00  0.00     0.268 C 
HETATM    3  O   UNL     1      -7.001   1.805 -34.162  1.00  0.00    -0.266 OA
HETATM    4  H   UNL     1      -8.155  -1.108 -33.669  1.00  0.00     0.163 HD
ENDROOT
BRANCH   1   5
HETATM    5  C   UNL     1      -6.056  -0.826 -33.682  1.00  0.00     0.114 C 
HETATM    6  C   UNL     1      -5.501  -0.584 -32.276  1.00  0.00     0.037 C 
BRANCH   5   7
HETATM    7  C   UNL     1      -5.874  -2.276 -34.104  1.00  0.00    -0.033 A 
HETATM    8  C   UNL     1      -6.912  -3.063 -34.620  1.00  0.00     0.028 A 
HETATM    9  C   UNL     1      -6.650  -4.378 -34.977  1.00  0.00     0.116 A 
HETATM   10  N   UNL     1      -5.442  -4.966 -34.856  1.00  0.00    -0.273 NA
HETATM   11  C   UNL     1      -4.447  -4.198 -34.370  1.00  0.00     0.116 A 
HETATM   12  C   UNL     1      -4.609  -2.873 -33.993  1.00  0.00     0.028 A 
ENDBRANCH   5   7
ENDBRANCH   1   5
BRANCH   2  13
HETATM   13  C   UNL     1      -9.237   1.137 -34.045  1.00  0.00     0.103 A 
HETATM   14  N   UNL     1      -9.752   2.191 -34.777  1.00  0.00    -0.341 N 
HETATM   15  H   UNL     1      -9.191   2.849 -35.303  1.00  0.00     0.167 HD
HETATM   16  C   UNL     1     -11.107   2.198 -34.677  1.00  0.00     0.126 A 
HETATM   17 CL   UNL     1     -11.955   3.413 -35.506  1.00  0.00    -0.063 Cl
HETATM   18  C   UNL     1     -11.507   1.165 -33.877  1.00  0.00     0.074 A 
HETATM   19 CL   UNL     1     -13.080   0.726 -33.420  1.00  0.00    -0.081 Cl
HETATM   20  C   UNL     1     -10.326   0.488 -33.473  1.00  0.00     0.062 A 
ENDBRANCH   2  13
TORSDOF 3
ENDMDL
MODEL 2
REMARK VINA RESULT:      -6.9      1.144      1.574
REMARK  3 active torsions:
REMARK  status: ('A' for Active; 'I' for Inactive)
REMARK    1  A    between atoms: C_2  and  N_3 
REMARK    2  A    between atoms: C_2  and  C_14 
REMARK       I    between atoms: N_3  and  C_4 
REMARK    3  A    between atoms: C_4  and  C_5 
ROOT
HETATM    1  N   UNL     1      -6.856  -0.228 -33.637  1.00  0.00    -0.347 N 
HETATM    2  C   UNL     1      -7.222   1.041 -34.013  1.00  0.00     0.268 C 
HETATM    3  O   UNL     1      -6.468   1.814 -34.592  1.00  0.00    -0.266 OA
HETATM    4  H   UNL     1      -7.552  -0.849 -33.254  1.00  0.00     0.163 HD
ENDROOT
BRANCH   1   5
HETATM    5  C   UNL     1      -5.554  -0.794 -33.953  1.00  0.00     0.114 C 
HETATM    6  C   UNL     1      -4.601  -0.494 -32.793  1.00  0.00     0.037 C 
BRANCH   5   7
HETATM    7  C   UNL     1      -5.608  -2.285 -34.251  1.00  0.00    -0.033 A 
HETATM    8  C   UNL     1      -6.761  -2.937 -34.708  1.00  0.00     0.028 A 
HETATM    9  C   UNL     1      -6.713  -4.302 -34.952  1.00  0.00     0.116 A 
HETATM   10  N   UNL     1      -5.613  -5.063 -34.773  1.00  0.00    -0.273 NA
HETATM   11  C   UNL     1      -4.507  -4.425 -34.345  1.00  0.00     0.116 A 
HETATM   12  C   UNL     1      -4.454  -3.064 -34.080  1.00  0.00     0.028 A 
ENDBRANCH   5   7
ENDBRANCH   1   5
BRANCH   2  13
HETATM   13  C   UNL     1      -8.582   1.410 -33.684  1.00  0.00     0.103 A 
HETATM   14  N   UNL     1      -9.617   0.501 -33.809  1.00  0.00    -0.341 N 
HETATM   15  H   UNL     1      -9.502  -0.454 -34.125  1.00  0.00     0.167 HD
HETATM   16  C   UNL     1     -10.787   1.087 -33.444  1.00  0.00     0.126 A 
HETATM   17 CL   UNL     1     -12.198   0.145 -33.517  1.00  0.00    -0.063 Cl
HETATM   18  C   UNL     1     -10.551   2.383 -33.085  1.00  0.00     0.074 A 
HETATM   19 CL   UNL     1     -11.658   3.556 -32.560  1.00  0.00    -0.081 Cl
HETATM   20  C   UNL     1      -9.155   2.595 -33.235  1.00  0.00     0.062 A 
ENDBRANCH   2  13
TORSDOF 3
ENDMDL
MODEL 3
REMARK VINA RESULT:      -6.7      4.842      6.915
REMARK  3 active torsions:
REMARK  status: ('A' for Active; 'I' for Inactive)
REMARK    1  A    between atoms: C_2  and  N_3 
REMARK    2  A    between atoms: C_2  and  C_14 
REMARK       I    between atoms: N_3  and  C_4 
REMARK    3  A    between atoms: C_4  and  C_5 
ROOT
HETATM    1  N   UNL     1      -5.510   1.638 -32.788  1.00  0.00    -0.347 N 
HETATM    2  C   UNL     1      -6.219   1.096 -33.832  1.00  0.00     0.268 C 
HETATM    3  O   UNL     1      -6.946   1.756 -34.565  1.00  0.00    -0.266 OA
HETATM    4  H   UNL     1      -4.854   1.061 -32.285  1.00  0.00     0.163 HD
ENDROOT
BRANCH   1   5
HETATM    5  C   UNL     1      -5.510   3.063 -32.498  1.00  0.00     0.114 C 
HETATM    6  C   UNL     1      -5.368   3.251 -30.985  1.00  0.00     0.037 C 
BRANCH   5   7
HETATM    7  C   UNL     1      -4.429   3.824 -33.252  1.00  0.00    -0.033 A 
HETATM    8  C   UNL     1      -3.072   3.774 -32.909  1.00  0.00     0.028 A 
HETATM    9  C   UNL     1      -2.158   4.504 -33.656  1.00  0.00     0.116 A 
HETATM   10  N   UNL     1      -2.493   5.280 -34.708  1.00  0.00    -0.273 NA
HETATM   11  C   UNL     1      -3.799   5.313 -35.037  1.00  0.00     0.116 A 
HETATM   12  C   UNL     1      -4.785   4.613 -34.356  1.00  0.00     0.028 A 
ENDBRANCH   5   7
ENDBRANCH   1   5
BRANCH   2  13
HETATM   13  C   UNL     1      -6.041  -0.328 -34.020  1.00  0.00     0.103 A 
HETATM   14  N   UNL     1      -4.921  -0.976 -33.533  1.00  0.00    -0.341 N 
HETATM   15  H   UNL     1      -4.173  -0.520 -33.025  1.00  0.00     0.167 HD
HETATM   16  C   UNL     1      -4.988  -2.298 -33.839  1.00  0.00     0.126 A 
HETATM   17 CL   UNL     1      -3.709  -3.293 -33.330  1.00  0.00    -0.063 Cl
HETATM   18  C   UNL     1      -6.137  -2.543 -34.536  1.00  0.00     0.074 A 
HETATM   19 CL   UNL     1      -6.703  -4.014 -35.163  1.00  0.00    -0.081 Cl
HETATM   20  C   UNL     1      -6.809  -1.298 -34.655  1.00  0.00     0.062 A 
ENDBRANCH   2  13
TORSDOF 3
ENDMDL
MODEL 4
REMARK VINA RESULT:      -6.7      4.616      6.963
REMARK  3 active torsions:
REMARK  status: ('A' for Active; 'I' for Inactive)
REMARK    1  A    between atoms: C_2  and  N_3 
REMARK    2  A    between atoms: C_2  and  C_14 
REMARK       I    between atoms: N_3  and  C_4 
REMARK    3  A    between atoms: C_4  and  C_5 
ROOT
HETATM    1  N   UNL     1      -5.538   0.683 -32.560  1.00  0.00    -0.347 N 
HETATM    2  C   UNL     1      -5.970   0.147 -33.749  1.00  0.00     0.268 C 
HETATM    3  O   UNL     1      -6.650   0.767 -34.558  1.00  0.00    -0.266 OA
HETATM    4  H   UNL     1      -4.900   0.156 -31.984  1.00  0.00     0.163 HD
ENDROOT
BRANCH   1   5
HETATM    5  C   UNL     1      -5.796   2.065 -32.185  1.00  0.00     0.114 C 
HETATM    6  C   UNL     1      -5.844   2.151 -30.657  1.00  0.00     0.037 C 
BRANCH   5   7
HETATM    7  C   UNL     1      -4.779   3.039 -32.761  1.00  0.00    -0.033 A 
HETATM    8  C   UNL     1      -3.415   3.008 -32.438  1.00  0.00     0.028 A 
HETATM    9  C   UNL     1      -2.563   3.939 -33.014  1.00  0.00     0.116 A 
HETATM   10  N   UNL     1      -2.964   4.896 -33.877  1.00  0.00    -0.273 NA
HETATM   11  C   UNL     1      -4.274   4.911 -34.190  1.00  0.00     0.116 A 
HETATM   12  C   UNL     1      -5.201   4.018 -33.672  1.00  0.00     0.028 A 
ENDBRANCH   5   7
ENDBRANCH   1   5
BRANCH   2  13
HETATM   13  C   UNL     1      -5.556  -1.218 -33.992  1.00  0.00     0.103 A 
HETATM   14  N   UNL     1      -6.384  -2.105 -34.657  1.00  0.00    -0.341 N 
HETATM   15  H   UNL     1      -7.303  -1.871 -35.012  1.00  0.00     0.167 HD
HETATM   16  C   UNL     1      -5.773  -3.314 -34.756  1.00  0.00     0.126 A 
HETATM   17 CL   UNL     1      -6.613  -4.561 -35.545  1.00  0.00    -0.063 Cl
HETATM   18  C   UNL     1      -4.548  -3.253 -34.155  1.00  0.00     0.074 A 
HETATM   19 CL   UNL     1      -3.386  -4.477 -33.989  1.00  0.00    -0.081 Cl
HETATM   20  C   UNL     1      -4.404  -1.927 -33.668  1.00  0.00     0.062 A 
ENDBRANCH   2  13
TORSDOF 3
ENDMDL
MODEL 5
REMARK VINA RESULT:      -6.6      5.482      6.854
REMARK  3 active torsions:
REMARK  status: ('A' for Active; 'I' for Inactive)
REMARK    1  A    between atoms: C_2  and  N_3 
REMARK    2  A    between atoms: C_2  and  C_14 
REMARK       I    between atoms: N_3  and  C_4 
REMARK    3  A    between atoms: C_4  and  C_5 
ROOT
HETATM    1  N   UNL     1      -4.743   1.753 -32.567  1.00  0.00    -0.347 N 
HETATM    2  C   UNL     1      -4.260   2.636 -31.632  1.00  0.00     0.268 C 
HETATM    3  O   UNL     1      -4.653   2.667 -30.472  1.00  0.00    -0.266 OA
HETATM    4  H   UNL     1      -4.309   1.711 -33.476  1.00  0.00     0.163 HD
ENDROOT
BRANCH   1   5
HETATM    5  C   UNL     1      -5.723   0.728 -32.243  1.00  0.00     0.114 C 
HETATM    6  C   UNL     1      -7.123   1.321 -32.424  1.00  0.00     0.037 C 
BRANCH   5   7
HETATM    7  C   UNL     1      -5.552  -0.541 -33.064  1.00  0.00    -0.033 A 
HETATM    8  C   UNL     1      -4.367  -1.288 -33.089  1.00  0.00     0.028 A 
HETATM    9  C   UNL     1      -4.306  -2.433 -33.870  1.00  0.00     0.116 A 
HETATM   10  N   UNL     1      -5.326  -2.885 -34.628  1.00  0.00    -0.273 NA
HETATM   11  C   UNL     1      -6.466  -2.167 -34.589  1.00  0.00     0.116 A 
HETATM   12  C   UNL     1      -6.626  -1.014 -33.834  1.00  0.00     0.028 A 
ENDBRANCH   5   7
ENDBRANCH   1   5
BRANCH   2  13
HETATM   13  C   UNL     1      -3.233   3.535 -32.112  1.00  0.00     0.103 A 
HETATM   14  N   UNL     1      -2.285   4.057 -31.251  1.00  0.00    -0.341 N 
HETATM   15  H   UNL     1      -2.240   3.853 -30.259  1.00  0.00     0.167 HD
HETATM   16  C   UNL     1      -1.441   4.871 -31.937  1.00  0.00     0.126 A 
HETATM   17 CL   UNL     1      -0.188   5.621 -31.072  1.00  0.00    -0.063 Cl
HETATM   18  C   UNL     1      -1.818   4.909 -33.250  1.00  0.00     0.074 A 
HETATM   19 CL   UNL     1      -1.115   5.771 -34.529  1.00  0.00    -0.081 Cl
HETATM   20  C   UNL     1      -2.954   4.065 -33.367  1.00  0.00     0.062 A 
ENDBRANCH   2  13
TORSDOF 3
ENDMDL
MODEL 6
REMARK VINA RESULT:      -6.5      1.225      1.884
REMARK  3 active torsions:
REMARK  status: ('A' for Active; 'I' for Inactive)
REMARK    1  A    between atoms: C_2  and  N_3 
REMARK    2  A    between atoms: C_2  and  C_14 
REMARK       I    between atoms: N_3  and  C_4 
REMARK    3  A    between atoms: C_4  and  C_5 
ROOT
HETATM    1  N   UNL     1      -7.930   0.410 -32.428  1.00  0.00    -0.347 N 
HETATM    2  C   UNL     1      -8.404   1.461 -33.173  1.00  0.00     0.268 C 
HETATM    3  O   UNL     1      -7.698   2.388 -33.553  1.00  0.00    -0.266 OA
HETATM    4  H   UNL     1      -8.538  -0.370 -32.232  1.00  0.00     0.163 HD
ENDROOT
BRANCH   1   5
HETATM    5  C   UNL     1      -6.526   0.270 -32.076  1.00  0.00     0.114 C 
HETATM    6  C   UNL     1      -6.422   0.084 -30.559  1.00  0.00     0.037 C 
BRANCH   5   7
HETATM    7  C   UNL     1      -5.835  -0.863 -32.819  1.00  0.00    -0.033 A 
HETATM    8  C   UNL     1      -4.517  -1.263 -32.559  1.00  0.00     0.028 A 
HETATM    9  C   UNL     1      -3.971  -2.309 -33.290  1.00  0.00     0.116 A 
HETATM   10  N   UNL     1      -4.632  -2.978 -34.257  1.00  0.00    -0.273 NA
HETATM   11  C   UNL     1      -5.902  -2.594 -34.492  1.00  0.00     0.116 A 
HETATM   12  C   UNL     1      -6.536  -1.566 -33.810  1.00  0.00     0.028 A 
ENDBRANCH   5   7
ENDBRANCH   1   5
BRANCH   2  13
HETATM   13  C   UNL     1      -9.813   1.398 -33.496  1.00  0.00     0.103 A 
HETATM   14  N   UNL     1     -10.446   2.451 -34.132  1.00  0.00    -0.341 N 
HETATM   15  H   UNL     1      -9.986   3.309 -34.410  1.00  0.00     0.167 HD
HETATM   16  C   UNL     1     -11.758   2.151 -34.318  1.00  0.00     0.126 A 
HETATM   17 CL   UNL     1     -12.731   3.309 -35.090  1.00  0.00    -0.063 Cl
HETATM   18  C   UNL     1     -12.016   0.912 -33.805  1.00  0.00     0.074 A 
HETATM   19 CL   UNL     1     -13.485   0.065 -33.767  1.00  0.00    -0.081 Cl
HETATM   20  C   UNL     1     -10.788   0.429 -33.282  1.00  0.00     0.062 A 
ENDBRANCH   2  13
TORSDOF 3
ENDMDL
MODEL 7
REMARK VINA RESULT:      -6.5      5.554      6.858
REMARK  3 active torsions:
REMARK  status: ('A' for Active; 'I' for Inactive)
REMARK    1  A    between atoms: C_2  and  N_3 
REMARK    2  A    between atoms: C_2  and  C_14 
REMARK       I    between atoms: N_3  and  C_4 
REMARK    3  A    between atoms: C_4  and  C_5 
ROOT
HETATM    1  N   UNL     1      -4.804   2.300 -32.758  1.00  0.00    -0.347 N 
HETATM    2  C   UNL     1      -4.239   2.964 -31.698  1.00  0.00     0.268 C 
HETATM    3  O   UNL     1      -4.639   2.853 -30.545  1.00  0.00    -0.266 OA
HETATM    4  H   UNL     1      -4.367   2.356 -33.665  1.00  0.00     0.163 HD
ENDROOT
BRANCH   1   5
HETATM    5  C   UNL     1      -5.893   1.349 -32.596  1.00  0.00     0.114 C 
HETATM    6  C   UNL     1      -7.178   1.987 -33.130  1.00  0.00     0.037 C 
BRANCH   5   7
HETATM    7  C   UNL     1      -5.621   0.011 -33.269  1.00  0.00    -0.033 A 
HETATM    8  C   UNL     1      -6.484  -0.566 -34.210  1.00  0.00     0.028 A 
HETATM    9  C   UNL     1      -6.151  -1.791 -34.770  1.00  0.00     0.116 A 
HETATM   10  N   UNL     1      -5.035  -2.484 -34.461  1.00  0.00    -0.273 NA
HETATM   11  C   UNL     1      -4.206  -1.916 -33.563  1.00  0.00     0.116 A 
HETATM   12  C   UNL     1      -4.448  -0.692 -32.955  1.00  0.00     0.028 A 
ENDBRANCH   5   7
ENDBRANCH   1   5
BRANCH   2  13
HETATM   13  C   UNL     1      -3.116   3.812 -32.034  1.00  0.00     0.103 A 
HETATM   14  N   UNL     1      -2.804   4.093 -33.352  1.00  0.00    -0.341 N 
HETATM   15  H   UNL     1      -3.322   3.740 -34.148  1.00  0.00     0.167 HD
HETATM   16  C   UNL     1      -1.714   4.901 -33.403  1.00  0.00     0.126 A 
HETATM   17 CL   UNL     1      -1.154   5.378 -34.933  1.00  0.00    -0.063 Cl
HETATM   18  C   UNL     1      -1.283   5.160 -32.133  1.00  0.00     0.074 A 
HETATM   19 CL   UNL     1       0.035   6.101 -31.632  1.00  0.00    -0.081 Cl
HETATM   20  C   UNL     1      -2.167   4.472 -31.260  1.00  0.00     0.062 A 
ENDBRANCH   2  13
TORSDOF 3
ENDMDL
MODEL 8
REMARK VINA RESULT:      -6.4      5.730      7.285
REMARK  3 active torsions:
REMARK  status: ('A' for Active; 'I' for Inactive)
REMARK    1  A    between atoms: C_2  and  N_3 
REMARK    2  A    between atoms: C_2  and  C_14 
REMARK       I    between atoms: N_3  and  C_4 
REMARK    3  A    between atoms: C_4  and  C_5 
ROOT
HETATM    1  N   UNL     1      -4.881   2.573 -31.761  1.00  0.00    -0.347 N 
HETATM    2  C   UNL     1      -3.522   2.435 -31.628  1.00  0.00     0.268 C 
HETATM    3  O   UNL     1      -2.987   1.412 -31.217  1.00  0.00    -0.266 OA
HETATM    4  H   UNL     1      -5.253   3.403 -32.198  1.00  0.00     0.163 HD
ENDROOT
BRANCH   1   5
HETATM    5  C   UNL     1      -5.810   1.488 -31.486  1.00  0.00     0.114 C 
HETATM    6  C   UNL     1      -7.121   2.090 -30.972  1.00  0.00     0.037 C 
BRANCH   5   7
HETATM    7  C   UNL     1      -6.050   0.589 -32.689  1.00  0.00    -0.033 A 
HETATM    8  C   UNL     1      -5.728  -0.775 -32.707  1.00  0.00     0.028 A 
HETATM    9  C   UNL     1      -5.984  -1.515 -33.853  1.00  0.00     0.116 A 
HETATM   10  N   UNL     1      -6.528  -1.002 -34.976  1.00  0.00    -0.273 NA
HETATM   11  C   UNL     1      -6.844   0.307 -34.945  1.00  0.00     0.116 A 
HETATM   12  C   UNL     1      -6.634   1.127 -33.846  1.00  0.00     0.028 A 
ENDBRANCH   5   7
ENDBRANCH   1   5
BRANCH   2  13
HETATM   13  C   UNL     1      -2.746   3.592 -32.021  1.00  0.00     0.103 A 
HETATM   14  N   UNL     1      -2.113   4.378 -31.075  1.00  0.00    -0.341 N 
HETATM   15  H   UNL     1      -2.142   4.206 -30.077  1.00  0.00     0.167 HD
HETATM   16  C   UNL     1      -1.458   5.397 -31.691  1.00  0.00     0.126 A 
HETATM   17 CL   UNL     1      -0.602   6.491 -30.715  1.00  0.00    -0.063 Cl
HETATM   18  C   UNL     1      -1.652   5.309 -33.041  1.00  0.00     0.074 A 
HETATM   19 CL   UNL     1      -1.068   6.326 -34.264  1.00  0.00    -0.081 Cl
HETATM   20  C   UNL     1      -2.469   4.167 -33.256  1.00  0.00     0.062 A 
ENDBRANCH   2  13
TORSDOF 3
ENDMDL
MODEL 9
REMARK VINA RESULT:      -6.4      4.332      5.464
REMARK  3 active torsions:
REMARK  status: ('A' for Active; 'I' for Inactive)
REMARK    1  A    between atoms: C_2  and  N_3 
REMARK    2  A    between atoms: C_2  and  C_14 
REMARK       I    between atoms: N_3  and  C_4 
REMARK    3  A    between atoms: C_4  and  C_5 
ROOT
HETATM    1  N   UNL     1      -6.095   1.159 -33.662  1.00  0.00    -0.347 N 
HETATM    2  C   UNL     1      -5.955   1.764 -32.437  1.00  0.00     0.268 C 
HETATM    3  O   UNL     1      -6.593   1.430 -31.446  1.00  0.00    -0.266 OA
HETATM    4  H   UNL     1      -5.471   1.413 -34.412  1.00  0.00     0.163 HD
ENDROOT
BRANCH   1   5
HETATM    5  C   UNL     1      -6.972   0.019 -33.876  1.00  0.00     0.114 C 
HETATM    6  C   UNL     1      -7.877   0.321 -35.074  1.00  0.00     0.037 C 
BRANCH   5   7
HETATM    7  C   UNL     1      -6.215  -1.286 -34.073  1.00  0.00    -0.033 A 
HETATM    8  C   UNL     1      -4.872  -1.459 -33.711  1.00  0.00     0.028 A 
HETATM    9  C   UNL     1      -4.266  -2.688 -33.931  1.00  0.00     0.116 A 
HETATM   10  N   UNL     1      -4.890  -3.749 -34.484  1.00  0.00    -0.273 NA
HETATM   11  C   UNL     1      -6.183  -3.577 -34.818  1.00  0.00     0.116 A 
HETATM   12  C   UNL     1      -6.877  -2.390 -34.632  1.00  0.00     0.028 A 
ENDBRANCH   5   7
ENDBRANCH   1   5
BRANCH   2  13
HETATM   13  C   UNL     1      -4.982   2.834 -32.389  1.00  0.00     0.103 A 
HETATM   14  N   UNL     1      -5.378   4.151 -32.249  1.00  0.00    -0.341 N 
HETATM   15  H   UNL     1      -6.343   4.452 -32.170  1.00  0.00     0.167 HD
HETATM   16  C   UNL     1      -4.286   4.959 -32.234  1.00  0.00     0.126 A 
HETATM   17 CL   UNL     1      -4.541   6.629 -32.066  1.00  0.00    -0.063 Cl
HETATM   18  C   UNL     1      -3.160   4.199 -32.372  1.00  0.00     0.074 A 
HETATM   19 CL   UNL     1      -1.541   4.702 -32.425  1.00  0.00    -0.081 Cl
HETATM   20  C   UNL     1      -3.593   2.851 -32.471  1.00  0.00     0.062 A 
ENDBRANCH   2  13
TORSDOF 3
ENDMDL
MODEL 10
REMARK VINA RESULT:      -6.4      3.080      3.926
REMARK  3 active torsions:
REMARK  status: ('A' for Active; 'I' for Inactive)
REMARK    1  A    between atoms: C_2  and  N_3 
REMARK    2  A    between atoms: C_2  and  C_14 
REMARK       I    between atoms: N_3  and  C_4 
REMARK    3  A    between atoms: C_4  and  C_5 
ROOT
HETATM    1  N   UNL     1      -4.813  -0.896 -32.315  1.00  0.00    -0.347 N 
HETATM    2  C   UNL     1      -4.519   0.438 -32.184  1.00  0.00     0.268 C 
HETATM    3  O   UNL     1      -3.458   0.932 -32.547  1.00  0.00    -0.266 OA
HETATM    4  H   UNL     1      -5.740  -1.222 -32.089  1.00  0.00     0.163 HD
ENDROOT
BRANCH   1   5
HETATM    5  C   UNL     1      -3.911  -1.837 -32.960  1.00  0.00     0.114 C 
HETATM    6  C   UNL     1      -2.994  -2.441 -31.892  1.00  0.00     0.037 C 
BRANCH   5   7
HETATM    7  C   UNL     1      -4.638  -2.923 -33.740  1.00  0.00    -0.033 A 
HETATM    8  C   UNL     1      -5.835  -2.700 -34.434  1.00  0.00     0.028 A 
HETATM    9  C   UNL     1      -6.426  -3.754 -35.117  1.00  0.00     0.116 A 
HETATM   10  N   UNL     1      -5.922  -5.005 -35.156  1.00  0.00    -0.273 NA
HETATM   11  C   UNL     1      -4.765  -5.206 -34.495  1.00  0.00     0.116 A 
HETATM   12  C   UNL     1      -4.096  -4.215 -33.791  1.00  0.00     0.028 A 
ENDBRANCH   5   7
ENDBRANCH   1   5
BRANCH   2  13
HETATM   13  C   UNL     1      -5.565   1.241 -31.587  1.00  0.00     0.103 A 
HETATM   14  N   UNL     1      -6.889   1.067 -31.947  1.00  0.00    -0.341 N 
HETATM   15  H   UNL     1      -7.211   0.389 -32.627  1.00  0.00     0.167 HD
HETATM   16  C   UNL     1      -7.670   1.936 -31.253  1.00  0.00     0.126 A 
HETATM   17 CL   UNL     1      -9.343   1.894 -31.537  1.00  0.00    -0.063 Cl
HETATM   18  C   UNL     1      -6.883   2.698 -30.437  1.00  0.00     0.074 A 
HETATM   19 CL   UNL     1      -7.346   3.933 -29.372  1.00  0.00    -0.081 Cl
HETATM   20  C   UNL     1      -5.547   2.263 -30.645  1.00  0.00     0.062 A 
ENDBRANCH   2  13
TORSDOF 3
ENDMDL
