MODEL 1
REMARK VINA RESULT:      -9.6      0.000      0.000
REMARK  8 active torsions:
REMARK  status: ('A' for Active; 'I' for Inactive)
REMARK    1  A    between atoms: C_4  and  S_5 
REMARK    2  A    between atoms: S_5  and  C_6 
REMARK    3  A    between atoms: C_6  and  C_7 
REMARK       I    between atoms: C_7  and  N_8 
REMARK    4  A    between atoms: N_8  and  C_9 
REMARK    5  A    between atoms: C_20  and  C_21 
REMARK    6  A    between atoms: C_27  and  C_28 
REMARK       I    between atoms: C_28  and  N_29 
REMARK    7  A    between atoms: N_29  and  C_30 
REMARK    8  A    between atoms: C_31  and  O_32 
ROOT
HETATM    1  C   UNL     1      -6.205   6.914 -29.357  1.00  0.00     0.069 C 
HETATM    2  C   UNL     1      -5.538   5.700 -29.958  1.00  0.00     0.019 C 
HETATM    3  N   UNL     1      -6.376   4.627 -30.215  1.00  0.00    -0.353 N 
HETATM    4  C   UNL     1      -5.961   3.359 -30.575  1.00  0.00     0.087 C 
HETATM    5  C   UNL     1      -4.653   3.166 -30.864  1.00  0.00     0.055 C 
HETATM    6  C   UNL     1      -4.072   1.781 -31.100  1.00  0.00     0.019 C 
HETATM    7  N   UNL     1      -3.588   0.634 -31.296  1.00  0.00    -0.096 N 
HETATM    8  C   UNL     1      -3.708   4.359 -30.988  1.00  0.00     0.104 C 
HETATM    9  C   UNL     1      -4.224   5.620 -30.292  1.00  0.00     0.046 C 
HETATM   10  H   UNL     1      -7.358   4.713 -29.965  1.00  0.00     0.166 HD
ENDROOT
BRANCH   4  11
HETATM   11  S   UNL     1      -7.162   2.115 -30.828  1.00  0.00    -0.102 SA
BRANCH  11  12
HETATM   12  C   UNL     1      -7.643   2.324 -32.570  1.00  0.00     0.184 C 
BRANCH  12  13
HETATM   13  C   UNL     1      -6.905   1.336 -33.485  1.00  0.00     0.231 C 
HETATM   14  N   UNL     1      -6.823   0.047 -32.988  1.00  0.00    -0.326 N 
HETATM   15  H   UNL     1      -7.204  -0.075 -32.055  1.00  0.00     0.169 HD
HETATM   16  O   UNL     1      -6.482   1.711 -34.577  1.00  0.00    -0.272 OA
BRANCH  14  17
HETATM   17  C   UNL     1      -6.200  -1.081 -33.554  1.00  0.00     0.036 A 
HETATM   18  C   UNL     1      -6.881  -2.117 -34.193  1.00  0.00     0.053 A 
HETATM   19  C   UNL     1      -6.167  -3.191 -34.733  1.00  0.00     0.036 A 
HETATM   20 CL   UNL     1      -7.010  -4.470 -35.519  1.00  0.00    -0.084 Cl
HETATM   21  C   UNL     1      -4.776  -3.241 -34.647  1.00  0.00     0.024 A 
HETATM   22  C   UNL     1      -4.091  -2.212 -34.010  1.00  0.00     0.004 A 
HETATM   23  C   UNL     1      -4.801  -1.140 -33.464  1.00  0.00     0.029 A 
ENDBRANCH  14  17
ENDBRANCH  12  13
ENDBRANCH  11  12
ENDBRANCH   4  11
BRANCH   8  24
HETATM   24  C   UNL     1      -3.439   4.592 -32.486  1.00  0.00    -0.044 A 
HETATM   25  C   UNL     1      -2.125   4.651 -32.992  1.00  0.00     0.008 A 
HETATM   26  C   UNL     1      -1.886   4.929 -34.338  1.00  0.00     0.001 A 
HETATM   27  C   UNL     1      -2.952   5.165 -35.200  1.00  0.00     0.000 A 
HETATM   28  C   UNL     1      -4.259   5.124 -34.714  1.00  0.00     0.001 A 
HETATM   29  C   UNL     1      -4.504   4.840 -33.368  1.00  0.00     0.008 A 
ENDBRANCH   8  24
BRANCH   9  30
HETATM   30  C   UNL     1      -3.282   6.744 -29.951  1.00  0.00     0.255 C 
HETATM   31  N   UNL     1      -2.595   6.614 -28.762  1.00  0.00    -0.321 N 
HETATM   32  H   UNL     1      -2.938   5.988 -28.051  1.00  0.00     0.169 HD
HETATM   33  O   UNL     1      -3.249   7.751 -30.655  1.00  0.00    -0.268 OA
BRANCH  31  34
HETATM   34  C   UNL     1      -1.538   7.464 -28.357  1.00  0.00     0.068 A 
HETATM   35  C   UNL     1      -0.188   7.237 -28.697  1.00  0.00     0.095 A 
HETATM   36  C   UNL     1       0.780   8.158 -28.282  1.00  0.00     0.039 A 
HETATM   37  C   UNL     1       0.422   9.267 -27.510  1.00  0.00     0.003 A 
HETATM   38  C   UNL     1      -0.901   9.452 -27.123  1.00  0.00     0.002 A 
HETATM   39  C   UNL     1      -1.877   8.542 -27.531  1.00  0.00     0.032 A 
BRANCH  35  40
HETATM   40  O   UNL     1       0.103   6.049 -29.319  1.00  0.00    -0.354 OA
HETATM   41  C   UNL     1       0.433   6.086 -30.699  1.00  0.00     0.210 C 
ENDBRANCH  35  40
ENDBRANCH  31  34
ENDBRANCH   9  30
TORSDOF 8
ENDMDL
MODEL 2
REMARK VINA RESULT:      -9.5      0.759      1.501
REMARK  8 active torsions:
REMARK  status: ('A' for Active; 'I' for Inactive)
REMARK    1  A    between atoms: C_4  and  S_5 
REMARK    2  A    between atoms: S_5  and  C_6 
REMARK    3  A    between atoms: C_6  and  C_7 
REMARK       I    between atoms: C_7  and  N_8 
REMARK    4  A    between atoms: N_8  and  C_9 
REMARK    5  A    between atoms: C_20  and  C_21 
REMARK    6  A    between atoms: C_27  and  C_28 
REMARK       I    between atoms: C_28  and  N_29 
REMARK    7  A    between atoms: N_29  and  C_30 
REMARK    8  A    between atoms: C_31  and  O_32 
ROOT
HETATM    1  C   UNL     1      -6.013   7.133 -29.419  1.00  0.00     0.069 C 
HETATM    2  C   UNL     1      -5.386   5.884 -29.990  1.00  0.00     0.019 C 
HETATM    3  N   UNL     1      -6.258   4.831 -30.219  1.00  0.00    -0.353 N 
HETATM    4  C   UNL     1      -5.884   3.542 -30.547  1.00  0.00     0.087 C 
HETATM    5  C   UNL     1      -4.584   3.301 -30.833  1.00  0.00     0.055 C 
HETATM    6  C   UNL     1      -4.046   1.893 -31.035  1.00  0.00     0.019 C 
HETATM    7  N   UNL     1      -3.600   0.726 -31.203  1.00  0.00    -0.096 N 
HETATM    8  C   UNL     1      -3.601   4.460 -30.988  1.00  0.00     0.104 C 
HETATM    9  C   UNL     1      -4.076   5.753 -30.323  1.00  0.00     0.046 C 
HETATM   10  H   UNL     1      -7.236   4.955 -29.971  1.00  0.00     0.166 HD
ENDROOT
BRANCH   4  11
HETATM   11  S   UNL     1      -7.124   2.331 -30.768  1.00  0.00    -0.102 SA
BRANCH  11  12
HETATM   12  C   UNL     1      -7.630   2.539 -32.504  1.00  0.00     0.184 C 
BRANCH  12  13
HETATM   13  C   UNL     1      -6.902   1.555 -33.429  1.00  0.00     0.231 C 
HETATM   14  N   UNL     1      -6.816   0.263 -32.937  1.00  0.00    -0.326 N 
HETATM   15  H   UNL     1      -7.187   0.139 -32.001  1.00  0.00     0.169 HD
HETATM   16  O   UNL     1      -6.491   1.933 -34.524  1.00  0.00    -0.272 OA
BRANCH  14  17
HETATM   17  C   UNL     1      -6.199  -0.863 -33.513  1.00  0.00     0.036 A 
HETATM   18  C   UNL     1      -6.889  -1.909 -34.125  1.00  0.00     0.053 A 
HETATM   19  C   UNL     1      -6.181  -2.980 -34.678  1.00  0.00     0.036 A 
HETATM   20 CL   UNL     1      -7.034  -4.272 -35.432  1.00  0.00    -0.084 Cl
HETATM   21  C   UNL     1      -4.788  -3.018 -34.632  1.00  0.00     0.024 A 
HETATM   22  C   UNL     1      -4.094  -1.979 -34.021  1.00  0.00     0.004 A 
HETATM   23  C   UNL     1      -4.798  -0.909 -33.462  1.00  0.00     0.029 A 
ENDBRANCH  14  17
ENDBRANCH  12  13
ENDBRANCH  11  12
ENDBRANCH   4  11
BRANCH   8  24
HETATM   24  C   UNL     1      -3.327   4.646 -32.491  1.00  0.00    -0.044 A 
HETATM   25  C   UNL     1      -2.012   4.730 -32.991  1.00  0.00     0.008 A 
HETATM   26  C   UNL     1      -1.772   4.966 -34.344  1.00  0.00     0.001 A 
HETATM   27  C   UNL     1      -2.838   5.136 -35.221  1.00  0.00     0.000 A 
HETATM   28  C   UNL     1      -4.146   5.070 -34.743  1.00  0.00     0.001 A 
HETATM   29  C   UNL     1      -4.393   4.828 -33.389  1.00  0.00     0.008 A 
ENDBRANCH   8  24
BRANCH   9  30
HETATM   30  C   UNL     1      -3.097   6.855 -30.012  1.00  0.00     0.255 C 
HETATM   31  N   UNL     1      -2.467   6.772 -28.787  1.00  0.00    -0.321 N 
HETATM   32  H   UNL     1      -2.867   6.208 -28.055  1.00  0.00     0.169 HD
HETATM   33  O   UNL     1      -2.989   7.813 -30.774  1.00  0.00    -0.268 OA
BRANCH  31  34
HETATM   34  C   UNL     1      -1.389   7.599 -28.390  1.00  0.00     0.068 A 
HETATM   35  C   UNL     1      -1.553   8.763 -27.609  1.00  0.00     0.095 A 
HETATM   36  C   UNL     1      -0.419   9.492 -27.234  1.00  0.00     0.039 A 
HETATM   37  C   UNL     1       0.853   9.097 -27.657  1.00  0.00     0.003 A 
HETATM   38  C   UNL     1       1.003   7.986 -28.481  1.00  0.00     0.002 A 
HETATM   39  C   UNL     1      -0.118   7.248 -28.862  1.00  0.00     0.032 A 
BRANCH  35  40
HETATM   40  O   UNL     1      -2.840   9.171 -27.367  1.00  0.00    -0.354 OA
HETATM   41  C   UNL     1      -3.360  10.229 -28.157  1.00  0.00     0.210 C 
ENDBRANCH  35  40
ENDBRANCH  31  34
ENDBRANCH   9  30
TORSDOF 8
ENDMDL
MODEL 3
REMARK VINA RESULT:      -9.1      3.166      8.572
REMARK  8 active torsions:
REMARK  status: ('A' for Active; 'I' for Inactive)
REMARK    1  A    between atoms: C_4  and  S_5 
REMARK    2  A    between atoms: S_5  and  C_6 
REMARK    3  A    between atoms: C_6  and  C_7 
REMARK       I    between atoms: C_7  and  N_8 
REMARK    4  A    between atoms: N_8  and  C_9 
REMARK    5  A    between atoms: C_20  and  C_21 
REMARK    6  A    between atoms: C_27  and  C_28 
REMARK       I    between atoms: C_28  and  N_29 
REMARK    7  A    between atoms: N_29  and  C_30 
REMARK    8  A    between atoms: C_31  and  O_32 
ROOT
HETATM    1  C   UNL     1      -6.675   0.579 -30.079  1.00  0.00     0.069 C 
HETATM    2  C   UNL     1      -6.726   1.960 -30.687  1.00  0.00     0.019 C 
HETATM    3  N   UNL     1      -6.856   3.004 -29.784  1.00  0.00    -0.353 N 
HETATM    4  C   UNL     1      -7.117   4.319 -30.117  1.00  0.00     0.087 C 
HETATM    5  C   UNL     1      -7.087   4.673 -31.423  1.00  0.00     0.055 C 
HETATM    6  C   UNL     1      -7.527   6.047 -31.901  1.00  0.00     0.019 C 
HETATM    7  N   UNL     1      -7.893   7.186 -32.298  1.00  0.00    -0.096 N 
HETATM    8  C   UNL     1      -6.576   3.690 -32.475  1.00  0.00     0.104 C 
HETATM    9  C   UNL     1      -6.609   2.232 -32.012  1.00  0.00     0.046 C 
HETATM   10  H   UNL     1      -6.932   2.778 -28.796  1.00  0.00     0.166 HD
ENDROOT
BRANCH   4  11
HETATM   11  S   UNL     1      -7.281   5.499 -28.839  1.00  0.00    -0.102 SA
BRANCH  11  12
HETATM   12  C   UNL     1      -5.728   5.344 -27.903  1.00  0.00     0.184 C 
BRANCH  12  13
HETATM   13  C   UNL     1      -4.651   6.304 -28.426  1.00  0.00     0.231 C 
HETATM   14  N   UNL     1      -4.139   5.968 -29.668  1.00  0.00    -0.326 N 
HETATM   15  H   UNL     1      -4.492   5.097 -30.053  1.00  0.00     0.169 HD
HETATM   16  O   UNL     1      -4.342   7.296 -27.769  1.00  0.00    -0.272 OA
BRANCH  14  17
HETATM   17  C   UNL     1      -3.134   6.612 -30.414  1.00  0.00     0.036 A 
HETATM   18  C   UNL     1      -1.769   6.369 -30.266  1.00  0.00     0.053 A 
HETATM   19  C   UNL     1      -0.850   7.054 -31.065  1.00  0.00     0.036 A 
HETATM   20 CL   UNL     1       0.836   6.755 -30.879  1.00  0.00    -0.084 Cl
HETATM   21  C   UNL     1      -1.277   7.978 -32.017  1.00  0.00     0.024 A 
HETATM   22  C   UNL     1      -2.637   8.226 -32.170  1.00  0.00     0.004 A 
HETATM   23  C   UNL     1      -3.560   7.548 -31.369  1.00  0.00     0.029 A 
ENDBRANCH  14  17
ENDBRANCH  12  13
ENDBRANCH  11  12
ENDBRANCH   4  11
BRANCH   8  24
HETATM   24  C   UNL     1      -5.162   4.136 -32.889  1.00  0.00    -0.044 A 
HETATM   25  C   UNL     1      -4.964   5.072 -33.924  1.00  0.00     0.008 A 
HETATM   26  C   UNL     1      -3.680   5.421 -34.339  1.00  0.00     0.001 A 
HETATM   27  C   UNL     1      -2.570   4.836 -33.738  1.00  0.00     0.000 A 
HETATM   28  C   UNL     1      -2.746   3.898 -32.722  1.00  0.00     0.001 A 
HETATM   29  C   UNL     1      -4.032   3.548 -32.298  1.00  0.00     0.008 A 
ENDBRANCH   8  24
BRANCH   9  30
HETATM   30  C   UNL     1      -6.545   1.111 -33.017  1.00  0.00     0.255 C 
HETATM   31  N   UNL     1      -5.705   0.064 -32.697  1.00  0.00    -0.321 N 
HETATM   32  H   UNL     1      -4.974   0.198 -32.018  1.00  0.00     0.169 HD
HETATM   33  O   UNL     1      -7.124   1.220 -34.095  1.00  0.00    -0.268 OA
BRANCH  31  34
HETATM   34  C   UNL     1      -5.646  -1.155 -33.414  1.00  0.00     0.068 A 
HETATM   35  C   UNL     1      -4.444  -1.847 -33.669  1.00  0.00     0.095 A 
HETATM   36  C   UNL     1      -4.496  -3.067 -34.353  1.00  0.00     0.039 A 
HETATM   37  C   UNL     1      -5.715  -3.576 -34.809  1.00  0.00     0.003 A 
HETATM   38  C   UNL     1      -6.890  -2.858 -34.612  1.00  0.00     0.002 A 
HETATM   39  C   UNL     1      -6.854  -1.641 -33.931  1.00  0.00     0.032 A 
BRANCH  35  40
HETATM   40  O   UNL     1      -3.278  -1.210 -33.329  1.00  0.00    -0.354 OA
HETATM   41  C   UNL     1      -2.810  -1.348 -31.996  1.00  0.00     0.210 C 
ENDBRANCH  35  40
ENDBRANCH  31  34
ENDBRANCH   9  30
TORSDOF 8
ENDMDL
MODEL 4
REMARK VINA RESULT:      -9.0      2.372      3.954
REMARK  8 active torsions:
REMARK  status: ('A' for Active; 'I' for Inactive)
REMARK    1  A    between atoms: C_4  and  S_5 
REMARK    2  A    between atoms: S_5  and  C_6 
REMARK    3  A    between atoms: C_6  and  C_7 
REMARK       I    between atoms: C_7  and  N_8 
REMARK    4  A    between atoms: N_8  and  C_9 
REMARK    5  A    between atoms: C_20  and  C_21 
REMARK    6  A    between atoms: C_27  and  C_28 
REMARK       I    between atoms: C_28  and  N_29 
REMARK    7  A    between atoms: N_29  and  C_30 
REMARK    8  A    between atoms: C_31  and  O_32 
ROOT
HETATM    1  C   UNL     1      -4.091   1.545 -31.378  1.00  0.00     0.069 C 
HETATM    2  C   UNL     1      -5.139   2.491 -31.913  1.00  0.00     0.019 C 
HETATM    3  N   UNL     1      -6.440   2.014 -31.890  1.00  0.00    -0.353 N 
HETATM    4  C   UNL     1      -7.522   2.617 -32.500  1.00  0.00     0.087 C 
HETATM    5  C   UNL     1      -7.359   3.852 -33.029  1.00  0.00     0.055 C 
HETATM    6  C   UNL     1      -8.434   4.523 -33.868  1.00  0.00     0.019 C 
HETATM    7  N   UNL     1      -9.325   5.080 -34.564  1.00  0.00    -0.096 N 
HETATM    8  C   UNL     1      -6.072   4.635 -32.775  1.00  0.00     0.104 C 
HETATM    9  C   UNL     1      -4.895   3.752 -32.355  1.00  0.00     0.046 C 
HETATM   10  H   UNL     1      -6.600   1.071 -31.546  1.00  0.00     0.166 HD
ENDROOT
BRANCH   4  11
HETATM   11  S   UNL     1      -9.090   1.853 -32.393  1.00  0.00    -0.102 SA
BRANCH  11  12
HETATM   12  C   UNL     1      -9.348   1.159 -34.055  1.00  0.00     0.184 C 
BRANCH  12  13
HETATM   13  C   UNL     1      -8.105   0.411 -34.559  1.00  0.00     0.231 C 
HETATM   14  N   UNL     1      -7.771  -0.709 -33.817  1.00  0.00    -0.326 N 
HETATM   15  H   UNL     1      -8.349  -0.864 -32.996  1.00  0.00     0.169 HD
HETATM   16  O   UNL     1      -7.523   0.801 -35.569  1.00  0.00    -0.272 OA
BRANCH  14  17
HETATM   17  C   UNL     1      -6.689  -1.593 -33.988  1.00  0.00     0.036 A 
HETATM   18  C   UNL     1      -6.788  -2.847 -34.588  1.00  0.00     0.053 A 
HETATM   19  C   UNL     1      -5.648  -3.647 -34.720  1.00  0.00     0.036 A 
HETATM   20 CL   UNL     1      -5.772  -5.198 -35.459  1.00  0.00    -0.084 Cl
HETATM   21  C   UNL     1      -4.407  -3.206 -34.264  1.00  0.00     0.024 A 
HETATM   22  C   UNL     1      -4.302  -1.955 -33.663  1.00  0.00     0.004 A 
HETATM   23  C   UNL     1      -5.439  -1.156 -33.524  1.00  0.00     0.029 A 
ENDBRANCH  14  17
ENDBRANCH  12  13
ENDBRANCH  11  12
ENDBRANCH   4  11
BRANCH   8  24
HETATM   24  C   UNL     1      -6.383   5.723 -31.731  1.00  0.00    -0.044 A 
HETATM   25  C   UNL     1      -6.664   5.392 -30.390  1.00  0.00     0.008 A 
HETATM   26  C   UNL     1      -7.011   6.376 -29.465  1.00  0.00     0.001 A 
HETATM   27  C   UNL     1      -7.096   7.706 -29.863  1.00  0.00     0.000 A 
HETATM   28  C   UNL     1      -6.834   8.052 -31.188  1.00  0.00     0.001 A 
HETATM   29  C   UNL     1      -6.480   7.070 -32.118  1.00  0.00     0.008 A 
ENDBRANCH   8  24
BRANCH   9  30
HETATM   30  C   UNL     1      -3.482   4.262 -32.462  1.00  0.00     0.255 C 
HETATM   31  N   UNL     1      -3.079   5.130 -31.468  1.00  0.00    -0.321 N 
HETATM   32  H   UNL     1      -3.768   5.615 -30.916  1.00  0.00     0.169 HD
HETATM   33  O   UNL     1      -2.806   3.995 -33.453  1.00  0.00    -0.268 OA
BRANCH  31  34
HETATM   34  C   UNL     1      -1.746   5.570 -31.289  1.00  0.00     0.068 A 
HETATM   35  C   UNL     1      -1.251   6.778 -31.824  1.00  0.00     0.095 A 
HETATM   36  C   UNL     1       0.073   7.145 -31.557  1.00  0.00     0.039 A 
HETATM   37  C   UNL     1       0.904   6.311 -30.803  1.00  0.00     0.003 A 
HETATM   38  C   UNL     1       0.430   5.091 -30.333  1.00  0.00     0.002 A 
HETATM   39  C   UNL     1      -0.888   4.713 -30.590  1.00  0.00     0.032 A 
BRANCH  35  40
HETATM   40  O   UNL     1      -2.076   7.461 -32.680  1.00  0.00    -0.354 OA
HETATM   41  C   UNL     1      -1.868   7.298 -34.074  1.00  0.00     0.210 C 
ENDBRANCH  35  40
ENDBRANCH  31  34
ENDBRANCH   9  30
TORSDOF 8
ENDMDL
MODEL 5
REMARK VINA RESULT:      -9.0      3.343      9.007
REMARK  8 active torsions:
REMARK  status: ('A' for Active; 'I' for Inactive)
REMARK    1  A    between atoms: C_4  and  S_5 
REMARK    2  A    between atoms: S_5  and  C_6 
REMARK    3  A    between atoms: C_6  and  C_7 
REMARK       I    between atoms: C_7  and  N_8 
REMARK    4  A    between atoms: N_8  and  C_9 
REMARK    5  A    between atoms: C_20  and  C_21 
REMARK    6  A    between atoms: C_27  and  C_28 
REMARK       I    between atoms: C_28  and  N_29 
REMARK    7  A    between atoms: N_29  and  C_30 
REMARK    8  A    between atoms: C_31  and  O_32 
ROOT
HETATM    1  C   UNL     1      -5.314   3.611 -34.620  1.00  0.00     0.069 C 
HETATM    2  C   UNL     1      -6.614   3.536 -33.855  1.00  0.00     0.019 C 
HETATM    3  N   UNL     1      -6.999   4.705 -33.220  1.00  0.00    -0.353 N 
HETATM    4  C   UNL     1      -8.036   4.817 -32.313  1.00  0.00     0.087 C 
HETATM    5  C   UNL     1      -8.856   3.755 -32.138  1.00  0.00     0.055 C 
HETATM    6  C   UNL     1      -9.912   3.719 -31.045  1.00  0.00     0.019 C 
HETATM    7  N   UNL     1     -10.788   3.688 -30.139  1.00  0.00    -0.096 N 
HETATM    8  C   UNL     1      -8.760   2.546 -33.067  1.00  0.00     0.104 C 
HETATM    9  C   UNL     1      -7.420   2.445 -33.797  1.00  0.00     0.046 C 
HETATM   10  H   UNL     1      -6.385   5.513 -33.285  1.00  0.00     0.166 HD
ENDROOT
BRANCH   4  11
HETATM   11  S   UNL     1      -8.359   6.371 -31.583  1.00  0.00    -0.102 SA
BRANCH  11  12
HETATM   12  C   UNL     1      -7.321   6.371 -30.088  1.00  0.00     0.184 C 
BRANCH  12  13
HETATM   13  C   UNL     1      -5.835   6.193 -30.427  1.00  0.00     0.231 C 
HETATM   14  N   UNL     1      -5.360   7.064 -31.394  1.00  0.00    -0.326 N 
HETATM   15  H   UNL     1      -6.064   7.669 -31.804  1.00  0.00     0.169 HD
HETATM   16  O   UNL     1      -5.164   5.358 -29.825  1.00  0.00    -0.272 OA
BRANCH  14  17
HETATM   17  C   UNL     1      -4.070   7.150 -31.949  1.00  0.00     0.036 A 
HETATM   18  C   UNL     1      -3.591   6.314 -32.956  1.00  0.00     0.053 A 
HETATM   19  C   UNL     1      -2.294   6.490 -33.448  1.00  0.00     0.036 A 
HETATM   20 CL   UNL     1      -1.702   5.454 -34.690  1.00  0.00    -0.084 Cl
HETATM   21  C   UNL     1      -1.469   7.496 -32.950  1.00  0.00     0.024 A 
HETATM   22  C   UNL     1      -1.940   8.334 -31.943  1.00  0.00     0.004 A 
HETATM   23  C   UNL     1      -3.233   8.158 -31.444  1.00  0.00     0.029 A 
ENDBRANCH  14  17
ENDBRANCH  12  13
ENDBRANCH  11  12
ENDBRANCH   4  11
BRANCH   8  24
HETATM   24  C   UNL     1      -9.950   2.607 -34.042  1.00  0.00    -0.044 A 
HETATM   25  C   UNL     1     -10.238   3.777 -34.772  1.00  0.00     0.008 A 
HETATM   26  C   UNL     1     -11.356   3.849 -35.602  1.00  0.00     0.001 A 
HETATM   27  C   UNL     1     -12.214   2.759 -35.710  1.00  0.00     0.000 A 
HETATM   28  C   UNL     1     -11.952   1.596 -34.986  1.00  0.00     0.001 A 
HETATM   29  C   UNL     1     -10.830   1.518 -34.156  1.00  0.00     0.008 A 
ENDBRANCH   8  24
BRANCH   9  30
HETATM   30  C   UNL     1      -6.984   1.142 -34.415  1.00  0.00     0.255 C 
HETATM   31  N   UNL     1      -6.289   0.285 -33.587  1.00  0.00    -0.321 N 
HETATM   32  H   UNL     1      -5.846   0.642 -32.756  1.00  0.00     0.169 HD
HETATM   33  O   UNL     1      -7.150   0.948 -35.618  1.00  0.00    -0.268 OA
BRANCH  31  34
HETATM   34  C   UNL     1      -5.958  -1.050 -33.921  1.00  0.00     0.068 A 
HETATM   35  C   UNL     1      -4.651  -1.572 -33.820  1.00  0.00     0.095 A 
HETATM   36  C   UNL     1      -4.433  -2.918 -34.137  1.00  0.00     0.039 A 
HETATM   37  C   UNL     1      -5.485  -3.723 -34.581  1.00  0.00     0.003 A 
HETATM   38  C   UNL     1      -6.758  -3.187 -34.741  1.00  0.00     0.002 A 
HETATM   39  C   UNL     1      -6.991  -1.847 -34.428  1.00  0.00     0.032 A 
BRANCH  35  40
HETATM   40  O   UNL     1      -3.649  -0.682 -33.530  1.00  0.00    -0.354 OA
HETATM   41  C   UNL     1      -3.011  -0.790 -32.266  1.00  0.00     0.210 C 
ENDBRANCH  35  40
ENDBRANCH  31  34
ENDBRANCH   9  30
TORSDOF 8
ENDMDL
MODEL 6
REMARK VINA RESULT:      -8.8      1.780      2.230
REMARK  8 active torsions:
REMARK  status: ('A' for Active; 'I' for Inactive)
REMARK    1  A    between atoms: C_4  and  S_5 
REMARK    2  A    between atoms: S_5  and  C_6 
REMARK    3  A    between atoms: C_6  and  C_7 
REMARK       I    between atoms: C_7  and  N_8 
REMARK    4  A    between atoms: N_8  and  C_9 
REMARK    5  A    between atoms: C_20  and  C_21 
REMARK    6  A    between atoms: C_27  and  C_28 
REMARK       I    between atoms: C_28  and  N_29 
REMARK    7  A    between atoms: N_29  and  C_30 
REMARK    8  A    between atoms: C_31  and  O_32 
ROOT
HETATM    1  C   UNL     1      -7.544   6.344 -30.264  1.00  0.00     0.069 C 
HETATM    2  C   UNL     1      -6.543   5.276 -30.636  1.00  0.00     0.019 C 
HETATM    3  N   UNL     1      -7.071   4.156 -31.260  1.00  0.00    -0.353 N 
HETATM    4  C   UNL     1      -6.385   2.984 -31.510  1.00  0.00     0.087 C 
HETATM    5  C   UNL     1      -5.050   2.958 -31.287  1.00  0.00     0.055 C 
HETATM    6  C   UNL     1      -4.240   1.674 -31.367  1.00  0.00     0.019 C 
HETATM    7  N   UNL     1      -3.568   0.609 -31.432  1.00  0.00    -0.096 N 
HETATM    8  C   UNL     1      -4.297   4.248 -30.967  1.00  0.00     0.104 C 
HETATM    9  C   UNL     1      -5.202   5.366 -30.446  1.00  0.00     0.046 C 
HETATM   10  H   UNL     1      -8.077   4.114 -31.400  1.00  0.00     0.166 HD
ENDROOT
BRANCH   4  11
HETATM   11  S   UNL     1      -7.224   1.658 -32.279  1.00  0.00    -0.102 SA
BRANCH  11  12
HETATM   12  C   UNL     1      -6.663   1.734 -34.008  1.00  0.00     0.184 C 
BRANCH  12  13
HETATM   13  C   UNL     1      -6.616   0.341 -34.651  1.00  0.00     0.231 C 
HETATM   14  N   UNL     1      -6.075  -0.645 -33.843  1.00  0.00    -0.326 N 
HETATM   15  H   UNL     1      -5.718  -0.317 -32.951  1.00  0.00     0.169 HD
HETATM   16  O   UNL     1      -7.076   0.170 -35.778  1.00  0.00    -0.272 OA
BRANCH  14  17
HETATM   17  C   UNL     1      -5.863  -2.007 -34.131  1.00  0.00     0.036 A 
HETATM   18  C   UNL     1      -4.657  -2.674 -33.922  1.00  0.00     0.053 A 
HETATM   19  C   UNL     1      -4.552  -4.034 -34.230  1.00  0.00     0.036 A 
HETATM   20 CL   UNL     1      -3.061  -4.858 -33.974  1.00  0.00    -0.084 Cl
HETATM   21  C   UNL     1      -5.641  -4.739 -34.742  1.00  0.00     0.024 A 
HETATM   22  C   UNL     1      -6.847  -4.078 -34.955  1.00  0.00     0.004 A 
HETATM   23  C   UNL     1      -6.954  -2.717 -34.653  1.00  0.00     0.029 A 
ENDBRANCH  14  17
ENDBRANCH  12  13
ENDBRANCH  11  12
ENDBRANCH   4  11
BRANCH   8  24
HETATM   24  C   UNL     1      -3.524   4.667 -32.230  1.00  0.00    -0.044 A 
HETATM   25  C   UNL     1      -2.120   4.787 -32.222  1.00  0.00     0.008 A 
HETATM   26  C   UNL     1      -1.431   5.233 -33.349  1.00  0.00     0.001 A 
HETATM   27  C   UNL     1      -2.130   5.577 -34.501  1.00  0.00     0.000 A 
HETATM   28  C   UNL     1      -3.520   5.477 -34.524  1.00  0.00     0.001 A 
HETATM   29  C   UNL     1      -4.216   5.026 -33.399  1.00  0.00     0.008 A 
ENDBRANCH   8  24
BRANCH   9  30
HETATM   30  C   UNL     1      -4.615   6.538 -29.702  1.00  0.00     0.255 C 
HETATM   31  N   UNL     1      -4.028   7.512 -30.482  1.00  0.00    -0.321 N 
HETATM   32  H   UNL     1      -3.742   7.296 -31.423  1.00  0.00     0.169 HD
HETATM   33  O   UNL     1      -4.575   6.527 -28.474  1.00  0.00    -0.268 OA
BRANCH  31  34
HETATM   34  C   UNL     1      -3.589   8.766 -29.992  1.00  0.00     0.068 A 
HETATM   35  C   UNL     1      -2.274   9.004 -29.541  1.00  0.00     0.095 A 
HETATM   36  C   UNL     1      -1.927  10.290 -29.112  1.00  0.00     0.039 A 
HETATM   37  C   UNL     1      -2.877  11.314 -29.094  1.00  0.00     0.003 A 
HETATM   38  C   UNL     1      -4.189  11.058 -29.478  1.00  0.00     0.002 A 
HETATM   39  C   UNL     1      -4.550   9.782 -29.910  1.00  0.00     0.032 A 
BRANCH  35  40
HETATM   40  O   UNL     1      -1.446   7.915 -29.441  1.00  0.00    -0.354 OA
HETATM   41  C   UNL     1      -0.155   8.111 -28.886  1.00  0.00     0.210 C 
ENDBRANCH  35  40
ENDBRANCH  31  34
ENDBRANCH   9  30
TORSDOF 8
ENDMDL
MODEL 7
REMARK VINA RESULT:      -8.8      2.294      4.353
REMARK  8 active torsions:
REMARK  status: ('A' for Active; 'I' for Inactive)
REMARK    1  A    between atoms: C_4  and  S_5 
REMARK    2  A    between atoms: S_5  and  C_6 
REMARK    3  A    between atoms: C_6  and  C_7 
REMARK       I    between atoms: C_7  and  N_8 
REMARK    4  A    between atoms: N_8  and  C_9 
REMARK    5  A    between atoms: C_20  and  C_21 
REMARK    6  A    between atoms: C_27  and  C_28 
REMARK       I    between atoms: C_28  and  N_29 
REMARK    7  A    between atoms: N_29  and  C_30 
REMARK    8  A    between atoms: C_31  and  O_32 
ROOT
HETATM    1  C   UNL     1      -3.570   2.437 -32.510  1.00  0.00     0.069 C 
HETATM    2  C   UNL     1      -4.863   3.187 -32.725  1.00  0.00     0.019 C 
HETATM    3  N   UNL     1      -5.953   2.407 -33.074  1.00  0.00    -0.353 N 
HETATM    4  C   UNL     1      -7.174   2.889 -33.506  1.00  0.00     0.087 C 
HETATM    5  C   UNL     1      -7.403   4.221 -33.436  1.00  0.00     0.055 C 
HETATM    6  C   UNL     1      -8.640   4.864 -34.042  1.00  0.00     0.019 C 
HETATM    7  N   UNL     1      -9.665   5.397 -34.546  1.00  0.00    -0.096 N 
HETATM    8  C   UNL     1      -6.417   5.135 -32.709  1.00  0.00     0.104 C 
HETATM    9  C   UNL     1      -5.023   4.525 -32.555  1.00  0.00     0.046 C 
HETATM   10  H   UNL     1      -5.812   1.406 -33.186  1.00  0.00     0.166 HD
ENDROOT
BRANCH   4  11
HETATM   11  S   UNL     1      -8.429   1.752 -33.936  1.00  0.00    -0.102 SA
BRANCH  11  12
HETATM   12  C   UNL     1      -7.568   0.527 -34.970  1.00  0.00     0.184 C 
BRANCH  12  13
HETATM   13  C   UNL     1      -6.906  -0.568 -34.121  1.00  0.00     0.231 C 
HETATM   14  N   UNL     1      -6.078  -1.421 -34.830  1.00  0.00    -0.326 N 
HETATM   15  H   UNL     1      -6.059  -1.259 -35.833  1.00  0.00     0.169 HD
HETATM   16  O   UNL     1      -7.101  -0.604 -32.908  1.00  0.00    -0.272 OA
BRANCH  14  17
HETATM   17  C   UNL     1      -5.349  -2.532 -34.369  1.00  0.00     0.036 A 
HETATM   18  C   UNL     1      -4.375  -2.473 -33.373  1.00  0.00     0.053 A 
HETATM   19  C   UNL     1      -3.714  -3.640 -32.976  1.00  0.00     0.036 A 
HETATM   20 CL   UNL     1      -2.509  -3.565 -31.748  1.00  0.00    -0.084 Cl
HETATM   21  C   UNL     1      -4.016  -4.869 -33.560  1.00  0.00     0.024 A 
HETATM   22  C   UNL     1      -4.986  -4.934 -34.556  1.00  0.00     0.004 A 
HETATM   23  C   UNL     1      -5.645  -3.770 -34.959  1.00  0.00     0.029 A 
ENDBRANCH  14  17
ENDBRANCH  12  13
ENDBRANCH  11  12
ENDBRANCH   4  11
BRANCH   8  24
HETATM   24  C   UNL     1      -7.039   5.513 -31.353  1.00  0.00    -0.044 A 
HETATM   25  C   UNL     1      -7.622   6.778 -31.142  1.00  0.00     0.008 A 
HETATM   26  C   UNL     1      -8.123   7.139 -29.892  1.00  0.00     0.001 A 
HETATM   27  C   UNL     1      -8.040   6.249 -28.826  1.00  0.00     0.000 A 
HETATM   28  C   UNL     1      -7.455   4.998 -29.011  1.00  0.00     0.001 A 
HETATM   29  C   UNL     1      -6.957   4.629 -30.264  1.00  0.00     0.008 A 
ENDBRANCH   8  24
BRANCH   9  30
HETATM   30  C   UNL     1      -3.836   5.402 -32.252  1.00  0.00     0.255 C 
HETATM   31  N   UNL     1      -3.231   5.193 -31.030  1.00  0.00    -0.321 N 
HETATM   32  H   UNL     1      -3.735   4.726 -30.294  1.00  0.00     0.169 HD
HETATM   33  O   UNL     1      -3.536   6.315 -33.018  1.00  0.00    -0.268 OA
BRANCH  31  34
HETATM   34  C   UNL     1      -2.004   5.781 -30.640  1.00  0.00     0.068 A 
HETATM   35  C   UNL     1      -1.919   6.922 -29.814  1.00  0.00     0.095 A 
HETATM   36  C   UNL     1      -0.656   7.404 -29.452  1.00  0.00     0.039 A 
HETATM   37  C   UNL     1       0.504   6.789 -29.929  1.00  0.00     0.003 A 
HETATM   38  C   UNL     1       0.415   5.704 -30.796  1.00  0.00     0.002 A 
HETATM   39  C   UNL     1      -0.837   5.211 -31.164  1.00  0.00     0.032 A 
BRANCH  35  40
HETATM   40  O   UNL     1      -3.096   7.560 -29.516  1.00  0.00    -0.354 OA
HETATM   41  C   UNL     1      -3.471   7.658 -28.151  1.00  0.00     0.210 C 
ENDBRANCH  35  40
ENDBRANCH  31  34
ENDBRANCH   9  30
TORSDOF 8
ENDMDL
MODEL 8
REMARK VINA RESULT:      -8.7      5.156      9.743
REMARK  8 active torsions:
REMARK  status: ('A' for Active; 'I' for Inactive)
REMARK    1  A    between atoms: C_4  and  S_5 
REMARK    2  A    between atoms: S_5  and  C_6 
REMARK    3  A    between atoms: C_6  and  C_7 
REMARK       I    between atoms: C_7  and  N_8 
REMARK    4  A    between atoms: N_8  and  C_9 
REMARK    5  A    between atoms: C_20  and  C_21 
REMARK    6  A    between atoms: C_27  and  C_28 
REMARK       I    between atoms: C_28  and  N_29 
REMARK    7  A    between atoms: N_29  and  C_30 
REMARK    8  A    between atoms: C_31  and  O_32 
ROOT
HETATM    1  C   UNL     1     -10.358  -0.644 -32.792  1.00  0.00     0.069 C 
HETATM    2  C   UNL     1      -9.870   0.771 -32.995  1.00  0.00     0.019 C 
HETATM    3  N   UNL     1     -10.654   1.760 -32.422  1.00  0.00    -0.353 N 
HETATM    4  C   UNL     1     -10.514   3.117 -32.641  1.00  0.00     0.087 C 
HETATM    5  C   UNL     1      -9.435   3.550 -33.334  1.00  0.00     0.055 C 
HETATM    6  C   UNL     1      -9.282   4.997 -33.773  1.00  0.00     0.019 C 
HETATM    7  N   UNL     1      -9.155   6.197 -34.138  1.00  0.00    -0.096 N 
HETATM    8  C   UNL     1      -8.304   2.584 -33.682  1.00  0.00     0.104 C 
HETATM    9  C   UNL     1      -8.726   1.114 -33.642  1.00  0.00     0.046 C 
HETATM   10  H   UNL     1     -11.501   1.479 -31.935  1.00  0.00     0.166 HD
ENDROOT
BRANCH   4  11
HETATM   11  S   UNL     1     -11.618   4.219 -31.856  1.00  0.00    -0.102 SA
BRANCH  11  12
HETATM   12  C   UNL     1     -13.154   4.053 -32.817  1.00  0.00     0.184 C 
BRANCH  12  13
HETATM   13  C   UNL     1     -12.996   4.607 -34.240  1.00  0.00     0.231 C 
HETATM   14  N   UNL     1     -13.077   5.986 -34.331  1.00  0.00    -0.326 N 
HETATM   15  H   UNL     1     -13.294   6.458 -33.458  1.00  0.00     0.169 HD
HETATM   16  O   UNL     1     -12.775   3.840 -35.175  1.00  0.00    -0.272 OA
BRANCH  14  17
HETATM   17  C   UNL     1     -13.002   6.804 -35.474  1.00  0.00     0.036 A 
HETATM   18  C   UNL     1     -11.875   7.535 -35.843  1.00  0.00     0.053 A 
HETATM   19  C   UNL     1     -11.898   8.311 -37.006  1.00  0.00     0.036 A 
HETATM   20 CL   UNL     1     -10.505   9.216 -37.460  1.00  0.00    -0.084 Cl
HETATM   21  C   UNL     1     -13.035   8.361 -37.811  1.00  0.00     0.024 A 
HETATM   22  C   UNL     1     -14.165   7.634 -37.447  1.00  0.00     0.004 A 
HETATM   23  C   UNL     1     -14.147   6.863 -36.282  1.00  0.00     0.029 A 
ENDBRANCH  14  17
ENDBRANCH  12  13
ENDBRANCH  11  12
ENDBRANCH   4  11
BRANCH   8  24
HETATM   24  C   UNL     1      -7.127   2.877 -32.735  1.00  0.00    -0.044 A 
HETATM   25  C   UNL     1      -5.876   3.295 -33.231  1.00  0.00     0.008 A 
HETATM   26  C   UNL     1      -4.794   3.494 -32.374  1.00  0.00     0.001 A 
HETATM   27  C   UNL     1      -4.937   3.267 -31.009  1.00  0.00     0.000 A 
HETATM   28  C   UNL     1      -6.163   2.841 -30.501  1.00  0.00     0.001 A 
HETATM   29  C   UNL     1      -7.252   2.645 -31.355  1.00  0.00     0.008 A 
ENDBRANCH   8  24
BRANCH   9  30
HETATM   30  C   UNL     1      -7.900   0.064 -34.337  1.00  0.00     0.255 C 
HETATM   31  N   UNL     1      -7.091  -0.702 -33.524  1.00  0.00    -0.321 N 
HETATM   32  H   UNL     1      -6.845  -0.370 -32.606  1.00  0.00     0.169 HD
HETATM   33  O   UNL     1      -7.885   0.009 -35.565  1.00  0.00    -0.268 OA
BRANCH  31  34
HETATM   34  C   UNL     1      -6.385  -1.850 -33.958  1.00  0.00     0.068 A 
HETATM   35  C   UNL     1      -4.977  -1.927 -33.993  1.00  0.00     0.095 A 
HETATM   36  C   UNL     1      -4.373  -3.122 -34.401  1.00  0.00     0.039 A 
HETATM   37  C   UNL     1      -5.152  -4.211 -34.802  1.00  0.00     0.003 A 
HETATM   38  C   UNL     1      -6.538  -4.108 -34.827  1.00  0.00     0.002 A 
HETATM   39  C   UNL     1      -7.155  -2.924 -34.422  1.00  0.00     0.032 A 
BRANCH  35  40
HETATM   40  O   UNL     1      -4.287  -0.770 -33.736  1.00  0.00    -0.354 OA
HETATM   41  C   UNL     1      -3.416  -0.751 -32.615  1.00  0.00     0.210 C 
ENDBRANCH  35  40
ENDBRANCH  31  34
ENDBRANCH   9  30
TORSDOF 8
ENDMDL
MODEL 9
REMARK VINA RESULT:      -8.5      3.834      9.577
REMARK  8 active torsions:
REMARK  status: ('A' for Active; 'I' for Inactive)
REMARK    1  A    between atoms: C_4  and  S_5 
REMARK    2  A    between atoms: S_5  and  C_6 
REMARK    3  A    between atoms: C_6  and  C_7 
REMARK       I    between atoms: C_7  and  N_8 
REMARK    4  A    between atoms: N_8  and  C_9 
REMARK    5  A    between atoms: C_20  and  C_21 
REMARK    6  A    between atoms: C_27  and  C_28 
REMARK       I    between atoms: C_28  and  N_29 
REMARK    7  A    between atoms: N_29  and  C_30 
REMARK    8  A    between atoms: C_31  and  O_32 
ROOT
HETATM    1  C   UNL     1      -3.020   2.503 -31.799  1.00  0.00     0.069 C 
HETATM    2  C   UNL     1      -4.270   3.136 -31.236  1.00  0.00     0.019 C 
HETATM    3  N   UNL     1      -4.135   4.448 -30.812  1.00  0.00    -0.353 N 
HETATM    4  C   UNL     1      -5.079   5.155 -30.092  1.00  0.00     0.087 C 
HETATM    5  C   UNL     1      -6.302   4.605 -29.917  1.00  0.00     0.055 C 
HETATM    6  C   UNL     1      -7.346   5.223 -29.000  1.00  0.00     0.019 C 
HETATM    7  N   UNL     1      -8.211   5.735 -28.240  1.00  0.00    -0.096 N 
HETATM    8  C   UNL     1      -6.689   3.332 -30.669  1.00  0.00     0.104 C 
HETATM    9  C   UNL     1      -5.485   2.532 -31.170  1.00  0.00     0.046 C 
HETATM   10  H   UNL     1      -3.218   4.882 -30.879  1.00  0.00     0.166 HD
ENDROOT
BRANCH   4  11
HETATM   11  S   UNL     1      -4.721   6.796 -29.611  1.00  0.00    -0.102 SA
BRANCH  11  12
HETATM   12  C   UNL     1      -3.694   7.433 -30.971  1.00  0.00     0.184 C 
BRANCH  12  13
HETATM   13  C   UNL     1      -2.256   7.716 -30.513  1.00  0.00     0.231 C 
HETATM   14  N   UNL     1      -2.089   7.750 -29.139  1.00  0.00    -0.326 N 
HETATM   15  H   UNL     1      -2.945   7.647 -28.604  1.00  0.00     0.169 HD
HETATM   16  O   UNL     1      -1.363   7.850 -31.346  1.00  0.00    -0.272 OA
BRANCH  14  17
HETATM   17  C   UNL     1      -0.921   8.006 -28.396  1.00  0.00     0.036 A 
HETATM   18  C   UNL     1      -0.601   9.244 -27.840  1.00  0.00     0.053 A 
HETATM   19  C   UNL     1       0.581   9.393 -27.108  1.00  0.00     0.036 A 
HETATM   20 CL   UNL     1       0.977  10.923 -26.424  1.00  0.00    -0.084 Cl
HETATM   21  C   UNL     1       1.447   8.317 -26.919  1.00  0.00     0.024 A 
HETATM   22  C   UNL     1       1.134   7.080 -27.473  1.00  0.00     0.004 A 
HETATM   23  C   UNL     1      -0.043   6.928 -28.210  1.00  0.00     0.029 A 
ENDBRANCH  14  17
ENDBRANCH  12  13
ENDBRANCH  11  12
ENDBRANCH   4  11
BRANCH   8  24
HETATM   24  C   UNL     1      -7.638   3.732 -31.813  1.00  0.00    -0.044 A 
HETATM   25  C   UNL     1      -7.214   4.588 -32.849  1.00  0.00     0.008 A 
HETATM   26  C   UNL     1      -8.098   5.001 -33.846  1.00  0.00     0.001 A 
HETATM   27  C   UNL     1      -9.423   4.578 -33.820  1.00  0.00     0.000 A 
HETATM   28  C   UNL     1      -9.864   3.742 -32.795  1.00  0.00     0.001 A 
HETATM   29  C   UNL     1      -8.981   3.321 -31.797  1.00  0.00     0.008 A 
ENDBRANCH   8  24
BRANCH   9  30
HETATM   30  C   UNL     1      -5.638   1.084 -31.554  1.00  0.00     0.255 C 
HETATM   31  N   UNL     1      -5.677   0.821 -32.908  1.00  0.00    -0.321 N 
HETATM   32  H   UNL     1      -5.904   1.559 -33.555  1.00  0.00     0.169 HD
HETATM   33  O   UNL     1      -5.836   0.236 -30.686  1.00  0.00    -0.268 OA
BRANCH  31  34
HETATM   34  C   UNL     1      -5.631  -0.478 -33.468  1.00  0.00     0.068 A 
HETATM   35  C   UNL     1      -4.462  -1.266 -33.502  1.00  0.00     0.095 A 
HETATM   36  C   UNL     1      -4.529  -2.556 -34.042  1.00  0.00     0.039 A 
HETATM   37  C   UNL     1      -5.726  -3.043 -34.573  1.00  0.00     0.003 A 
HETATM   38  C   UNL     1      -6.860  -2.239 -34.595  1.00  0.00     0.002 A 
HETATM   39  C   UNL     1      -6.809  -0.952 -34.060  1.00  0.00     0.032 A 
BRANCH  35  40
HETATM   40  O   UNL     1      -3.295  -0.662 -33.108  1.00  0.00    -0.354 OA
HETATM   41  C   UNL     1      -2.627  -1.187 -31.971  1.00  0.00     0.210 C 
ENDBRANCH  35  40
ENDBRANCH  31  34
ENDBRANCH   9  30
TORSDOF 8
ENDMDL
MODEL 10
REMARK VINA RESULT:      -8.4      2.555      3.661
REMARK  8 active torsions:
REMARK  status: ('A' for Active; 'I' for Inactive)
REMARK    1  A    between atoms: C_4  and  S_5 
REMARK    2  A    between atoms: S_5  and  C_6 
REMARK    3  A    between atoms: C_6  and  C_7 
REMARK       I    between atoms: C_7  and  N_8 
REMARK    4  A    between atoms: N_8  and  C_9 
REMARK    5  A    between atoms: C_20  and  C_21 
REMARK    6  A    between atoms: C_27  and  C_28 
REMARK       I    between atoms: C_28  and  N_29 
REMARK    7  A    between atoms: N_29  and  C_30 
REMARK    8  A    between atoms: C_31  and  O_32 
ROOT
HETATM    1  C   UNL     1      -7.466   5.755 -29.711  1.00  0.00     0.069 C 
HETATM    2  C   UNL     1      -6.423   4.802 -30.243  1.00  0.00     0.019 C 
HETATM    3  N   UNL     1      -6.903   3.581 -30.688  1.00  0.00    -0.353 N 
HETATM    4  C   UNL     1      -6.124   2.493 -31.029  1.00  0.00     0.087 C 
HETATM    5  C   UNL     1      -4.782   2.657 -31.099  1.00  0.00     0.055 C 
HETATM    6  C   UNL     1      -3.832   1.487 -31.295  1.00  0.00     0.019 C 
HETATM    7  N   UNL     1      -3.043   0.517 -31.457  1.00  0.00    -0.096 N 
HETATM    8  C   UNL     1      -4.171   4.054 -31.006  1.00  0.00     0.104 C 
HETATM    9  C   UNL     1      -5.098   5.081 -30.351  1.00  0.00     0.046 C 
HETATM   10  H   UNL     1      -7.900   3.398 -30.605  1.00  0.00     0.166 HD
ENDROOT
BRANCH   4  11
HETATM   11  S   UNL     1      -6.907   1.016 -31.539  1.00  0.00    -0.102 SA
BRANCH  11  12
HETATM   12  C   UNL     1      -6.632   0.979 -33.337  1.00  0.00     0.184 C 
BRANCH  12  13
HETATM   13  C   UNL     1      -7.956   0.920 -34.113  1.00  0.00     0.231 C 
HETATM   14  N   UNL     1      -9.028   1.507 -33.462  1.00  0.00    -0.326 N 
HETATM   15  H   UNL     1      -8.823   1.848 -32.527  1.00  0.00     0.169 HD
HETATM   16  O   UNL     1      -7.987   0.418 -35.234  1.00  0.00    -0.272 OA
BRANCH  14  17
HETATM   17  C   UNL     1     -10.370   1.602 -33.875  1.00  0.00     0.036 A 
HETATM   18  C   UNL     1     -11.366   0.692 -33.524  1.00  0.00     0.053 A 
HETATM   19  C   UNL     1     -12.674   0.883 -33.979  1.00  0.00     0.036 A 
HETATM   20 CL   UNL     1     -13.903  -0.243 -33.546  1.00  0.00    -0.084 Cl
HETATM   21  C   UNL     1     -13.002   1.976 -34.779  1.00  0.00     0.024 A 
HETATM   22  C   UNL     1     -12.012   2.887 -35.135  1.00  0.00     0.004 A 
HETATM   23  C   UNL     1     -10.702   2.697 -34.687  1.00  0.00     0.029 A 
ENDBRANCH  14  17
ENDBRANCH  12  13
ENDBRANCH  11  12
ENDBRANCH   4  11
BRANCH   8  24
HETATM   24  C   UNL     1      -3.746   4.477 -32.424  1.00  0.00    -0.044 A 
HETATM   25  C   UNL     1      -4.701   4.764 -33.419  1.00  0.00     0.008 A 
HETATM   26  C   UNL     1      -4.310   5.080 -34.720  1.00  0.00     0.001 A 
HETATM   27  C   UNL     1      -2.960   5.103 -35.054  1.00  0.00     0.000 A 
HETATM   28  C   UNL     1      -2.001   4.809 -34.086  1.00  0.00     0.001 A 
HETATM   29  C   UNL     1      -2.387   4.497 -32.780  1.00  0.00     0.008 A 
ENDBRANCH   8  24
BRANCH   9  30
HETATM   30  C   UNL     1      -4.543   6.370 -29.805  1.00  0.00     0.255 C 
HETATM   31  N   UNL     1      -3.977   6.296 -28.549  1.00  0.00    -0.321 N 
HETATM   32  H   UNL     1      -4.206   5.528 -27.940  1.00  0.00     0.169 HD
HETATM   33  O   UNL     1      -4.716   7.421 -30.418  1.00  0.00    -0.268 OA
BRANCH  31  34
HETATM   34  C   UNL     1      -3.243   7.346 -27.945  1.00  0.00     0.068 A 
HETATM   35  C   UNL     1      -1.890   7.613 -28.237  1.00  0.00     0.095 A 
HETATM   36  C   UNL     1      -1.264   8.700 -27.615  1.00  0.00     0.039 A 
HETATM   37  C   UNL     1      -1.957   9.487 -26.692  1.00  0.00     0.003 A 
HETATM   38  C   UNL     1      -3.272   9.179 -26.358  1.00  0.00     0.002 A 
HETATM   39  C   UNL     1      -3.910   8.100 -26.971  1.00  0.00     0.032 A 
BRANCH  35  40
HETATM   40  O   UNL     1      -1.236   6.705 -29.030  1.00  0.00    -0.354 OA
HETATM   41  C   UNL     1      -0.908   7.097 -30.355  1.00  0.00     0.210 C 
ENDBRANCH  35  40
ENDBRANCH  31  34
ENDBRANCH   9  30
TORSDOF 8
ENDMDL
