MODEL 1
REMARK VINA RESULT:      -7.7      0.000      0.000
REMARK  2 active torsions:
REMARK  status: ('A' for Active; 'I' for Inactive)
REMARK    1  A    between atoms: C_3  and  C_4 
REMARK       I    between atoms: C_4  and  N_5 
REMARK    2  A    between atoms: N_5  and  C_6 
ROOT
HETATM    1  C   UNL     1      -3.365   1.255 -31.936  1.00  0.00     0.051 C 
HETATM    2  C   UNL     1      -4.557   2.053 -32.409  1.00  0.00    -0.021 A 
HETATM    3  C   UNL     1      -5.768   1.298 -32.779  1.00  0.00     0.061 A 
HETATM    4  C   UNL     1      -6.908   1.951 -33.102  1.00  0.00     0.022 A 
HETATM    5  C   UNL     1      -8.260   1.328 -33.341  1.00  0.00     0.069 C 
HETATM    6  N   UNL     1      -6.891   3.327 -33.191  1.00  0.00    -0.349 N 
HETATM    7  C   UNL     1      -5.803   4.123 -32.912  1.00  0.00     0.121 A 
HETATM    8  S   UNL     1      -5.992   5.775 -33.129  1.00  0.00    -0.059 SA
HETATM    9  C   UNL     1      -4.574   3.406 -32.434  1.00  0.00     0.075 A 
HETATM   10  C   UNL     1      -3.482   4.242 -31.787  1.00  0.00     0.023 C 
HETATM   11  N   UNL     1      -2.576   4.936 -31.251  1.00  0.00    -0.096 N 
HETATM   12  H   UNL     1      -7.740   3.819 -33.457  1.00  0.00     0.166 HD
ENDROOT
BRANCH   3  13
HETATM   13  C   UNL     1      -5.799  -0.203 -32.686  1.00  0.00     0.258 C 
HETATM   14  N   UNL     1      -5.493  -0.815 -33.887  1.00  0.00    -0.323 N 
HETATM   15  H   UNL     1      -5.283  -0.211 -34.670  1.00  0.00     0.169 HD
HETATM   16  O   UNL     1      -6.083  -0.740 -31.623  1.00  0.00    -0.267 OA
BRANCH  14  17
HETATM   17  C   UNL     1      -5.558  -2.194 -34.178  1.00  0.00     0.035 A 
HETATM   18  C   UNL     1      -6.695  -2.835 -34.672  1.00  0.00     0.029 A 
HETATM   19  C   UNL     1      -6.669  -4.203 -34.961  1.00  0.00     0.002 A 
HETATM   20  C   UNL     1      -5.502  -4.939 -34.765  1.00  0.00     0.000 A 
HETATM   21  C   UNL     1      -4.364  -4.310 -34.271  1.00  0.00     0.002 A 
HETATM   22  C   UNL     1      -4.393  -2.946 -33.971  1.00  0.00     0.029 A 
ENDBRANCH  14  17
ENDBRANCH   3  13
TORSDOF 2
ENDMDL
MODEL 2
REMARK VINA RESULT:      -7.6      1.122      3.082
REMARK  2 active torsions:
REMARK  status: ('A' for Active; 'I' for Inactive)
REMARK    1  A    between atoms: C_3  and  C_4 
REMARK       I    between atoms: C_4  and  N_5 
REMARK    2  A    between atoms: N_5  and  C_6 
ROOT
HETATM    1  C   UNL     1      -8.452   1.058 -33.381  1.00  0.00     0.051 C 
HETATM    2  C   UNL     1      -7.312   1.995 -33.061  1.00  0.00    -0.021 A 
HETATM    3  C   UNL     1      -6.028   1.385 -32.672  1.00  0.00     0.061 A 
HETATM    4  C   UNL     1      -4.934   2.158 -32.483  1.00  0.00     0.022 A 
HETATM    5  C   UNL     1      -3.526   1.675 -32.246  1.00  0.00     0.069 C 
HETATM    6  N   UNL     1      -5.063   3.530 -32.545  1.00  0.00    -0.349 N 
HETATM    7  C   UNL     1      -6.224   4.200 -32.854  1.00  0.00     0.121 A 
HETATM    8  S   UNL     1      -6.165   5.877 -32.832  1.00  0.00    -0.059 SA
HETATM    9  C   UNL     1      -7.408   3.339 -33.187  1.00  0.00     0.075 A 
HETATM   10  C   UNL     1      -8.592   4.008 -33.865  1.00  0.00     0.023 C 
HETATM   11  N   UNL     1      -9.575   4.563 -34.428  1.00  0.00    -0.096 N 
HETATM   12  H   UNL     1      -4.247   4.114 -32.379  1.00  0.00     0.166 HD
ENDROOT
BRANCH   3  13
HETATM   13  C   UNL     1      -5.875  -0.109 -32.601  1.00  0.00     0.258 C 
HETATM   14  N   UNL     1      -5.612  -0.675 -33.834  1.00  0.00    -0.323 N 
HETATM   15  H   UNL     1      -5.548  -0.045 -34.624  1.00  0.00     0.169 HD
HETATM   16  O   UNL     1      -5.995  -0.682 -31.526  1.00  0.00    -0.267 OA
BRANCH  14  17
HETATM   17  C   UNL     1      -5.542  -2.050 -34.141  1.00  0.00     0.035 A 
HETATM   18  C   UNL     1      -4.392  -2.826 -33.990  1.00  0.00     0.029 A 
HETATM   19  C   UNL     1      -4.413  -4.191 -34.293  1.00  0.00     0.002 A 
HETATM   20  C   UNL     1      -5.587  -4.792 -34.742  1.00  0.00     0.000 A 
HETATM   21  C   UNL     1      -6.738  -4.027 -34.898  1.00  0.00     0.002 A 
HETATM   22  C   UNL     1      -6.715  -2.661 -34.608  1.00  0.00     0.029 A 
ENDBRANCH  14  17
ENDBRANCH   3  13
TORSDOF 2
ENDMDL
MODEL 3
REMARK VINA RESULT:      -7.6      1.519      2.104
REMARK  2 active torsions:
REMARK  status: ('A' for Active; 'I' for Inactive)
REMARK    1  A    between atoms: C_3  and  C_4 
REMARK       I    between atoms: C_4  and  N_5 
REMARK    2  A    between atoms: N_5  and  C_6 
ROOT
HETATM    1  C   UNL     1      -4.773   2.206 -32.972  1.00  0.00     0.051 C 
HETATM    2  C   UNL     1      -6.235   2.430 -33.274  1.00  0.00    -0.021 A 
HETATM    3  C   UNL     1      -7.107   1.241 -33.296  1.00  0.00     0.061 A 
HETATM    4  C   UNL     1      -8.444   1.379 -33.446  1.00  0.00     0.022 A 
HETATM    5  C   UNL     1      -9.476   0.287 -33.326  1.00  0.00     0.069 C 
HETATM    6  N   UNL     1      -8.967   2.631 -33.694  1.00  0.00    -0.349 N 
HETATM    7  C   UNL     1      -8.236   3.796 -33.740  1.00  0.00     0.121 A 
HETATM    8  S   UNL     1      -9.071   5.206 -34.100  1.00  0.00    -0.059 SA
HETATM    9  C   UNL     1      -6.770   3.660 -33.449  1.00  0.00     0.075 A 
HETATM   10  C   UNL     1      -5.996   4.932 -33.143  1.00  0.00     0.023 C 
HETATM   11  N   UNL     1      -5.353   5.987 -32.890  1.00  0.00    -0.096 N 
HETATM   12  H   UNL     1      -9.969   2.734 -33.832  1.00  0.00     0.166 HD
ENDROOT
BRANCH   3  13
HETATM   13  C   UNL     1      -6.550  -0.129 -33.027  1.00  0.00     0.258 C 
HETATM   14  N   UNL     1      -6.198  -0.795 -34.186  1.00  0.00    -0.323 N 
HETATM   15  H   UNL     1      -6.343  -0.305 -35.059  1.00  0.00     0.169 HD
HETATM   16  O   UNL     1      -6.460  -0.534 -31.875  1.00  0.00    -0.267 OA
BRANCH  14  17
HETATM   17  C   UNL     1      -5.769  -2.134 -34.300  1.00  0.00     0.035 A 
HETATM   18  C   UNL     1      -4.480  -2.570 -33.991  1.00  0.00     0.029 A 
HETATM   19  C   UNL     1      -4.142  -3.922 -34.106  1.00  0.00     0.002 A 
HETATM   20  C   UNL     1      -5.093  -4.850 -34.525  1.00  0.00     0.000 A 
HETATM   21  C   UNL     1      -6.381  -4.426 -34.837  1.00  0.00     0.002 A 
HETATM   22  C   UNL     1      -6.715  -3.073 -34.734  1.00  0.00     0.029 A 
ENDBRANCH  14  17
ENDBRANCH   3  13
TORSDOF 2
ENDMDL
MODEL 4
REMARK VINA RESULT:      -7.5      3.407      7.069
REMARK  2 active torsions:
REMARK  status: ('A' for Active; 'I' for Inactive)
REMARK    1  A    between atoms: C_3  and  C_4 
REMARK       I    between atoms: C_4  and  N_5 
REMARK    2  A    between atoms: N_5  and  C_6 
ROOT
HETATM    1  C   UNL     1      -7.162  -0.931 -34.638  1.00  0.00     0.051 C 
HETATM    2  C   UNL     1      -5.905  -1.470 -34.000  1.00  0.00    -0.021 A 
HETATM    3  C   UNL     1      -5.226  -0.607 -33.016  1.00  0.00     0.061 A 
HETATM    4  C   UNL     1      -4.161  -1.070 -32.322  1.00  0.00     0.022 A 
HETATM    5  C   UNL     1      -3.469  -0.376 -31.177  1.00  0.00     0.069 C 
HETATM    6  N   UNL     1      -3.648  -2.313 -32.628  1.00  0.00    -0.349 N 
HETATM    7  C   UNL     1      -4.177  -3.177 -33.560  1.00  0.00     0.121 A 
HETATM    8  S   UNL     1      -3.366  -4.625 -33.804  1.00  0.00    -0.059 SA
HETATM    9  C   UNL     1      -5.432  -2.715 -34.242  1.00  0.00     0.075 A 
HETATM   10  C   UNL     1      -6.239  -3.755 -35.003  1.00  0.00     0.023 C 
HETATM   11  N   UNL     1      -6.908  -4.616 -35.635  1.00  0.00    -0.096 N 
HETATM   12  H   UNL     1      -2.833  -2.653 -32.125  1.00  0.00     0.166 HD
ENDROOT
BRANCH   3  13
HETATM   13  C   UNL     1      -5.775   0.750 -32.673  1.00  0.00     0.258 C 
HETATM   14  N   UNL     1      -6.680   0.708 -31.629  1.00  0.00    -0.323 N 
HETATM   15  H   UNL     1      -6.865  -0.198 -31.218  1.00  0.00     0.169 HD
HETATM   16  O   UNL     1      -5.412   1.731 -33.308  1.00  0.00    -0.267 OA
BRANCH  14  17
HETATM   17  C   UNL     1      -7.471   1.771 -31.146  1.00  0.00     0.035 A 
HETATM   18  C   UNL     1      -7.013   2.741 -30.252  1.00  0.00     0.029 A 
HETATM   19  C   UNL     1      -7.854   3.780 -29.841  1.00  0.00     0.002 A 
HETATM   20  C   UNL     1      -9.157   3.862 -30.327  1.00  0.00     0.000 A 
HETATM   21  C   UNL     1      -9.624   2.899 -31.216  1.00  0.00     0.002 A 
HETATM   22  C   UNL     1      -8.788   1.854 -31.618  1.00  0.00     0.029 A 
ENDBRANCH  14  17
ENDBRANCH   3  13
TORSDOF 2
ENDMDL
MODEL 5
REMARK VINA RESULT:      -7.5      2.653      4.546
REMARK  2 active torsions:
REMARK  status: ('A' for Active; 'I' for Inactive)
REMARK    1  A    between atoms: C_3  and  C_4 
REMARK       I    between atoms: C_4  and  N_5 
REMARK    2  A    between atoms: N_5  and  C_6 
ROOT
HETATM    1  C   UNL     1     -10.252  -0.554 -32.796  1.00  0.00     0.051 C 
HETATM    2  C   UNL     1      -9.765   0.824 -33.173  1.00  0.00    -0.021 A 
HETATM    3  C   UNL     1      -8.309   1.007 -33.313  1.00  0.00     0.061 A 
HETATM    4  C   UNL     1      -7.809   2.183 -33.759  1.00  0.00     0.022 A 
HETATM    5  C   UNL     1      -6.371   2.469 -34.108  1.00  0.00     0.069 C 
HETATM    6  N   UNL     1      -8.668   3.241 -33.969  1.00  0.00    -0.349 N 
HETATM    7  C   UNL     1     -10.035   3.189 -33.822  1.00  0.00     0.121 A 
HETATM    8  S   UNL     1     -10.885   4.610 -34.090  1.00  0.00    -0.059 SA
HETATM    9  C   UNL     1     -10.602   1.850 -33.449  1.00  0.00     0.075 A 
HETATM   10  C   UNL     1     -12.100   1.652 -33.618  1.00  0.00     0.023 C 
HETATM   11  N   UNL     1     -13.342   1.488 -33.756  1.00  0.00    -0.096 N 
HETATM   12  H   UNL     1      -8.292   4.133 -34.280  1.00  0.00     0.166 HD
ENDROOT
BRANCH   3  13
HETATM   13  C   UNL     1      -7.362  -0.139 -33.087  1.00  0.00     0.258 C 
HETATM   14  N   UNL     1      -7.175  -0.904 -34.223  1.00  0.00    -0.323 N 
HETATM   15  H   UNL     1      -7.673  -0.618 -35.056  1.00  0.00     0.169 HD
HETATM   16  O   UNL     1      -6.864  -0.307 -31.981  1.00  0.00    -0.267 OA
BRANCH  14  17
HETATM   17  C   UNL     1      -6.459  -2.116 -34.323  1.00  0.00     0.035 A 
HETATM   18  C   UNL     1      -7.043  -3.343 -34.640  1.00  0.00     0.029 A 
HETATM   19  C   UNL     1      -6.258  -4.495 -34.746  1.00  0.00     0.002 A 
HETATM   20  C   UNL     1      -4.881  -4.428 -34.542  1.00  0.00     0.000 A 
HETATM   21  C   UNL     1      -4.290  -3.209 -34.223  1.00  0.00     0.002 A 
HETATM   22  C   UNL     1      -5.076  -2.060 -34.106  1.00  0.00     0.029 A 
ENDBRANCH  14  17
ENDBRANCH   3  13
TORSDOF 2
ENDMDL
MODEL 6
REMARK VINA RESULT:      -7.0      2.338      3.618
REMARK  2 active torsions:
REMARK  status: ('A' for Active; 'I' for Inactive)
REMARK    1  A    between atoms: C_3  and  C_4 
REMARK       I    between atoms: C_4  and  N_5 
REMARK    2  A    between atoms: N_5  and  C_6 
ROOT
HETATM    1  C   UNL     1      -9.473   1.375 -32.590  1.00  0.00     0.051 C 
HETATM    2  C   UNL     1      -8.331   2.105 -31.925  1.00  0.00    -0.021 A 
HETATM    3  C   UNL     1      -6.967   1.776 -32.378  1.00  0.00     0.061 A 
HETATM    4  C   UNL     1      -5.906   2.471 -31.909  1.00  0.00     0.022 A 
HETATM    5  C   UNL     1      -4.482   2.366 -32.393  1.00  0.00     0.069 C 
HETATM    6  N   UNL     1      -6.103   3.410 -30.918  1.00  0.00    -0.349 N 
HETATM    7  C   UNL     1      -7.327   3.759 -30.394  1.00  0.00     0.121 A 
HETATM    8  S   UNL     1      -7.331   4.899 -29.163  1.00  0.00    -0.059 SA
HETATM    9  C   UNL     1      -8.518   3.078 -31.002  1.00  0.00     0.075 A 
HETATM   10  C   UNL     1      -9.887   3.671 -30.715  1.00  0.00     0.023 C 
HETATM   11  N   UNL     1     -11.023   4.162 -30.476  1.00  0.00    -0.096 N 
HETATM   12  H   UNL     1      -5.304   3.917 -30.547  1.00  0.00     0.166 HD
ENDROOT
BRANCH   3  13
HETATM   13  C   UNL     1      -6.740   0.754 -33.457  1.00  0.00     0.258 C 
HETATM   14  N   UNL     1      -6.568  -0.521 -32.952  1.00  0.00    -0.323 N 
HETATM   15  H   UNL     1      -6.617  -0.627 -31.947  1.00  0.00     0.169 HD
HETATM   16  O   UNL     1      -6.716   1.103 -34.630  1.00  0.00    -0.267 OA
BRANCH  14  17
HETATM   17  C   UNL     1      -6.210  -1.680 -33.672  1.00  0.00     0.035 A 
HETATM   18  C   UNL     1      -7.130  -2.554 -34.252  1.00  0.00     0.029 A 
HETATM   19  C   UNL     1      -6.692  -3.669 -34.974  1.00  0.00     0.002 A 
HETATM   20  C   UNL     1      -5.329  -3.913 -35.128  1.00  0.00     0.000 A 
HETATM   21  C   UNL     1      -4.403  -3.049 -34.552  1.00  0.00     0.002 A 
HETATM   22  C   UNL     1      -4.841  -1.942 -33.821  1.00  0.00     0.029 A 
ENDBRANCH  14  17
ENDBRANCH   3  13
TORSDOF 2
ENDMDL
MODEL 7
REMARK VINA RESULT:      -7.0      2.897      7.047
REMARK  2 active torsions:
REMARK  status: ('A' for Active; 'I' for Inactive)
REMARK    1  A    between atoms: C_3  and  C_4 
REMARK       I    between atoms: C_4  and  N_5 
REMARK    2  A    between atoms: N_5  and  C_6 
ROOT
HETATM    1  C   UNL     1      -2.999   0.629 -31.188  1.00  0.00     0.051 C 
HETATM    2  C   UNL     1      -4.172   0.685 -32.136  1.00  0.00    -0.021 A 
HETATM    3  C   UNL     1      -4.682   2.020 -32.497  1.00  0.00     0.061 A 
HETATM    4  C   UNL     1      -5.655   2.151 -33.428  1.00  0.00     0.022 A 
HETATM    5  C   UNL     1      -6.161   3.441 -34.019  1.00  0.00     0.069 C 
HETATM    6  N   UNL     1      -6.243   1.017 -33.947  1.00  0.00    -0.349 N 
HETATM    7  C   UNL     1      -5.875  -0.274 -33.643  1.00  0.00     0.121 A 
HETATM    8  S   UNL     1      -6.756  -1.508 -34.360  1.00  0.00    -0.059 SA
HETATM    9  C   UNL     1      -4.712  -0.418 -32.705  1.00  0.00     0.075 A 
HETATM   10  C   UNL     1      -4.050  -1.783 -32.614  1.00  0.00     0.023 C 
HETATM   11  N   UNL     1      -3.501  -2.916 -32.538  1.00  0.00    -0.096 N 
HETATM   12  H   UNL     1      -6.992   1.112 -34.629  1.00  0.00     0.166 HD
ENDROOT
BRANCH   3  13
HETATM   13  C   UNL     1      -4.049   3.264 -31.937  1.00  0.00     0.258 C 
HETATM   14  N   UNL     1      -2.961   3.686 -32.679  1.00  0.00    -0.323 N 
HETATM   15  H   UNL     1      -2.720   3.136 -33.493  1.00  0.00     0.169 HD
HETATM   16  O   UNL     1      -4.507   3.777 -30.925  1.00  0.00    -0.267 OA
BRANCH  14  17
HETATM   17  C   UNL     1      -2.071   4.733 -32.362  1.00  0.00     0.035 A 
HETATM   18  C   UNL     1      -1.246   4.743 -31.236  1.00  0.00     0.029 A 
HETATM   19  C   UNL     1      -0.371   5.809 -31.008  1.00  0.00     0.002 A 
HETATM   20  C   UNL     1      -0.308   6.870 -31.908  1.00  0.00     0.000 A 
HETATM   21  C   UNL     1      -1.127   6.871 -33.032  1.00  0.00     0.002 A 
HETATM   22  C   UNL     1      -2.011   5.812 -33.255  1.00  0.00     0.029 A 
ENDBRANCH  14  17
ENDBRANCH   3  13
TORSDOF 2
ENDMDL
MODEL 8
REMARK VINA RESULT:      -6.9      2.632      3.636
REMARK  2 active torsions:
REMARK  status: ('A' for Active; 'I' for Inactive)
REMARK    1  A    between atoms: C_3  and  C_4 
REMARK       I    between atoms: C_4  and  N_5 
REMARK    2  A    between atoms: N_5  and  C_6 
ROOT
HETATM    1  C   UNL     1      -8.557   2.968 -31.964  1.00  0.00     0.051 C 
HETATM    2  C   UNL     1      -7.305   3.313 -31.195  1.00  0.00    -0.021 A 
HETATM    3  C   UNL     1      -6.055   2.653 -31.613  1.00  0.00     0.061 A 
HETATM    4  C   UNL     1      -4.877   2.999 -31.045  1.00  0.00     0.022 A 
HETATM    5  C   UNL     1      -3.507   2.539 -31.473  1.00  0.00     0.069 C 
HETATM    6  N   UNL     1      -4.875   3.891 -29.993  1.00  0.00    -0.349 N 
HETATM    7  C   UNL     1      -5.990   4.527 -29.496  1.00  0.00     0.121 A 
HETATM    8  S   UNL     1      -5.764   5.543 -28.180  1.00  0.00    -0.059 SA
HETATM    9  C   UNL     1      -7.279   4.239 -30.207  1.00  0.00     0.075 A 
HETATM   10  C   UNL     1      -8.453   5.165 -29.933  1.00  0.00     0.023 C 
HETATM   11  N   UNL     1      -9.427   5.932 -29.706  1.00  0.00    -0.096 N 
HETATM   12  H   UNL     1      -3.994   4.134 -29.548  1.00  0.00     0.166 HD
ENDROOT
BRANCH   3  13
HETATM   13  C   UNL     1      -6.044   1.679 -32.758  1.00  0.00     0.258 C 
HETATM   14  N   UNL     1      -6.088   0.363 -32.335  1.00  0.00    -0.323 N 
HETATM   15  H   UNL     1      -6.126   0.202 -31.337  1.00  0.00     0.169 HD
HETATM   16  O   UNL     1      -5.992   2.093 -33.908  1.00  0.00    -0.267 OA
BRANCH  14  17
HETATM   17  C   UNL     1      -5.962  -0.792 -33.136  1.00  0.00     0.035 A 
HETATM   18  C   UNL     1      -7.030  -1.404 -33.795  1.00  0.00     0.029 A 
HETATM   19  C   UNL     1      -6.817  -2.533 -34.593  1.00  0.00     0.002 A 
HETATM   20  C   UNL     1      -5.533  -3.053 -34.744  1.00  0.00     0.000 A 
HETATM   21  C   UNL     1      -4.463  -2.451 -34.090  1.00  0.00     0.002 A 
HETATM   22  C   UNL     1      -4.677  -1.331 -33.283  1.00  0.00     0.029 A 
ENDBRANCH  14  17
ENDBRANCH   3  13
TORSDOF 2
ENDMDL
MODEL 9
REMARK VINA RESULT:      -6.8      3.383      6.620
REMARK  2 active torsions:
REMARK  status: ('A' for Active; 'I' for Inactive)
REMARK    1  A    between atoms: C_3  and  C_4 
REMARK       I    between atoms: C_4  and  N_5 
REMARK    2  A    between atoms: N_5  and  C_6 
ROOT
HETATM    1  C   UNL     1      -7.492  -0.177 -35.334  1.00  0.00     0.051 C 
HETATM    2  C   UNL     1      -6.649  -0.068 -34.086  1.00  0.00    -0.021 A 
HETATM    3  C   UNL     1      -6.982   1.013 -33.141  1.00  0.00     0.061 A 
HETATM    4  C   UNL     1      -6.345   1.100 -31.951  1.00  0.00     0.022 A 
HETATM    5  C   UNL     1      -6.683   2.039 -30.821  1.00  0.00     0.069 C 
HETATM    6  N   UNL     1      -5.303   0.238 -31.683  1.00  0.00    -0.349 N 
HETATM    7  C   UNL     1      -4.882  -0.774 -32.515  1.00  0.00     0.121 A 
HETATM    8  S   UNL     1      -3.563  -1.679 -32.008  1.00  0.00    -0.059 SA
HETATM    9  C   UNL     1      -5.670  -0.951 -33.780  1.00  0.00     0.075 A 
HETATM   10  C   UNL     1      -5.478  -2.248 -34.549  1.00  0.00     0.023 C 
HETATM   11  N   UNL     1      -5.318  -3.323 -35.189  1.00  0.00    -0.096 N 
HETATM   12  H   UNL     1      -4.806   0.317 -30.799  1.00  0.00     0.166 HD
ENDROOT
BRANCH   3  13
HETATM   13  C   UNL     1      -8.117   1.959 -33.422  1.00  0.00     0.258 C 
HETATM   14  N   UNL     1      -9.348   1.422 -33.097  1.00  0.00    -0.323 N 
HETATM   15  H   UNL     1      -9.354   0.486 -32.713  1.00  0.00     0.169 HD
HETATM   16  O   UNL     1      -7.884   3.064 -33.897  1.00  0.00    -0.267 OA
BRANCH  14  17
HETATM   17  C   UNL     1     -10.616   1.987 -33.351  1.00  0.00     0.035 A 
HETATM   18  C   UNL     1     -11.190   2.997 -32.578  1.00  0.00     0.029 A 
HETATM   19  C   UNL     1     -12.442   3.522 -32.914  1.00  0.00     0.002 A 
HETATM   20  C   UNL     1     -13.126   3.046 -34.030  1.00  0.00     0.000 A 
HETATM   21  C   UNL     1     -12.563   2.038 -34.807  1.00  0.00     0.002 A 
HETATM   22  C   UNL     1     -11.318   1.505 -34.465  1.00  0.00     0.029 A 
ENDBRANCH  14  17
ENDBRANCH   3  13
TORSDOF 2
ENDMDL
MODEL 10
REMARK VINA RESULT:      -6.7      5.538      7.612
REMARK  2 active torsions:
REMARK  status: ('A' for Active; 'I' for Inactive)
REMARK    1  A    between atoms: C_3  and  C_4 
REMARK       I    between atoms: C_4  and  N_5 
REMARK    2  A    between atoms: N_5  and  C_6 
ROOT
HETATM    1  C   UNL     1     -11.670   4.076 -32.435  1.00  0.00     0.051 C 
HETATM    2  C   UNL     1     -12.840   3.142 -32.628  1.00  0.00    -0.021 A 
HETATM    3  C   UNL     1     -12.558   1.824 -33.225  1.00  0.00     0.061 A 
HETATM    4  C   UNL     1     -13.537   0.895 -33.322  1.00  0.00     0.022 A 
HETATM    5  C   UNL     1     -13.369  -0.540 -33.752  1.00  0.00     0.069 C 
HETATM    6  N   UNL     1     -14.824   1.236 -32.964  1.00  0.00    -0.349 N 
HETATM    7  C   UNL     1     -15.202   2.452 -32.442  1.00  0.00     0.121 A 
HETATM    8  S   UNL     1     -16.833   2.667 -32.115  1.00  0.00    -0.059 SA
HETATM    9  C   UNL     1     -14.095   3.440 -32.217  1.00  0.00     0.075 A 
HETATM   10  C   UNL     1     -14.395   4.639 -31.332  1.00  0.00     0.023 C 
HETATM   11  N   UNL     1     -14.644   5.635 -30.600  1.00  0.00    -0.096 N 
HETATM   12  H   UNL     1     -15.566   0.547 -33.059  1.00  0.00     0.166 HD
ENDROOT
BRANCH   3  13
HETATM   13  C   UNL     1     -11.158   1.441 -33.619  1.00  0.00     0.258 C 
HETATM   14  N   UNL     1     -10.496   0.751 -32.621  1.00  0.00    -0.323 N 
HETATM   15  H   UNL     1     -11.008   0.580 -31.765  1.00  0.00     0.169 HD
HETATM   16  O   UNL     1     -10.730   1.753 -34.722  1.00  0.00    -0.267 OA
BRANCH  14  17
HETATM   17  C   UNL     1      -9.141   0.361 -32.612  1.00  0.00     0.035 A 
HETATM   18  C   UNL     1      -8.547  -0.422 -33.604  1.00  0.00     0.029 A 
HETATM   19  C   UNL     1      -7.188  -0.743 -33.535  1.00  0.00     0.002 A 
HETATM   20  C   UNL     1      -6.410  -0.278 -32.477  1.00  0.00     0.000 A 
HETATM   21  C   UNL     1      -6.992   0.502 -31.483  1.00  0.00     0.002 A 
HETATM   22  C   UNL     1      -8.353   0.813 -31.545  1.00  0.00     0.029 A 
ENDBRANCH  14  17
ENDBRANCH   3  13
TORSDOF 2
ENDMDL
