MODEL 1
REMARK VINA RESULT:      -8.1      0.000      0.000
REMARK  8 active torsions:
REMARK  status: ('A' for Active; 'I' for Inactive)
REMARK    1  A    between atoms: C_2  and  C_3 
REMARK    2  A    between atoms: C_3  and  O_4 
REMARK    3  A    between atoms: O_4  and  C_5 
REMARK    4  A    between atoms: C_6  and  O_7 
REMARK    5  A    between atoms: C_11  and  C_12 
REMARK    6  A    between atoms: C_12  and  N_13 
REMARK    7  A    between atoms: N_13  and  C_14 
REMARK    8  A    between atoms: C_21  and  C_22 
REMARK       I    between atoms: C_22  and  N_23 
ROOT
HETATM    1  C   UNL     1      -4.534   3.646 -32.834  1.00  0.00     0.009 A 
HETATM    2  C   UNL     1      -3.307   4.122 -32.344  1.00  0.00     0.039 A 
HETATM    3  C   UNL     1      -2.610   5.140 -33.029  1.00  0.00     0.030 A 
HETATM    4  C   UNL     1      -3.146   5.643 -34.206  1.00  0.00     0.063 A 
HETATM    5  N   UNL     1      -2.258   6.592 -34.631  1.00  0.00    -0.277 N 
HETATM    6  H   UNL     1      -2.326   7.166 -35.465  1.00  0.00     0.189 HD
HETATM    7  N   UNL     1      -1.184   6.746 -33.837  1.00  0.00    -0.168 NA
HETATM    8  C   UNL     1      -1.387   5.851 -32.843  1.00  0.00     0.156 A 
HETATM    9  C   UNL     1      -4.342   5.179 -34.753  1.00  0.00     0.034 A 
HETATM   10  C   UNL     1      -5.008   4.163 -34.051  1.00  0.00     0.026 A 
ENDROOT
BRANCH   1  11
HETATM   11  N   UNL     1      -5.228   2.579 -32.250  1.00  0.00    -0.289 NA
HETATM   12  H   UNL     1      -4.619   1.797 -32.025  1.00  0.00     0.128 HD
BRANCH  11  13
HETATM   13  C   UNL     1      -6.492   2.147 -32.830  1.00  0.00     0.131 C 
BRANCH  13  14
HETATM   14  C   UNL     1      -6.305   0.788 -33.465  1.00  0.00    -0.042 A 
HETATM   15  C   UNL     1      -7.273   0.284 -34.343  1.00  0.00     0.011 A 
HETATM   16  C   UNL     1      -7.105  -0.965 -34.948  1.00  0.00     0.040 A 
HETATM   17  C   UNL     1      -5.974  -1.737 -34.672  1.00  0.00     0.101 A 
HETATM   18  C   UNL     1      -5.024  -1.263 -33.749  1.00  0.00     0.102 A 
HETATM   19  C   UNL     1      -5.184  -0.000 -33.164  1.00  0.00     0.048 A 
BRANCH  17  20
HETATM   20  O   UNL     1      -5.730  -2.974 -35.216  1.00  0.00    -0.353 OA
HETATM   21  C   UNL     1      -6.662  -4.004 -34.919  1.00  0.00     0.210 C 
ENDBRANCH  17  20
BRANCH  18  22
HETATM   22  O   UNL     1      -3.933  -2.063 -33.515  1.00  0.00    -0.348 OA
BRANCH  22  23
HETATM   23  C   UNL     1      -3.537  -2.183 -32.149  1.00  0.00     0.175 C 
BRANCH  23  24
HETATM   24  C   UNL     1      -2.996  -3.596 -31.946  1.00  0.00     0.022 C 
HETATM   25  C   UNL     1      -3.424  -4.533 -33.060  1.00  0.00     0.007 C 
ENDBRANCH  23  24
ENDBRANCH  22  23
ENDBRANCH  18  22
ENDBRANCH  13  14
ENDBRANCH  11  13
ENDBRANCH   1  11
BRANCH   8  26
HETATM   26  C   UNL     1      -0.421   5.688 -31.749  1.00  0.00     0.270 C 
HETATM   27  N   UNL     1       0.238   6.837 -31.407  1.00  0.00    -0.365 N 
HETATM   28  H   UNL     1       0.026   7.687 -31.918  1.00  0.00     0.159 HD
HETATM   29  H   UNL     1       0.929   6.821 -30.676  1.00  0.00     0.159 HD
HETATM   30  O   UNL     1      -0.195   4.628 -31.171  1.00  0.00    -0.266 OA
ENDBRANCH   8  26
TORSDOF 8
ENDMDL
MODEL 2
REMARK VINA RESULT:      -8.0      3.000      7.606
REMARK  8 active torsions:
REMARK  status: ('A' for Active; 'I' for Inactive)
REMARK    1  A    between atoms: C_2  and  C_3 
REMARK    2  A    between atoms: C_3  and  O_4 
REMARK    3  A    between atoms: O_4  and  C_5 
REMARK    4  A    between atoms: C_6  and  O_7 
REMARK    5  A    between atoms: C_11  and  C_12 
REMARK    6  A    between atoms: C_12  and  N_13 
REMARK    7  A    between atoms: N_13  and  C_14 
REMARK    8  A    between atoms: C_21  and  C_22 
REMARK       I    between atoms: C_22  and  N_23 
ROOT
HETATM    1  C   UNL     1      -6.373   0.799 -33.605  1.00  0.00     0.009 A 
HETATM    2  C   UNL     1      -5.332   0.073 -33.003  1.00  0.00     0.039 A 
HETATM    3  C   UNL     1      -5.011  -1.225 -33.456  1.00  0.00     0.030 A 
HETATM    4  C   UNL     1      -5.757  -1.777 -34.487  1.00  0.00     0.063 A 
HETATM    5  N   UNL     1      -5.222  -3.018 -34.695  1.00  0.00    -0.277 N 
HETATM    6  H   UNL     1      -5.521  -3.709 -35.376  1.00  0.00     0.189 HD
HETATM    7  N   UNL     1      -4.197  -3.328 -33.881  1.00  0.00    -0.168 NA
HETATM    8  C   UNL     1      -4.058  -2.228 -33.107  1.00  0.00     0.156 A 
HETATM    9  C   UNL     1      -6.821  -1.111 -35.094  1.00  0.00     0.034 A 
HETATM   10  C   UNL     1      -7.119   0.174 -34.617  1.00  0.00     0.026 A 
ENDROOT
BRANCH   1  11
HETATM   11  N   UNL     1      -6.796   2.052 -33.143  1.00  0.00    -0.289 NA
HETATM   12  H   UNL     1      -7.030   2.686 -33.903  1.00  0.00     0.128 HD
BRANCH  11  13
HETATM   13  C   UNL     1      -6.050   2.711 -32.082  1.00  0.00     0.131 C 
BRANCH  13  14
HETATM   14  C   UNL     1      -4.958   3.557 -32.697  1.00  0.00    -0.042 A 
HETATM   15  C   UNL     1      -5.238   4.368 -33.804  1.00  0.00     0.011 A 
HETATM   16  C   UNL     1      -4.241   5.165 -34.374  1.00  0.00     0.040 A 
HETATM   17  C   UNL     1      -2.944   5.153 -33.854  1.00  0.00     0.101 A 
HETATM   18  C   UNL     1      -2.642   4.301 -32.776  1.00  0.00     0.102 A 
HETATM   19  C   UNL     1      -3.649   3.522 -32.194  1.00  0.00     0.048 A 
BRANCH  17  20
HETATM   20  O   UNL     1      -1.905   5.900 -34.351  1.00  0.00    -0.353 OA
HETATM   21  C   UNL     1      -1.840   7.261 -33.951  1.00  0.00     0.210 C 
ENDBRANCH  17  20
BRANCH  18  22
HETATM   22  O   UNL     1      -1.352   4.329 -32.306  1.00  0.00    -0.348 OA
BRANCH  22  23
HETATM   23  C   UNL     1      -1.161   5.007 -31.064  1.00  0.00     0.175 C 
BRANCH  23  24
HETATM   24  C   UNL     1       0.278   5.513 -31.029  1.00  0.00     0.022 C 
HETATM   25  C   UNL     1       0.352   6.988 -30.681  1.00  0.00     0.007 C 
ENDBRANCH  23  24
ENDBRANCH  22  23
ENDBRANCH  18  22
ENDBRANCH  13  14
ENDBRANCH  11  13
ENDBRANCH   1  11
BRANCH   8  26
HETATM   26  C   UNL     1      -3.033  -2.154 -32.057  1.00  0.00     0.270 C 
HETATM   27  N   UNL     1      -2.770  -3.350 -31.447  1.00  0.00    -0.365 N 
HETATM   28  H   UNL     1      -3.285  -4.170 -31.746  1.00  0.00     0.159 HD
HETATM   29  H   UNL     1      -2.091  -3.395 -30.705  1.00  0.00     0.159 HD
HETATM   30  O   UNL     1      -2.446  -1.127 -31.727  1.00  0.00    -0.266 OA
ENDBRANCH   8  26
TORSDOF 8
ENDMDL
MODEL 3
REMARK VINA RESULT:      -7.8      1.240      2.716
REMARK  8 active torsions:
REMARK  status: ('A' for Active; 'I' for Inactive)
REMARK    1  A    between atoms: C_2  and  C_3 
REMARK    2  A    between atoms: C_3  and  O_4 
REMARK    3  A    between atoms: O_4  and  C_5 
REMARK    4  A    between atoms: C_6  and  O_7 
REMARK    5  A    between atoms: C_11  and  C_12 
REMARK    6  A    between atoms: C_12  and  N_13 
REMARK    7  A    between atoms: N_13  and  C_14 
REMARK    8  A    between atoms: C_21  and  C_22 
REMARK       I    between atoms: C_22  and  N_23 
ROOT
HETATM    1  C   UNL     1      -3.661   3.846 -32.646  1.00  0.00     0.009 A 
HETATM    2  C   UNL     1      -2.596   4.039 -31.751  1.00  0.00     0.039 A 
HETATM    3  C   UNL     1      -1.727   5.141 -31.900  1.00  0.00     0.030 A 
HETATM    4  C   UNL     1      -1.930   6.015 -32.959  1.00  0.00     0.063 A 
HETATM    5  N   UNL     1      -0.947   6.958 -32.843  1.00  0.00    -0.277 N 
HETATM    6  H   UNL     1      -0.786   7.755 -33.450  1.00  0.00     0.189 HD
HETATM    7  N   UNL     1      -0.113   6.770 -31.805  1.00  0.00    -0.168 NA
HETATM    8  C   UNL     1      -0.583   5.647 -31.214  1.00  0.00     0.156 A 
HETATM    9  C   UNL     1      -2.952   5.849 -33.894  1.00  0.00     0.034 A 
HETATM   10  C   UNL     1      -3.794   4.740 -33.721  1.00  0.00     0.026 A 
ENDROOT
BRANCH   1  11
HETATM   11  N   UNL     1      -4.501   2.727 -32.605  1.00  0.00    -0.289 NA
HETATM   12  H   UNL     1      -5.470   2.961 -32.806  1.00  0.00     0.128 HD
BRANCH  11  13
HETATM   13  C   UNL     1      -4.378   1.782 -31.504  1.00  0.00     0.131 C 
BRANCH  13  14
HETATM   14  C   UNL     1      -4.200   0.390 -32.065  1.00  0.00    -0.042 A 
HETATM   15  C   UNL     1      -3.251  -0.476 -31.507  1.00  0.00     0.011 A 
HETATM   16  C   UNL     1      -3.086  -1.771 -32.008  1.00  0.00     0.040 A 
HETATM   17  C   UNL     1      -3.858  -2.215 -33.084  1.00  0.00     0.101 A 
HETATM   18  C   UNL     1      -4.774  -1.333 -33.685  1.00  0.00     0.102 A 
HETATM   19  C   UNL     1      -4.953  -0.045 -33.165  1.00  0.00     0.048 A 
BRANCH  17  20
HETATM   20  O   UNL     1      -3.760  -3.467 -33.641  1.00  0.00    -0.353 OA
HETATM   21  C   UNL     1      -3.373  -4.527 -32.779  1.00  0.00     0.210 C 
ENDBRANCH  17  20
BRANCH  18  22
HETATM   22  O   UNL     1      -5.505  -1.822 -34.740  1.00  0.00    -0.348 OA
BRANCH  22  23
HETATM   23  C   UNL     1      -6.891  -2.045 -34.481  1.00  0.00     0.175 C 
BRANCH  23  24
HETATM   24  C   UNL     1      -7.088  -3.544 -34.269  1.00  0.00     0.022 C 
HETATM   25  C   UNL     1      -6.532  -4.358 -35.423  1.00  0.00     0.007 C 
ENDBRANCH  23  24
ENDBRANCH  22  23
ENDBRANCH  18  22
ENDBRANCH  13  14
ENDBRANCH  11  13
ENDBRANCH   1  11
BRANCH   8  26
HETATM   26  C   UNL     1       0.063   5.079 -30.023  1.00  0.00     0.270 C 
HETATM   27  N   UNL     1      -0.336   5.648 -28.845  1.00  0.00    -0.365 N 
HETATM   28  H   UNL     1      -1.019   6.397 -28.876  1.00  0.00     0.159 HD
HETATM   29  H   UNL     1       0.062   5.334 -27.976  1.00  0.00     0.159 HD
HETATM   30  O   UNL     1       0.894   4.176 -30.045  1.00  0.00    -0.266 OA
ENDBRANCH   8  26
TORSDOF 8
ENDMDL
MODEL 4
REMARK VINA RESULT:      -7.6      1.516      3.176
REMARK  8 active torsions:
REMARK  status: ('A' for Active; 'I' for Inactive)
REMARK    1  A    between atoms: C_2  and  C_3 
REMARK    2  A    between atoms: C_3  and  O_4 
REMARK    3  A    between atoms: O_4  and  C_5 
REMARK    4  A    between atoms: C_6  and  O_7 
REMARK    5  A    between atoms: C_11  and  C_12 
REMARK    6  A    between atoms: C_12  and  N_13 
REMARK    7  A    between atoms: N_13  and  C_14 
REMARK    8  A    between atoms: C_21  and  C_22 
REMARK       I    between atoms: C_22  and  N_23 
ROOT
HETATM    1  C   UNL     1      -3.762   3.555 -32.527  1.00  0.00     0.009 A 
HETATM    2  C   UNL     1      -2.558   3.826 -31.856  1.00  0.00     0.039 A 
HETATM    3  C   UNL     1      -1.852   5.022 -32.107  1.00  0.00     0.030 A 
HETATM    4  C   UNL     1      -2.355   5.911 -33.046  1.00  0.00     0.063 A 
HETATM    5  N   UNL     1      -1.467   6.950 -33.072  1.00  0.00    -0.277 N 
HETATM    6  H   UNL     1      -1.515   7.784 -33.647  1.00  0.00     0.189 HD
HETATM    7  N   UNL     1      -0.422   6.811 -32.237  1.00  0.00    -0.168 NA
HETATM    8  C   UNL     1      -0.646   5.620 -31.636  1.00  0.00     0.156 A 
HETATM    9  C   UNL     1      -3.527   5.673 -33.764  1.00  0.00     0.034 A 
HETATM   10  C   UNL     1      -4.201   4.472 -33.495  1.00  0.00     0.026 A 
ENDROOT
BRANCH   1  11
HETATM   11  N   UNL     1      -4.460   2.349 -32.388  1.00  0.00    -0.289 NA
HETATM   12  H   UNL     1      -5.179   2.399 -31.670  1.00  0.00     0.128 HD
BRANCH  11  13
HETATM   13  C   UNL     1      -3.720   1.097 -32.345  1.00  0.00     0.131 C 
BRANCH  13  14
HETATM   14  C   UNL     1      -4.547   0.012 -32.997  1.00  0.00    -0.042 A 
HETATM   15  C   UNL     1      -3.943  -1.188 -33.395  1.00  0.00     0.011 A 
HETATM   16  C   UNL     1      -4.699  -2.204 -33.986  1.00  0.00     0.040 A 
HETATM   17  C   UNL     1      -6.068  -2.031 -34.203  1.00  0.00     0.101 A 
HETATM   18  C   UNL     1      -6.671  -0.808 -33.856  1.00  0.00     0.102 A 
HETATM   19  C   UNL     1      -5.915   0.198 -33.243  1.00  0.00     0.048 A 
BRANCH  17  20
HETATM   20  O   UNL     1      -6.885  -2.973 -34.779  1.00  0.00    -0.353 OA
HETATM   21  C   UNL     1      -6.323  -4.256 -35.015  1.00  0.00     0.210 C 
ENDBRANCH  17  20
BRANCH  18  22
HETATM   22  O   UNL     1      -8.019  -0.693 -34.093  1.00  0.00    -0.348 OA
BRANCH  22  23
HETATM   23  C   UNL     1      -8.440   0.540 -34.677  1.00  0.00     0.175 C 
BRANCH  23  24
HETATM   24  C   UNL     1      -9.774   0.922 -34.041  1.00  0.00     0.022 C 
HETATM   25  C   UNL     1     -10.084   0.075 -32.820  1.00  0.00     0.007 C 
ENDBRANCH  23  24
ENDBRANCH  22  23
ENDBRANCH  18  22
ENDBRANCH  13  14
ENDBRANCH  11  13
ENDBRANCH   1  11
BRANCH   8  26
HETATM   26  C   UNL     1       0.286   5.078 -30.638  1.00  0.00     0.270 C 
HETATM   27  N   UNL     1      -0.088   5.305 -29.342  1.00  0.00    -0.365 N 
HETATM   28  H   UNL     1      -0.944   5.818 -29.168  1.00  0.00     0.159 HD
HETATM   29  H   UNL     1       0.495   4.982 -28.588  1.00  0.00     0.159 HD
HETATM   30  O   UNL     1       1.319   4.472 -30.907  1.00  0.00    -0.266 OA
ENDBRANCH   8  26
TORSDOF 8
ENDMDL
MODEL 5
REMARK VINA RESULT:      -7.6      3.451      7.657
REMARK  8 active torsions:
REMARK  status: ('A' for Active; 'I' for Inactive)
REMARK    1  A    between atoms: C_2  and  C_3 
REMARK    2  A    between atoms: C_3  and  O_4 
REMARK    3  A    between atoms: O_4  and  C_5 
REMARK    4  A    between atoms: C_6  and  O_7 
REMARK    5  A    between atoms: C_11  and  C_12 
REMARK    6  A    between atoms: C_12  and  N_13 
REMARK    7  A    between atoms: N_13  and  C_14 
REMARK    8  A    between atoms: C_21  and  C_22 
REMARK       I    between atoms: C_22  and  N_23 
ROOT
HETATM    1  C   UNL     1      -6.911   0.388 -33.081  1.00  0.00     0.009 A 
HETATM    2  C   UNL     1      -5.741  -0.233 -32.612  1.00  0.00     0.039 A 
HETATM    3  C   UNL     1      -5.221  -1.367 -33.270  1.00  0.00     0.030 A 
HETATM    4  C   UNL     1      -5.897  -1.872 -34.371  1.00  0.00     0.063 A 
HETATM    5  N   UNL     1      -5.167  -2.953 -34.780  1.00  0.00    -0.277 N 
HETATM    6  H   UNL     1      -5.368  -3.569 -35.561  1.00  0.00     0.189 HD
HETATM    7  N   UNL     1      -4.077  -3.204 -34.035  1.00  0.00    -0.168 NA
HETATM    8  C   UNL     1      -4.099  -2.232 -33.094  1.00  0.00     0.156 A 
HETATM    9  C   UNL     1      -7.081  -1.313 -34.855  1.00  0.00     0.034 A 
HETATM   10  C   UNL     1      -7.575  -0.190 -34.175  1.00  0.00     0.026 A 
ENDROOT
BRANCH   1  11
HETATM   11  N   UNL     1      -7.525   1.459 -32.421  1.00  0.00    -0.289 NA
HETATM   12  H   UNL     1      -8.388   1.186 -31.958  1.00  0.00     0.128 HD
BRANCH  11  13
HETATM   13  C   UNL     1      -7.642   2.742 -33.099  1.00  0.00     0.131 C 
BRANCH  13  14
HETATM   14  C   UNL     1      -6.502   3.636 -32.666  1.00  0.00    -0.042 A 
HETATM   15  C   UNL     1      -6.144   3.712 -31.315  1.00  0.00     0.011 A 
HETATM   16  C   UNL     1      -5.082   4.524 -30.904  1.00  0.00     0.040 A 
HETATM   17  C   UNL     1      -4.372   5.284 -31.837  1.00  0.00     0.101 A 
HETATM   18  C   UNL     1      -4.761   5.254 -33.188  1.00  0.00     0.102 A 
HETATM   19  C   UNL     1      -5.809   4.422 -33.599  1.00  0.00     0.048 A 
BRANCH  17  20
HETATM   20  O   UNL     1      -3.321   6.109 -31.522  1.00  0.00    -0.353 OA
HETATM   21  C   UNL     1      -3.255   6.588 -30.186  1.00  0.00     0.210 C 
ENDBRANCH  17  20
BRANCH  18  22
HETATM   22  O   UNL     1      -4.028   6.021 -34.061  1.00  0.00    -0.348 OA
BRANCH  22  23
HETATM   23  C   UNL     1      -3.473   5.327 -35.178  1.00  0.00     0.175 C 
BRANCH  23  24
HETATM   24  C   UNL     1      -2.032   4.966 -34.829  1.00  0.00     0.022 C 
HETATM   25  C   UNL     1      -1.261   6.159 -34.297  1.00  0.00     0.007 C 
ENDBRANCH  23  24
ENDBRANCH  22  23
ENDBRANCH  18  22
ENDBRANCH  13  14
ENDBRANCH  11  13
ENDBRANCH   1  11
BRANCH   8  26
HETATM   26  C   UNL     1      -3.065  -2.148 -32.054  1.00  0.00     0.270 C 
HETATM   27  N   UNL     1      -2.763  -3.345 -31.466  1.00  0.00    -0.365 N 
HETATM   28  H   UNL     1      -3.260  -4.174 -31.773  1.00  0.00     0.159 HD
HETATM   29  H   UNL     1      -2.076  -3.385 -30.733  1.00  0.00     0.159 HD
HETATM   30  O   UNL     1      -2.503  -1.111 -31.714  1.00  0.00    -0.266 OA
ENDBRANCH   8  26
TORSDOF 8
ENDMDL
MODEL 6
REMARK VINA RESULT:      -7.6      1.251      2.941
REMARK  8 active torsions:
REMARK  status: ('A' for Active; 'I' for Inactive)
REMARK    1  A    between atoms: C_2  and  C_3 
REMARK    2  A    between atoms: C_3  and  O_4 
REMARK    3  A    between atoms: O_4  and  C_5 
REMARK    4  A    between atoms: C_6  and  O_7 
REMARK    5  A    between atoms: C_11  and  C_12 
REMARK    6  A    between atoms: C_12  and  N_13 
REMARK    7  A    between atoms: N_13  and  C_14 
REMARK    8  A    between atoms: C_21  and  C_22 
REMARK       I    between atoms: C_22  and  N_23 
ROOT
HETATM    1  C   UNL     1      -4.806   3.960 -32.365  1.00  0.00     0.009 A 
HETATM    2  C   UNL     1      -3.522   4.418 -32.024  1.00  0.00     0.039 A 
HETATM    3  C   UNL     1      -2.749   5.139 -32.959  1.00  0.00     0.030 A 
HETATM    4  C   UNL     1      -3.269   5.365 -34.225  1.00  0.00     0.063 A 
HETATM    5  N   UNL     1      -2.305   6.069 -34.891  1.00  0.00    -0.277 N 
HETATM    6  H   UNL     1      -2.341   6.405 -35.848  1.00  0.00     0.189 HD
HETATM    7  N   UNL     1      -1.196   6.315 -34.172  1.00  0.00    -0.168 NA
HETATM    8  C   UNL     1      -1.456   5.742 -32.974  1.00  0.00     0.156 A 
HETATM    9  C   UNL     1      -4.522   4.901 -34.624  1.00  0.00     0.034 A 
HETATM   10  C   UNL     1      -5.263   4.182 -33.674  1.00  0.00     0.026 A 
ENDROOT
BRANCH   1  11
HETATM   11  N   UNL     1      -5.584   3.165 -31.515  1.00  0.00    -0.289 NA
HETATM   12  H   UNL     1      -6.387   3.665 -31.143  1.00  0.00     0.128 HD
BRANCH  11  13
HETATM   13  C   UNL     1      -4.929   2.344 -30.507  1.00  0.00     0.131 C 
BRANCH  13  14
HETATM   14  C   UNL     1      -4.569   1.008 -31.114  1.00  0.00    -0.042 A 
HETATM   15  C   UNL     1      -3.265   0.510 -30.994  1.00  0.00     0.011 A 
HETATM   16  C   UNL     1      -2.923  -0.731 -31.539  1.00  0.00     0.040 A 
HETATM   17  C   UNL     1      -3.876  -1.487 -32.227  1.00  0.00     0.101 A 
HETATM   18  C   UNL     1      -5.173  -0.969 -32.399  1.00  0.00     0.102 A 
HETATM   19  C   UNL     1      -5.517   0.263 -31.831  1.00  0.00     0.048 A 
BRANCH  17  20
HETATM   20  O   UNL     1      -3.627  -2.711 -32.797  1.00  0.00    -0.353 OA
HETATM   21  C   UNL     1      -3.004  -3.689 -31.976  1.00  0.00     0.210 C 
ENDBRANCH  17  20
BRANCH  18  22
HETATM   22  O   UNL     1      -6.068  -1.754 -33.084  1.00  0.00    -0.348 OA
BRANCH  22  23
HETATM   23  C   UNL     1      -7.241  -1.089 -33.551  1.00  0.00     0.175 C 
BRANCH  23  24
HETATM   24  C   UNL     1      -7.049  -0.799 -35.037  1.00  0.00     0.022 C 
HETATM   25  C   UNL     1      -7.170   0.681 -35.347  1.00  0.00     0.007 C 
ENDBRANCH  23  24
ENDBRANCH  22  23
ENDBRANCH  18  22
ENDBRANCH  13  14
ENDBRANCH  11  13
ENDBRANCH   1  11
BRANCH   8  26
HETATM   26  C   UNL     1      -0.477   5.775 -31.879  1.00  0.00     0.270 C 
HETATM   27  N   UNL     1      -0.185   7.033 -31.427  1.00  0.00    -0.365 N 
HETATM   28  H   UNL     1      -0.642   7.824 -31.867  1.00  0.00     0.159 HD
HETATM   29  H   UNL     1       0.486   7.156 -30.687  1.00  0.00     0.159 HD
HETATM   30  O   UNL     1       0.055   4.782 -31.391  1.00  0.00    -0.266 OA
ENDBRANCH   8  26
TORSDOF 8
ENDMDL
MODEL 7
REMARK VINA RESULT:      -7.5      3.731      7.269
REMARK  8 active torsions:
REMARK  status: ('A' for Active; 'I' for Inactive)
REMARK    1  A    between atoms: C_2  and  C_3 
REMARK    2  A    between atoms: C_3  and  O_4 
REMARK    3  A    between atoms: O_4  and  C_5 
REMARK    4  A    between atoms: C_6  and  O_7 
REMARK    5  A    between atoms: C_11  and  C_12 
REMARK    6  A    between atoms: C_12  and  N_13 
REMARK    7  A    between atoms: N_13  and  C_14 
REMARK    8  A    between atoms: C_21  and  C_22 
REMARK       I    between atoms: C_22  and  N_23 
ROOT
HETATM    1  C   UNL     1      -6.992   0.203 -31.649  1.00  0.00     0.009 A 
HETATM    2  C   UNL     1      -5.775  -0.492 -31.557  1.00  0.00     0.039 A 
HETATM    3  C   UNL     1      -5.325  -1.290 -32.630  1.00  0.00     0.030 A 
HETATM    4  C   UNL     1      -6.117  -1.395 -33.765  1.00  0.00     0.063 A 
HETATM    5  N   UNL     1      -5.432  -2.224 -34.609  1.00  0.00    -0.277 N 
HETATM    6  H   UNL     1      -5.715  -2.527 -35.534  1.00  0.00     0.189 HD
HETATM    7  N   UNL     1      -4.264  -2.677 -34.119  1.00  0.00    -0.168 NA
HETATM    8  C   UNL     1      -4.187  -2.109 -32.894  1.00  0.00     0.156 A 
HETATM    9  C   UNL     1      -7.349  -0.753 -33.890  1.00  0.00     0.034 A 
HETATM   10  C   UNL     1      -7.770   0.028 -32.804  1.00  0.00     0.026 A 
ENDROOT
BRANCH   1  11
HETATM   11  N   UNL     1      -7.534   0.938 -30.587  1.00  0.00    -0.289 NA
HETATM   12  H   UNL     1      -8.545   0.845 -30.527  1.00  0.00     0.128 HD
BRANCH  11  13
HETATM   13  C   UNL     1      -7.091   2.308 -30.368  1.00  0.00     0.131 C 
BRANCH  13  14
HETATM   14  C   UNL     1      -7.545   3.166 -31.526  1.00  0.00    -0.042 A 
HETATM   15  C   UNL     1      -8.911   3.392 -31.740  1.00  0.00     0.011 A 
HETATM   16  C   UNL     1      -9.343   4.195 -32.800  1.00  0.00     0.040 A 
HETATM   17  C   UNL     1      -8.416   4.772 -33.672  1.00  0.00     0.101 A 
HETATM   18  C   UNL     1      -7.046   4.505 -33.497  1.00  0.00     0.102 A 
HETATM   19  C   UNL     1      -6.617   3.720 -32.420  1.00  0.00     0.048 A 
BRANCH  17  20
HETATM   20  O   UNL     1      -8.751   5.569 -34.739  1.00  0.00    -0.353 OA
HETATM   21  C   UNL     1     -10.096   5.508 -35.192  1.00  0.00     0.210 C 
ENDBRANCH  17  20
BRANCH  18  22
HETATM   22  O   UNL     1      -6.181   5.097 -34.384  1.00  0.00    -0.348 OA
BRANCH  22  23
HETATM   23  C   UNL     1      -4.826   5.205 -33.946  1.00  0.00     0.175 C 
BRANCH  23  24
HETATM   24  C   UNL     1      -3.933   5.141 -35.182  1.00  0.00     0.022 C 
HETATM   25  C   UNL     1      -2.461   5.228 -34.824  1.00  0.00     0.007 C 
ENDBRANCH  23  24
ENDBRANCH  22  23
ENDBRANCH  18  22
ENDBRANCH  13  14
ENDBRANCH  11  13
ENDBRANCH   1  11
BRANCH   8  26
HETATM   26  C   UNL     1      -3.045  -2.359 -32.004  1.00  0.00     0.270 C 
HETATM   27  N   UNL     1      -2.310  -1.243 -31.710  1.00  0.00    -0.365 N 
HETATM   28  H   UNL     1      -2.591  -0.357 -32.116  1.00  0.00     0.159 HD
HETATM   29  H   UNL     1      -1.500  -1.317 -31.118  1.00  0.00     0.159 HD
HETATM   30  O   UNL     1      -2.744  -3.458 -31.548  1.00  0.00    -0.266 OA
ENDBRANCH   8  26
TORSDOF 8
ENDMDL
MODEL 8
REMARK VINA RESULT:      -7.5      4.786      8.267
REMARK  8 active torsions:
REMARK  status: ('A' for Active; 'I' for Inactive)
REMARK    1  A    between atoms: C_2  and  C_3 
REMARK    2  A    between atoms: C_3  and  O_4 
REMARK    3  A    between atoms: O_4  and  C_5 
REMARK    4  A    between atoms: C_6  and  O_7 
REMARK    5  A    between atoms: C_11  and  C_12 
REMARK    6  A    between atoms: C_12  and  N_13 
REMARK    7  A    between atoms: N_13  and  C_14 
REMARK    8  A    between atoms: C_21  and  C_22 
REMARK       I    between atoms: C_22  and  N_23 
ROOT
HETATM    1  C   UNL     1      -9.538   1.972 -34.139  1.00  0.00     0.009 A 
HETATM    2  C   UNL     1     -10.809   1.380 -34.242  1.00  0.00     0.039 A 
HETATM    3  C   UNL     1     -11.906   1.917 -33.536  1.00  0.00     0.030 A 
HETATM    4  C   UNL     1     -11.703   3.022 -32.722  1.00  0.00     0.063 A 
HETATM    5  N   UNL     1     -12.926   3.301 -32.179  1.00  0.00    -0.277 N 
HETATM    6  H   UNL     1     -13.153   4.046 -31.529  1.00  0.00     0.189 HD
HETATM    7  N   UNL     1     -13.909   2.467 -32.561  1.00  0.00    -0.168 NA
HETATM    8  C   UNL     1     -13.291   1.604 -33.399  1.00  0.00     0.156 A 
HETATM    9  C   UNL     1     -10.455   3.624 -32.559  1.00  0.00     0.034 A 
HETATM   10  C   UNL     1      -9.384   3.063 -33.269  1.00  0.00     0.026 A 
ENDROOT
BRANCH   1  11
HETATM   11  N   UNL     1      -8.394   1.434 -34.742  1.00  0.00    -0.289 NA
HETATM   12  H   UNL     1      -8.142   1.922 -35.598  1.00  0.00     0.128 HD
BRANCH  11  13
HETATM   13  C   UNL     1      -8.266  -0.010 -34.870  1.00  0.00     0.131 C 
BRANCH  13  14
HETATM   14  C   UNL     1      -7.035  -0.465 -34.121  1.00  0.00    -0.042 A 
HETATM   15  C   UNL     1      -6.318  -1.584 -34.563  1.00  0.00     0.011 A 
HETATM   16  C   UNL     1      -5.170  -2.007 -33.887  1.00  0.00     0.040 A 
HETATM   17  C   UNL     1      -4.729  -1.326 -32.749  1.00  0.00     0.101 A 
HETATM   18  C   UNL     1      -5.474  -0.235 -32.267  1.00  0.00     0.102 A 
HETATM   19  C   UNL     1      -6.610   0.199 -32.961  1.00  0.00     0.048 A 
BRANCH  17  20
HETATM   20  O   UNL     1      -3.616  -1.674 -32.023  1.00  0.00    -0.353 OA
HETATM   21  C   UNL     1      -3.199  -3.030 -32.092  1.00  0.00     0.210 C 
ENDBRANCH  17  20
BRANCH  18  22
HETATM   22  O   UNL     1      -4.995   0.396 -31.145  1.00  0.00    -0.348 OA
BRANCH  22  23
HETATM   23  C   UNL     1      -5.962   0.668 -30.130  1.00  0.00     0.175 C 
BRANCH  23  24
HETATM   24  C   UNL     1      -5.960   2.174 -29.882  1.00  0.00     0.022 C 
HETATM   25  C   UNL     1      -7.303   2.804 -30.204  1.00  0.00     0.007 C 
ENDBRANCH  23  24
ENDBRANCH  22  23
ENDBRANCH  18  22
ENDBRANCH  13  14
ENDBRANCH  11  13
ENDBRANCH   1  11
BRANCH   8  26
HETATM   26  C   UNL     1     -14.023   0.505 -34.043  1.00  0.00     0.270 C 
HETATM   27  N   UNL     1     -13.573  -0.742 -33.704  1.00  0.00    -0.365 N 
HETATM   28  H   UNL     1     -12.792  -0.817 -33.062  1.00  0.00     0.159 HD
HETATM   29  H   UNL     1     -14.004  -1.557 -34.107  1.00  0.00     0.159 HD
HETATM   30  O   UNL     1     -14.958   0.654 -34.824  1.00  0.00    -0.266 OA
ENDBRANCH   8  26
TORSDOF 8
ENDMDL
MODEL 9
REMARK VINA RESULT:      -7.4      4.655      7.477
REMARK  8 active torsions:
REMARK  status: ('A' for Active; 'I' for Inactive)
REMARK    1  A    between atoms: C_2  and  C_3 
REMARK    2  A    between atoms: C_3  and  O_4 
REMARK    3  A    between atoms: O_4  and  C_5 
REMARK    4  A    between atoms: C_6  and  O_7 
REMARK    5  A    between atoms: C_11  and  C_12 
REMARK    6  A    between atoms: C_12  and  N_13 
REMARK    7  A    between atoms: N_13  and  C_14 
REMARK    8  A    between atoms: C_21  and  C_22 
REMARK       I    between atoms: C_22  and  N_23 
ROOT
HETATM    1  C   UNL     1      -9.220   2.350 -33.269  1.00  0.00     0.009 A 
HETATM    2  C   UNL     1     -10.336   1.497 -33.283  1.00  0.00     0.039 A 
HETATM    3  C   UNL     1     -11.447   1.787 -34.103  1.00  0.00     0.030 A 
HETATM    4  C   UNL     1     -11.428   2.941 -34.874  1.00  0.00     0.063 A 
HETATM    5  N   UNL     1     -12.621   2.950 -35.541  1.00  0.00    -0.277 N 
HETATM    6  H   UNL     1     -12.952   3.650 -36.196  1.00  0.00     0.189 HD
HETATM    7  N   UNL     1     -13.422   1.906 -35.266  1.00  0.00    -0.168 NA
HETATM    8  C   UNL     1     -12.709   1.179 -34.375  1.00  0.00     0.156 A 
HETATM    9  C   UNL     1     -10.360   3.838 -34.868  1.00  0.00     0.034 A 
HETATM   10  C   UNL     1      -9.273   3.524 -34.038  1.00  0.00     0.026 A 
ENDROOT
BRANCH   1  11
HETATM   11  N   UNL     1      -8.128   2.165 -32.413  1.00  0.00    -0.289 NA
HETATM   12  H   UNL     1      -7.257   2.502 -32.817  1.00  0.00     0.128 HD
BRANCH  11  13
HETATM   13  C   UNL     1      -7.963   0.889 -31.731  1.00  0.00     0.131 C 
BRANCH  13  14
HETATM   14  C   UNL     1      -7.166  -0.043 -32.613  1.00  0.00    -0.042 A 
HETATM   15  C   UNL     1      -7.820  -1.011 -33.385  1.00  0.00     0.011 A 
HETATM   16  C   UNL     1      -7.095  -1.871 -34.215  1.00  0.00     0.040 A 
HETATM   17  C   UNL     1      -5.702  -1.786 -34.275  1.00  0.00     0.101 A 
HETATM   18  C   UNL     1      -5.033  -0.854 -33.461  1.00  0.00     0.102 A 
HETATM   19  C   UNL     1      -5.765   0.021 -32.649  1.00  0.00     0.048 A 
BRANCH  17  20
HETATM   20  O   UNL     1      -4.911  -2.591 -35.058  1.00  0.00    -0.353 OA
HETATM   21  C   UNL     1      -4.845  -3.966 -34.708  1.00  0.00     0.210 C 
ENDBRANCH  17  20
BRANCH  18  22
HETATM   22  O   UNL     1      -3.664  -0.815 -33.559  1.00  0.00    -0.348 OA
BRANCH  22  23
HETATM   23  C   UNL     1      -2.951  -1.031 -32.341  1.00  0.00     0.175 C 
BRANCH  23  24
HETATM   24  C   UNL     1      -3.571  -2.242 -31.650  1.00  0.00     0.022 C 
HETATM   25  C   UNL     1      -2.690  -3.473 -31.763  1.00  0.00     0.007 C 
ENDBRANCH  23  24
ENDBRANCH  22  23
ENDBRANCH  18  22
ENDBRANCH  13  14
ENDBRANCH  11  13
ENDBRANCH   1  11
BRANCH   8  26
HETATM   26  C   UNL     1     -13.240  -0.065 -33.800  1.00  0.00     0.270 C 
HETATM   27  N   UNL     1     -14.580  -0.248 -34.002  1.00  0.00    -0.365 N 
HETATM   28  H   UNL     1     -15.095   0.464 -34.508  1.00  0.00     0.159 HD
HETATM   29  H   UNL     1     -15.036  -1.065 -33.633  1.00  0.00     0.159 HD
HETATM   30  O   UNL     1     -12.569  -0.889 -33.185  1.00  0.00    -0.266 OA
ENDBRANCH   8  26
TORSDOF 8
ENDMDL
MODEL 10
REMARK VINA RESULT:      -7.3      4.730      7.784
REMARK  8 active torsions:
REMARK  status: ('A' for Active; 'I' for Inactive)
REMARK    1  A    between atoms: C_2  and  C_3 
REMARK    2  A    between atoms: C_3  and  O_4 
REMARK    3  A    between atoms: O_4  and  C_5 
REMARK    4  A    between atoms: C_6  and  O_7 
REMARK    5  A    between atoms: C_11  and  C_12 
REMARK    6  A    between atoms: C_12  and  N_13 
REMARK    7  A    between atoms: N_13  and  C_14 
REMARK    8  A    between atoms: C_21  and  C_22 
REMARK       I    between atoms: C_22  and  N_23 
ROOT
HETATM    1  C   UNL     1      -9.425   3.036 -33.038  1.00  0.00     0.009 A 
HETATM    2  C   UNL     1     -10.491   2.122 -33.019  1.00  0.00     0.039 A 
HETATM    3  C   UNL     1     -11.445   2.116 -34.059  1.00  0.00     0.030 A 
HETATM    4  C   UNL     1     -11.325   3.043 -35.084  1.00  0.00     0.063 A 
HETATM    5  N   UNL     1     -12.378   2.797 -35.920  1.00  0.00    -0.277 N 
HETATM    6  H   UNL     1     -12.608   3.288 -36.777  1.00  0.00     0.189 HD
HETATM    7  N   UNL     1     -13.182   1.794 -35.525  1.00  0.00    -0.168 NA
HETATM    8  C   UNL     1     -12.618   1.366 -34.372  1.00  0.00     0.156 A 
HETATM    9  C   UNL     1     -10.305   3.993 -35.130  1.00  0.00     0.034 A 
HETATM   10  C   UNL     1      -9.376   3.977 -34.079  1.00  0.00     0.026 A 
ENDROOT
BRANCH   1  11
HETATM   11  N   UNL     1      -8.498   3.151 -31.994  1.00  0.00    -0.289 NA
HETATM   12  H   UNL     1      -7.569   3.396 -32.325  1.00  0.00     0.128 HD
BRANCH  11  13
HETATM   13  C   UNL     1      -8.465   2.132 -30.955  1.00  0.00     0.131 C 
BRANCH  13  14
HETATM   14  C   UNL     1      -7.282   1.221 -31.194  1.00  0.00    -0.042 A 
HETATM   15  C   UNL     1      -6.265   1.125 -30.236  1.00  0.00     0.011 A 
HETATM   16  C   UNL     1      -5.173   0.276 -30.438  1.00  0.00     0.040 A 
HETATM   17  C   UNL     1      -5.074  -0.479 -31.609  1.00  0.00     0.101 A 
HETATM   18  C   UNL     1      -6.063  -0.347 -32.600  1.00  0.00     0.102 A 
HETATM   19  C   UNL     1      -7.167   0.486 -32.382  1.00  0.00     0.048 A 
BRANCH  17  20
HETATM   20  O   UNL     1      -4.037  -1.334 -31.893  1.00  0.00    -0.353 OA
HETATM   21  C   UNL     1      -2.723  -0.798 -31.824  1.00  0.00     0.210 C 
ENDBRANCH  17  20
BRANCH  18  22
HETATM   22  O   UNL     1      -5.915  -1.112 -33.731  1.00  0.00    -0.348 OA
BRANCH  22  23
HETATM   23  C   UNL     1      -7.110  -1.705 -34.237  1.00  0.00     0.175 C 
BRANCH  23  24
HETATM   24  C   UNL     1      -6.783  -3.142 -34.633  1.00  0.00     0.022 C 
HETATM   25  C   UNL     1      -5.300  -3.337 -34.889  1.00  0.00     0.007 C 
ENDBRANCH  23  24
ENDBRANCH  22  23
ENDBRANCH  18  22
ENDBRANCH  13  14
ENDBRANCH  11  13
ENDBRANCH   1  11
BRANCH   8  26
HETATM   26  C   UNL     1     -13.203   0.264 -33.596  1.00  0.00     0.270 C 
HETATM   27  N   UNL     1     -14.474   0.504 -33.153  1.00  0.00    -0.365 N 
HETATM   28  H   UNL     1     -14.905   1.394 -33.376  1.00  0.00     0.159 HD
HETATM   29  H   UNL     1     -14.952  -0.188 -32.601  1.00  0.00     0.159 HD
HETATM   30  O   UNL     1     -12.629  -0.792 -33.345  1.00  0.00    -0.266 OA
ENDBRANCH   8  26
TORSDOF 8
ENDMDL
