MODEL 1
REMARK VINA RESULT:      -7.9      0.000      0.000
REMARK  8 active torsions:
REMARK  status: ('A' for Active; 'I' for Inactive)
REMARK    1  A    between atoms: C_2  and  C_3 
REMARK    2  A    between atoms: C_3  and  O_4 
REMARK    3  A    between atoms: O_4  and  C_5 
REMARK    4  A    between atoms: C_8  and  C_9 
REMARK    5  A    between atoms: C_13  and  C_14 
REMARK       I    between atoms: C_14  and  N_15 
REMARK    6  A    between atoms: N_15  and  N_16 
REMARK    7  A    between atoms: C_17  and  C_18 
REMARK    8  A    between atoms: C_21  and  O_22 
ROOT
HETATM    1  C   UNL     1      -0.029   7.711 -28.583  1.00  0.00     0.089 A 
HETATM    2  N   UNL     1      -1.113   8.232 -29.177  1.00  0.00    -0.174 NA
HETATM    3  N   UNL     1      -1.455   7.332 -30.110  1.00  0.00    -0.272 N 
HETATM    4  H   UNL     1      -2.263   7.513 -30.700  1.00  0.00     0.189 HD
HETATM    5  C   UNL     1      -0.658   6.222 -30.139  1.00  0.00     0.121 A 
HETATM    6  C   UNL     1       0.293   6.452 -29.164  1.00  0.00     0.071 A 
ENDROOT
BRANCH   5   7
HETATM    7  C   UNL     1      -0.921   5.137 -31.052  1.00  0.00     0.289 C 
HETATM    8  N   UNL     1      -2.163   4.540 -30.895  1.00  0.00    -0.242 N 
HETATM    9  H   UNL     1      -2.803   4.868 -30.186  1.00  0.00     0.192 HD
HETATM   10  O   UNL     1      -0.092   4.804 -31.894  1.00  0.00    -0.264 OA
BRANCH   8  11
HETATM   11  N   UNL     1      -2.558   3.539 -31.734  1.00  0.00    -0.184 NA
HETATM   12  C   UNL     1      -3.496   2.769 -31.284  1.00  0.00     0.150 C 
BRANCH  12  13
HETATM   13  C   UNL     1      -4.034   1.650 -32.083  1.00  0.00    -0.017 A 
HETATM   14  C   UNL     1      -3.325   0.455 -32.212  1.00  0.00     0.016 A 
HETATM   15  C   UNL     1      -3.861  -0.586 -32.974  1.00  0.00     0.037 A 
HETATM   16  C   UNL     1      -5.102  -0.446 -33.602  1.00  0.00     0.068 A 
HETATM   17  C   UNL     1      -5.804   0.755 -33.473  1.00  0.00     0.037 A 
HETATM   18  C   UNL     1      -5.271   1.804 -32.715  1.00  0.00     0.016 A 
BRANCH  16  19
HETATM   19  O   UNL     1      -5.511  -1.543 -34.308  1.00  0.00    -0.356 OA
HETATM   20  C   UNL     1      -4.670  -2.688 -34.265  1.00  0.00     0.210 C 
ENDBRANCH  16  19
ENDBRANCH  12  13
ENDBRANCH   8  11
ENDBRANCH   5   7
BRANCH   1  21
HETATM   21  C   UNL     1       0.646   8.391 -27.475  1.00  0.00    -0.005 A 
HETATM   22  C   UNL     1       0.341   9.725 -27.170  1.00  0.00     0.016 A 
HETATM   23  C   UNL     1       0.946  10.375 -26.086  1.00  0.00     0.037 A 
HETATM   24  C   UNL     1       1.869   9.697 -25.292  1.00  0.00     0.068 A 
HETATM   25  C   UNL     1       2.199   8.378 -25.606  1.00  0.00     0.037 A 
HETATM   26  C   UNL     1       1.593   7.726 -26.686  1.00  0.00     0.016 A 
BRANCH  24  27
HETATM   27  O   UNL     1       2.519  10.205 -24.201  1.00  0.00    -0.351 OA
BRANCH  27  28
HETATM   28  C   UNL     1       3.841   9.725 -23.957  1.00  0.00     0.175 C 
BRANCH  28  29
HETATM   29  C   UNL     1       3.992   9.521 -22.452  1.00  0.00     0.022 C 
HETATM   30  C   UNL     1       3.266   8.276 -21.974  1.00  0.00     0.007 C 
ENDBRANCH  28  29
ENDBRANCH  27  28
ENDBRANCH  24  27
ENDBRANCH   1  21
TORSDOF 8
ENDMDL
MODEL 2
REMARK VINA RESULT:      -7.8      1.519      2.043
REMARK  8 active torsions:
REMARK  status: ('A' for Active; 'I' for Inactive)
REMARK    1  A    between atoms: C_2  and  C_3 
REMARK    2  A    between atoms: C_3  and  O_4 
REMARK    3  A    between atoms: O_4  and  C_5 
REMARK    4  A    between atoms: C_8  and  C_9 
REMARK    5  A    between atoms: C_13  and  C_14 
REMARK       I    between atoms: C_14  and  N_15 
REMARK    6  A    between atoms: N_15  and  N_16 
REMARK    7  A    between atoms: C_17  and  C_18 
REMARK    8  A    between atoms: C_21  and  O_22 
ROOT
HETATM    1  C   UNL     1      -0.382   6.797 -30.000  1.00  0.00     0.089 A 
HETATM    2  N   UNL     1       0.544   6.362 -30.867  1.00  0.00    -0.174 NA
HETATM    3  N   UNL     1      -0.095   5.457 -31.623  1.00  0.00    -0.272 N 
HETATM    4  H   UNL     1       0.414   4.981 -32.362  1.00  0.00     0.189 HD
HETATM    5  C   UNL     1      -1.416   5.296 -31.310  1.00  0.00     0.121 A 
HETATM    6  C   UNL     1      -1.626   6.145 -30.241  1.00  0.00     0.071 A 
ENDROOT
BRANCH   5   7
HETATM    7  C   UNL     1      -2.256   4.396 -32.060  1.00  0.00     0.289 C 
HETATM    8  N   UNL     1      -3.026   3.544 -31.283  1.00  0.00    -0.242 N 
HETATM    9  H   UNL     1      -2.974   3.582 -30.275  1.00  0.00     0.192 HD
HETATM   10  O   UNL     1      -2.270   4.419 -33.288  1.00  0.00    -0.264 OA
BRANCH   8  11
HETATM   11  N   UNL     1      -3.907   2.682 -31.870  1.00  0.00    -0.184 NA
HETATM   12  C   UNL     1      -3.490   1.464 -32.007  1.00  0.00     0.150 C 
BRANCH  12  13
HETATM   13  C   UNL     1      -4.335   0.416 -32.614  1.00  0.00    -0.017 A 
HETATM   14  C   UNL     1      -3.769  -0.741 -33.150  1.00  0.00     0.016 A 
HETATM   15  C   UNL     1      -4.594  -1.715 -33.715  1.00  0.00     0.037 A 
HETATM   16  C   UNL     1      -5.982  -1.546 -33.744  1.00  0.00     0.068 A 
HETATM   17  C   UNL     1      -6.541  -0.382 -33.212  1.00  0.00     0.037 A 
HETATM   18  C   UNL     1      -5.720   0.600 -32.647  1.00  0.00     0.016 A 
BRANCH  16  19
HETATM   19  O   UNL     1      -6.670  -2.578 -34.320  1.00  0.00    -0.356 OA
HETATM   20  C   UNL     1      -5.905  -3.557 -35.011  1.00  0.00     0.210 C 
ENDBRANCH  16  19
ENDBRANCH  12  13
ENDBRANCH   8  11
ENDBRANCH   5   7
BRANCH   1  21
HETATM   21  C   UNL     1      -0.083   7.825 -29.002  1.00  0.00    -0.005 A 
HETATM   22  C   UNL     1      -1.062   8.758 -28.629  1.00  0.00     0.016 A 
HETATM   23  C   UNL     1      -0.805   9.720 -27.643  1.00  0.00     0.037 A 
HETATM   24  C   UNL     1       0.439   9.764 -27.018  1.00  0.00     0.068 A 
HETATM   25  C   UNL     1       1.428   8.858 -27.403  1.00  0.00     0.037 A 
HETATM   26  C   UNL     1       1.172   7.892 -28.384  1.00  0.00     0.016 A 
BRANCH  24  27
HETATM   27  O   UNL     1       0.815  10.637 -26.035  1.00  0.00    -0.351 OA
BRANCH  27  28
HETATM   28  C   UNL     1       1.095  10.080 -24.750  1.00  0.00     0.175 C 
BRANCH  28  29
HETATM   29  C   UNL     1       2.482  10.555 -24.328  1.00  0.00     0.022 C 
HETATM   30  C   UNL     1       3.498   9.427 -24.354  1.00  0.00     0.007 C 
ENDBRANCH  28  29
ENDBRANCH  27  28
ENDBRANCH  24  27
ENDBRANCH   1  21
TORSDOF 8
ENDMDL
MODEL 3
REMARK VINA RESULT:      -7.6      1.337     11.990
REMARK  8 active torsions:
REMARK  status: ('A' for Active; 'I' for Inactive)
REMARK    1  A    between atoms: C_2  and  C_3 
REMARK    2  A    between atoms: C_3  and  O_4 
REMARK    3  A    between atoms: O_4  and  C_5 
REMARK    4  A    between atoms: C_8  and  C_9 
REMARK    5  A    between atoms: C_13  and  C_14 
REMARK       I    between atoms: C_14  and  N_15 
REMARK    6  A    between atoms: N_15  and  N_16 
REMARK    7  A    between atoms: C_17  and  C_18 
REMARK    8  A    between atoms: C_21  and  O_22 
ROOT
HETATM    1  C   UNL     1      -3.154   3.314 -32.447  1.00  0.00     0.089 A 
HETATM    2  N   UNL     1      -2.518   3.887 -33.480  1.00  0.00    -0.174 NA
HETATM    3  N   UNL     1      -1.850   4.916 -32.938  1.00  0.00    -0.272 N 
HETATM    4  H   UNL     1      -1.286   5.511 -33.539  1.00  0.00     0.189 HD
HETATM    5  C   UNL     1      -1.994   5.030 -31.584  1.00  0.00     0.121 A 
HETATM    6  C   UNL     1      -2.856   4.007 -31.239  1.00  0.00     0.071 A 
ENDROOT
BRANCH   5   7
HETATM    7  C   UNL     1      -1.301   6.054 -30.843  1.00  0.00     0.289 C 
HETATM    8  N   UNL     1      -1.839   6.326 -29.594  1.00  0.00    -0.242 N 
HETATM    9  H   UNL     1      -2.652   5.824 -29.266  1.00  0.00     0.192 HD
HETATM   10  O   UNL     1      -0.311   6.612 -31.309  1.00  0.00    -0.264 OA
BRANCH   8  11
HETATM   11  N   UNL     1      -1.242   7.236 -28.769  1.00  0.00    -0.184 NA
HETATM   12  C   UNL     1      -0.576   6.738 -27.777  1.00  0.00     0.150 C 
BRANCH  12  13
HETATM   13  C   UNL     1       0.133   7.597 -26.808  1.00  0.00    -0.017 A 
HETATM   14  C   UNL     1       1.518   7.518 -26.660  1.00  0.00     0.016 A 
HETATM   15  C   UNL     1       2.161   8.345 -25.736  1.00  0.00     0.037 A 
HETATM   16  C   UNL     1       1.433   9.254 -24.963  1.00  0.00     0.068 A 
HETATM   17  C   UNL     1       0.046   9.323 -25.112  1.00  0.00     0.037 A 
HETATM   18  C   UNL     1      -0.606   8.495 -26.033  1.00  0.00     0.016 A 
BRANCH  16  19
HETATM   19  O   UNL     1       2.187  10.006 -24.105  1.00  0.00    -0.356 OA
HETATM   20  C   UNL     1       2.733   9.338 -22.974  1.00  0.00     0.210 C 
ENDBRANCH  16  19
ENDBRANCH  12  13
ENDBRANCH   8  11
ENDBRANCH   5   7
BRANCH   1  21
HETATM   21  C   UNL     1      -3.988   2.122 -32.619  1.00  0.00    -0.005 A 
HETATM   22  C   UNL     1      -3.477   0.850 -32.326  1.00  0.00     0.016 A 
HETATM   23  C   UNL     1      -4.278  -0.294 -32.443  1.00  0.00     0.037 A 
HETATM   24  C   UNL     1      -5.602  -0.181 -32.860  1.00  0.00     0.068 A 
HETATM   25  C   UNL     1      -6.110   1.079 -33.180  1.00  0.00     0.037 A 
HETATM   26  C   UNL     1      -5.314   2.224 -33.059  1.00  0.00     0.016 A 
BRANCH  24  27
HETATM   27  O   UNL     1      -6.492  -1.209 -33.001  1.00  0.00    -0.351 OA
BRANCH  27  28
HETATM   28  C   UNL     1      -6.781  -1.632 -34.335  1.00  0.00     0.175 C 
BRANCH  28  29
HETATM   29  C   UNL     1      -5.878  -2.819 -34.654  1.00  0.00     0.022 C 
HETATM   30  C   UNL     1      -6.678  -4.068 -34.978  1.00  0.00     0.007 C 
ENDBRANCH  28  29
ENDBRANCH  27  28
ENDBRANCH  24  27
ENDBRANCH   1  21
TORSDOF 8
ENDMDL
MODEL 4
REMARK VINA RESULT:      -7.3     10.467     13.811
REMARK  8 active torsions:
REMARK  status: ('A' for Active; 'I' for Inactive)
REMARK    1  A    between atoms: C_2  and  C_3 
REMARK    2  A    between atoms: C_3  and  O_4 
REMARK    3  A    between atoms: O_4  and  C_5 
REMARK    4  A    between atoms: C_8  and  C_9 
REMARK    5  A    between atoms: C_13  and  C_14 
REMARK       I    between atoms: C_14  and  N_15 
REMARK    6  A    between atoms: N_15  and  N_16 
REMARK    7  A    between atoms: C_17  and  C_18 
REMARK    8  A    between atoms: C_21  and  O_22 
ROOT
HETATM    1  C   UNL     1      -9.109   0.336 -33.593  1.00  0.00     0.089 A 
HETATM    2  N   UNL     1     -10.114  -0.106 -32.824  1.00  0.00    -0.174 NA
HETATM    3  N   UNL     1     -11.173   0.630 -33.191  1.00  0.00    -0.272 N 
HETATM    4  H   UNL     1     -12.068   0.473 -32.735  1.00  0.00     0.189 HD
HETATM    5  C   UNL     1     -10.916   1.523 -34.193  1.00  0.00     0.121 A 
HETATM    6  C   UNL     1      -9.571   1.366 -34.463  1.00  0.00     0.071 A 
ENDROOT
BRANCH   5   7
HETATM    7  C   UNL     1     -11.960   2.357 -34.737  1.00  0.00     0.289 C 
HETATM    8  N   UNL     1     -11.876   3.693 -34.377  1.00  0.00    -0.242 N 
HETATM    9  H   UNL     1     -11.129   4.017 -33.780  1.00  0.00     0.192 HD
HETATM   10  O   UNL     1     -12.830   1.886 -35.464  1.00  0.00    -0.264 OA
BRANCH   8  11
HETATM   11  N   UNL     1     -12.772   4.597 -34.871  1.00  0.00    -0.184 NA
HETATM   12  C   UNL     1     -12.263   5.699 -35.321  1.00  0.00     0.150 C 
BRANCH  12  13
HETATM   13  C   UNL     1     -13.105   6.766 -35.897  1.00  0.00    -0.017 A 
HETATM   14  C   UNL     1     -14.491   6.748 -35.741  1.00  0.00     0.016 A 
HETATM   15  C   UNL     1     -15.262   7.773 -36.296  1.00  0.00     0.037 A 
HETATM   16  C   UNL     1     -14.658   8.819 -37.000  1.00  0.00     0.068 A 
HETATM   17  C   UNL     1     -13.270   8.828 -37.157  1.00  0.00     0.037 A 
HETATM   18  C   UNL     1     -12.492   7.802 -36.608  1.00  0.00     0.016 A 
BRANCH  16  19
HETATM   19  O   UNL     1     -15.527   9.757 -37.484  1.00  0.00    -0.356 OA
HETATM   20  C   UNL     1     -16.612   9.284 -38.271  1.00  0.00     0.210 C 
ENDBRANCH  16  19
ENDBRANCH  12  13
ENDBRANCH   8  11
ENDBRANCH   5   7
BRANCH   1  21
HETATM   21  C   UNL     1      -7.764  -0.238 -33.513  1.00  0.00    -0.005 A 
HETATM   22  C   UNL     1      -6.979  -0.049 -32.367  1.00  0.00     0.016 A 
HETATM   23  C   UNL     1      -5.708  -0.630 -32.257  1.00  0.00     0.037 A 
HETATM   24  C   UNL     1      -5.204  -1.407 -33.297  1.00  0.00     0.068 A 
HETATM   25  C   UNL     1      -5.967  -1.578 -34.453  1.00  0.00     0.037 A 
HETATM   26  C   UNL     1      -7.239  -1.002 -34.563  1.00  0.00     0.016 A 
BRANCH  24  27
HETATM   27  O   UNL     1      -3.992  -2.040 -33.313  1.00  0.00    -0.351 OA
BRANCH  27  28
HETATM   28  C   UNL     1      -3.355  -2.245 -32.052  1.00  0.00     0.175 C 
BRANCH  28  29
HETATM   29  C   UNL     1      -3.022  -3.730 -31.933  1.00  0.00     0.022 C 
HETATM   30  C   UNL     1      -3.441  -4.504 -33.170  1.00  0.00     0.007 C 
ENDBRANCH  28  29
ENDBRANCH  27  28
ENDBRANCH  24  27
ENDBRANCH   1  21
TORSDOF 8
ENDMDL
MODEL 5
REMARK VINA RESULT:      -7.3     10.467     14.165
REMARK  8 active torsions:
REMARK  status: ('A' for Active; 'I' for Inactive)
REMARK    1  A    between atoms: C_2  and  C_3 
REMARK    2  A    between atoms: C_3  and  O_4 
REMARK    3  A    between atoms: O_4  and  C_5 
REMARK    4  A    between atoms: C_8  and  C_9 
REMARK    5  A    between atoms: C_13  and  C_14 
REMARK       I    between atoms: C_14  and  N_15 
REMARK    6  A    between atoms: N_15  and  N_16 
REMARK    7  A    between atoms: C_17  and  C_18 
REMARK    8  A    between atoms: C_21  and  O_22 
ROOT
HETATM    1  C   UNL     1      -8.547   0.429 -33.046  1.00  0.00     0.089 A 
HETATM    2  N   UNL     1      -8.886   0.768 -31.793  1.00  0.00    -0.174 NA
HETATM    3  N   UNL     1     -10.039   1.441 -31.923  1.00  0.00    -0.272 N 
HETATM    4  H   UNL     1     -10.494   1.807 -31.092  1.00  0.00     0.189 HD
HETATM    5  C   UNL     1     -10.492   1.536 -33.209  1.00  0.00     0.121 A 
HETATM    6  C   UNL     1      -9.528   0.900 -33.966  1.00  0.00     0.071 A 
ENDROOT
BRANCH   5   7
HETATM    7  C   UNL     1     -11.743   2.186 -33.513  1.00  0.00     0.289 C 
HETATM    8  N   UNL     1     -12.324   2.848 -32.442  1.00  0.00    -0.242 N 
HETATM    9  H   UNL     1     -11.875   2.851 -31.538  1.00  0.00     0.192 HD
HETATM   10  O   UNL     1     -12.219   2.144 -34.645  1.00  0.00    -0.264 OA
BRANCH   8  11
HETATM   11  N   UNL     1     -13.481   3.551 -32.613  1.00  0.00    -0.184 NA
HETATM   12  C   UNL     1     -14.496   3.132 -31.926  1.00  0.00     0.150 C 
BRANCH  12  13
HETATM   13  C   UNL     1     -15.811   3.799 -31.997  1.00  0.00    -0.017 A 
HETATM   14  C   UNL     1     -15.912   5.191 -31.966  1.00  0.00     0.016 A 
HETATM   15  C   UNL     1     -17.170   5.793 -32.037  1.00  0.00     0.037 A 
HETATM   16  C   UNL     1     -18.328   5.018 -32.144  1.00  0.00     0.068 A 
HETATM   17  C   UNL     1     -18.221   3.625 -32.167  1.00  0.00     0.037 A 
HETATM   18  C   UNL     1     -16.963   3.014 -32.093  1.00  0.00     0.016 A 
BRANCH  16  19
HETATM   19  O   UNL     1     -19.491   5.734 -32.210  1.00  0.00    -0.356 OA
HETATM   20  C   UNL     1     -19.375   7.125 -32.484  1.00  0.00     0.210 C 
ENDBRANCH  16  19
ENDBRANCH  12  13
ENDBRANCH   8  11
ENDBRANCH   5   7
BRANCH   1  21
HETATM   21  C   UNL     1      -7.340  -0.349 -33.336  1.00  0.00    -0.005 A 
HETATM   22  C   UNL     1      -6.253  -0.327 -32.452  1.00  0.00     0.016 A 
HETATM   23  C   UNL     1      -5.110  -1.100 -32.693  1.00  0.00     0.037 A 
HETATM   24  C   UNL     1      -5.038  -1.905 -33.828  1.00  0.00     0.068 A 
HETATM   25  C   UNL     1      -6.104  -1.912 -34.727  1.00  0.00     0.037 A 
HETATM   26  C   UNL     1      -7.249  -1.143 -34.486  1.00  0.00     0.016 A 
BRANCH  24  27
HETATM   27  O   UNL     1      -3.993  -2.717 -34.174  1.00  0.00    -0.351 OA
BRANCH  27  28
HETATM   28  C   UNL     1      -3.388  -3.472 -33.123  1.00  0.00     0.175 C 
BRANCH  28  29
HETATM   29  C   UNL     1      -3.419  -4.943 -33.529  1.00  0.00     0.022 C 
HETATM   30  C   UNL     1      -4.700  -5.301 -34.260  1.00  0.00     0.007 C 
ENDBRANCH  28  29
ENDBRANCH  27  28
ENDBRANCH  24  27
ENDBRANCH   1  21
TORSDOF 8
ENDMDL
MODEL 6
REMARK VINA RESULT:      -7.2     10.926     13.420
REMARK  8 active torsions:
REMARK  status: ('A' for Active; 'I' for Inactive)
REMARK    1  A    between atoms: C_2  and  C_3 
REMARK    2  A    between atoms: C_3  and  O_4 
REMARK    3  A    between atoms: O_4  and  C_5 
REMARK    4  A    between atoms: C_8  and  C_9 
REMARK    5  A    between atoms: C_13  and  C_14 
REMARK       I    between atoms: C_14  and  N_15 
REMARK    6  A    between atoms: N_15  and  N_16 
REMARK    7  A    between atoms: C_17  and  C_18 
REMARK    8  A    between atoms: C_21  and  O_22 
ROOT
HETATM    1  C   UNL     1     -12.034   4.543 -34.812  1.00  0.00     0.089 A 
HETATM    2  N   UNL     1     -12.875   4.087 -33.871  1.00  0.00    -0.174 NA
HETATM    3  N   UNL     1     -12.393   2.880 -33.541  1.00  0.00    -0.272 N 
HETATM    4  H   UNL     1     -12.875   2.331 -32.834  1.00  0.00     0.189 HD
HETATM    5  C   UNL     1     -11.251   2.530 -34.205  1.00  0.00     0.121 A 
HETATM    6  C   UNL     1     -11.004   3.590 -35.055  1.00  0.00     0.071 A 
ENDROOT
BRANCH   5   7
HETATM    7  C   UNL     1     -10.579   1.284 -33.929  1.00  0.00     0.289 C 
HETATM    8  N   UNL     1      -9.287   1.204 -34.426  1.00  0.00    -0.242 N 
HETATM    9  H   UNL     1      -8.885   1.978 -34.934  1.00  0.00     0.192 HD
HETATM   10  O   UNL     1     -11.135   0.392 -33.293  1.00  0.00    -0.264 OA
BRANCH   8  11
HETATM   11  N   UNL     1      -8.523   0.099 -34.184  1.00  0.00    -0.184 NA
HETATM   12  C   UNL     1      -7.333   0.119 -34.693  1.00  0.00     0.150 C 
BRANCH  12  13
HETATM   13  C   UNL     1      -6.387  -0.999 -34.506  1.00  0.00    -0.017 A 
HETATM   14  C   UNL     1      -5.187  -0.815 -33.819  1.00  0.00     0.016 A 
HETATM   15  C   UNL     1      -4.313  -1.893 -33.656  1.00  0.00     0.037 A 
HETATM   16  C   UNL     1      -4.632  -3.154 -34.168  1.00  0.00     0.068 A 
HETATM   17  C   UNL     1      -5.832  -3.329 -34.860  1.00  0.00     0.037 A 
HETATM   18  C   UNL     1      -6.711  -2.253 -35.031  1.00  0.00     0.016 A 
BRANCH  16  19
HETATM   19  O   UNL     1      -3.693  -4.120 -33.932  1.00  0.00    -0.356 OA
HETATM   20  C   UNL     1      -3.283  -4.304 -32.583  1.00  0.00     0.210 C 
ENDBRANCH  16  19
ENDBRANCH  12  13
ENDBRANCH   8  11
ENDBRANCH   5   7
BRANCH   1  21
HETATM   21  C   UNL     1     -12.204   5.862 -35.426  1.00  0.00    -0.005 A 
HETATM   22  C   UNL     1     -13.445   6.244 -35.955  1.00  0.00     0.016 A 
HETATM   23  C   UNL     1     -13.635   7.519 -36.504  1.00  0.00     0.037 A 
HETATM   24  C   UNL     1     -12.581   8.430 -36.535  1.00  0.00     0.068 A 
HETATM   25  C   UNL     1     -11.335   8.047 -36.037  1.00  0.00     0.037 A 
HETATM   26  C   UNL     1     -11.145   6.776 -35.482  1.00  0.00     0.016 A 
BRANCH  24  27
HETATM   27  O   UNL     1     -12.634   9.704 -37.027  1.00  0.00    -0.351 OA
BRANCH  27  28
HETATM   28  C   UNL     1     -13.190   9.869 -38.332  1.00  0.00     0.175 C 
BRANCH  28  29
HETATM   29  C   UNL     1     -12.163   9.368 -39.343  1.00  0.00     0.022 C 
HETATM   30  C   UNL     1     -11.347  10.505 -39.931  1.00  0.00     0.007 C 
ENDBRANCH  28  29
ENDBRANCH  27  28
ENDBRANCH  24  27
ENDBRANCH   1  21
TORSDOF 8
ENDMDL
MODEL 7
REMARK VINA RESULT:      -7.2      2.036     12.395
REMARK  8 active torsions:
REMARK  status: ('A' for Active; 'I' for Inactive)
REMARK    1  A    between atoms: C_2  and  C_3 
REMARK    2  A    between atoms: C_3  and  O_4 
REMARK    3  A    between atoms: O_4  and  C_5 
REMARK    4  A    between atoms: C_8  and  C_9 
REMARK    5  A    between atoms: C_13  and  C_14 
REMARK       I    between atoms: C_14  and  N_15 
REMARK    6  A    between atoms: N_15  and  N_16 
REMARK    7  A    between atoms: C_17  and  C_18 
REMARK    8  A    between atoms: C_21  and  O_22 
ROOT
HETATM    1  C   UNL     1      -4.993   3.346 -32.768  1.00  0.00     0.089 A 
HETATM    2  N   UNL     1      -4.251   4.139 -33.555  1.00  0.00    -0.174 NA
HETATM    3  N   UNL     1      -3.889   5.160 -32.763  1.00  0.00    -0.272 N 
HETATM    4  H   UNL     1      -3.312   5.903 -33.148  1.00  0.00     0.189 HD
HETATM    5  C   UNL     1      -4.336   5.059 -31.476  1.00  0.00     0.121 A 
HETATM    6  C   UNL     1      -5.076   3.893 -31.455  1.00  0.00     0.071 A 
ENDROOT
BRANCH   5   7
HETATM    7  C   UNL     1      -3.992   6.050 -30.486  1.00  0.00     0.289 C 
HETATM    8  N   UNL     1      -2.660   6.043 -30.103  1.00  0.00    -0.242 N 
HETATM    9  H   UNL     1      -2.014   5.380 -30.508  1.00  0.00     0.192 HD
HETATM   10  O   UNL     1      -4.837   6.827 -30.050  1.00  0.00    -0.264 OA
BRANCH   8  11
HETATM   11  N   UNL     1      -2.193   6.968 -29.215  1.00  0.00    -0.184 NA
HETATM   12  C   UNL     1      -0.922   7.205 -29.270  1.00  0.00     0.150 C 
BRANCH  12  13
HETATM   13  C   UNL     1      -0.274   8.189 -28.380  1.00  0.00    -0.017 A 
HETATM   14  C   UNL     1       1.096   8.134 -28.126  1.00  0.00     0.016 A 
HETATM   15  C   UNL     1       1.680   9.080 -27.281  1.00  0.00     0.037 A 
HETATM   16  C   UNL     1       0.908  10.086 -26.693  1.00  0.00     0.068 A 
HETATM   17  C   UNL     1      -0.465  10.131 -26.946  1.00  0.00     0.037 A 
HETATM   18  C   UNL     1      -1.058   9.184 -27.788  1.00  0.00     0.016 A 
BRANCH  16  19
HETATM   19  O   UNL     1       1.606  10.948 -25.894  1.00  0.00    -0.356 OA
HETATM   20  C   UNL     1       1.888  10.516 -24.569  1.00  0.00     0.210 C 
ENDBRANCH  16  19
ENDBRANCH  12  13
ENDBRANCH   8  11
ENDBRANCH   5   7
BRANCH   1  21
HETATM   21  C   UNL     1      -5.569   2.092 -33.259  1.00  0.00    -0.005 A 
HETATM   22  C   UNL     1      -6.573   2.107 -34.238  1.00  0.00     0.016 A 
HETATM   23  C   UNL     1      -7.101   0.915 -34.749  1.00  0.00     0.037 A 
HETATM   24  C   UNL     1      -6.634  -0.313 -34.284  1.00  0.00     0.068 A 
HETATM   25  C   UNL     1      -5.656  -0.337 -33.290  1.00  0.00     0.037 A 
HETATM   26  C   UNL     1      -5.122   0.853 -32.781  1.00  0.00     0.016 A 
BRANCH  24  27
HETATM   27  O   UNL     1      -7.051  -1.544 -34.707  1.00  0.00    -0.351 OA
BRANCH  27  28
HETATM   28  C   UNL     1      -6.286  -2.668 -34.271  1.00  0.00     0.175 C 
BRANCH  28  29
HETATM   29  C   UNL     1      -6.871  -3.915 -34.928  1.00  0.00     0.022 C 
HETATM   30  C   UNL     1      -5.799  -4.940 -35.251  1.00  0.00     0.007 C 
ENDBRANCH  28  29
ENDBRANCH  27  28
ENDBRANCH  24  27
ENDBRANCH   1  21
TORSDOF 8
ENDMDL
MODEL 8
REMARK VINA RESULT:      -7.1     11.011     13.618
REMARK  8 active torsions:
REMARK  status: ('A' for Active; 'I' for Inactive)
REMARK    1  A    between atoms: C_2  and  C_3 
REMARK    2  A    between atoms: C_3  and  O_4 
REMARK    3  A    between atoms: O_4  and  C_5 
REMARK    4  A    between atoms: C_8  and  C_9 
REMARK    5  A    between atoms: C_13  and  C_14 
REMARK       I    between atoms: C_14  and  N_15 
REMARK    6  A    between atoms: N_15  and  N_16 
REMARK    7  A    between atoms: C_17  and  C_18 
REMARK    8  A    between atoms: C_21  and  O_22 
ROOT
HETATM    1  C   UNL     1     -11.973   4.434 -35.289  1.00  0.00     0.089 A 
HETATM    2  N   UNL     1     -12.872   3.452 -35.458  1.00  0.00    -0.174 NA
HETATM    3  N   UNL     1     -12.241   2.341 -35.053  1.00  0.00    -0.272 N 
HETATM    4  H   UNL     1     -12.732   1.451 -35.091  1.00  0.00     0.189 HD
HETATM    5  C   UNL     1     -10.971   2.550 -34.595  1.00  0.00     0.121 A 
HETATM    6  C   UNL     1     -10.763   3.906 -34.756  1.00  0.00     0.071 A 
ENDROOT
BRANCH   5   7
HETATM    7  C   UNL     1     -10.174   1.464 -34.078  1.00  0.00     0.289 C 
HETATM    8  N   UNL     1      -8.884   1.406 -34.582  1.00  0.00    -0.242 N 
HETATM    9  H   UNL     1      -8.565   2.088 -35.255  1.00  0.00     0.192 HD
HETATM   10  O   UNL     1     -10.634   0.681 -33.252  1.00  0.00    -0.264 OA
BRANCH   8  11
HETATM   11  N   UNL     1      -8.010   0.459 -34.131  1.00  0.00    -0.184 NA
HETATM   12  C   UNL     1      -7.413  -0.233 -35.047  1.00  0.00     0.150 C 
BRANCH  12  13
HETATM   13  C   UNL     1      -6.432  -1.285 -34.713  1.00  0.00    -0.017 A 
HETATM   14  C   UNL     1      -5.285  -0.987 -33.977  1.00  0.00     0.016 A 
HETATM   15  C   UNL     1      -4.376  -2.003 -33.674  1.00  0.00     0.037 A 
HETATM   16  C   UNL     1      -4.607  -3.316 -34.095  1.00  0.00     0.068 A 
HETATM   17  C   UNL     1      -5.755  -3.606 -34.836  1.00  0.00     0.037 A 
HETATM   18  C   UNL     1      -6.668  -2.592 -35.147  1.00  0.00     0.016 A 
BRANCH  16  19
HETATM   19  O   UNL     1      -3.642  -4.212 -33.725  1.00  0.00    -0.356 OA
HETATM   20  C   UNL     1      -3.120  -4.090 -32.408  1.00  0.00     0.210 C 
ENDBRANCH  16  19
ENDBRANCH  12  13
ENDBRANCH   8  11
ENDBRANCH   5   7
BRANCH   1  21
HETATM   21  C   UNL     1     -12.287   5.830 -35.599  1.00  0.00    -0.005 A 
HETATM   22  C   UNL     1     -11.331   6.835 -35.396  1.00  0.00     0.016 A 
HETATM   23  C   UNL     1     -11.601   8.168 -35.730  1.00  0.00     0.037 A 
HETATM   24  C   UNL     1     -12.837   8.516 -36.271  1.00  0.00     0.068 A 
HETATM   25  C   UNL     1     -13.805   7.527 -36.450  1.00  0.00     0.037 A 
HETATM   26  C   UNL     1     -13.535   6.194 -36.121  1.00  0.00     0.016 A 
BRANCH  24  27
HETATM   27  O   UNL     1     -13.223   9.771 -36.652  1.00  0.00    -0.351 OA
BRANCH  27  28
HETATM   28  C   UNL     1     -14.232   9.856 -37.660  1.00  0.00     0.175 C 
BRANCH  28  29
HETATM   29  C   UNL     1     -13.561  10.309 -38.954  1.00  0.00     0.022 C 
HETATM   30  C   UNL     1     -13.187   9.133 -39.839  1.00  0.00     0.007 C 
ENDBRANCH  28  29
ENDBRANCH  27  28
ENDBRANCH  24  27
ENDBRANCH   1  21
TORSDOF 8
ENDMDL
MODEL 9
REMARK VINA RESULT:      -6.9      2.488      3.226
REMARK  8 active torsions:
REMARK  status: ('A' for Active; 'I' for Inactive)
REMARK    1  A    between atoms: C_2  and  C_3 
REMARK    2  A    between atoms: C_3  and  O_4 
REMARK    3  A    between atoms: O_4  and  C_5 
REMARK    4  A    between atoms: C_8  and  C_9 
REMARK    5  A    between atoms: C_13  and  C_14 
REMARK       I    between atoms: C_14  and  N_15 
REMARK    6  A    between atoms: N_15  and  N_16 
REMARK    7  A    between atoms: C_17  and  C_18 
REMARK    8  A    between atoms: C_21  and  O_22 
ROOT
HETATM    1  C   UNL     1      -0.447   6.973 -29.943  1.00  0.00     0.089 A 
HETATM    2  N   UNL     1       0.363   6.679 -30.971  1.00  0.00    -0.174 NA
HETATM    3  N   UNL     1      -0.306   5.755 -31.677  1.00  0.00    -0.272 N 
HETATM    4  H   UNL     1       0.118   5.371 -32.518  1.00  0.00     0.189 HD
HETATM    5  C   UNL     1      -1.538   5.446 -31.173  1.00  0.00     0.121 A 
HETATM    6  C   UNL     1      -1.649   6.213 -30.030  1.00  0.00     0.071 A 
ENDROOT
BRANCH   5   7
HETATM    7  C   UNL     1      -2.404   4.507 -31.842  1.00  0.00     0.289 C 
HETATM    8  N   UNL     1      -3.413   3.986 -31.046  1.00  0.00    -0.242 N 
HETATM    9  H   UNL     1      -3.501   4.267 -30.080  1.00  0.00     0.192 HD
HETATM   10  O   UNL     1      -2.237   4.223 -33.025  1.00  0.00    -0.264 OA
BRANCH   8  11
HETATM   11  N   UNL     1      -4.335   3.129 -31.575  1.00  0.00    -0.184 NA
HETATM   12  C   UNL     1      -5.460   3.056 -30.939  1.00  0.00     0.150 C 
BRANCH  12  13
HETATM   13  C   UNL     1      -6.558   2.182 -31.398  1.00  0.00    -0.017 A 
HETATM   14  C   UNL     1      -7.885   2.609 -31.344  1.00  0.00     0.016 A 
HETATM   15  C   UNL     1      -8.902   1.760 -31.787  1.00  0.00     0.037 A 
HETATM   16  C   UNL     1      -8.603   0.490 -32.290  1.00  0.00     0.068 A 
HETATM   17  C   UNL     1      -7.273   0.067 -32.335  1.00  0.00     0.037 A 
HETATM   18  C   UNL     1      -6.249   0.911 -31.889  1.00  0.00     0.016 A 
BRANCH  16  19
HETATM   19  O   UNL     1      -9.690  -0.234 -32.694  1.00  0.00    -0.356 OA
HETATM   20  C   UNL     1     -10.759   0.489 -33.291  1.00  0.00     0.210 C 
ENDBRANCH  16  19
ENDBRANCH  12  13
ENDBRANCH   8  11
ENDBRANCH   5   7
BRANCH   1  21
HETATM   21  C   UNL     1      -0.085   7.973 -28.936  1.00  0.00    -0.005 A 
HETATM   22  C   UNL     1      -1.029   8.911 -28.496  1.00  0.00     0.016 A 
HETATM   23  C   UNL     1      -0.711   9.845 -27.502  1.00  0.00     0.037 A 
HETATM   24  C   UNL     1       0.562   9.856 -26.936  1.00  0.00     0.068 A 
HETATM   25  C   UNL     1       1.517   8.944 -27.388  1.00  0.00     0.037 A 
HETATM   26  C   UNL     1       1.199   8.007 -28.378  1.00  0.00     0.016 A 
BRANCH  24  27
HETATM   27  O   UNL     1       0.998  10.700 -25.952  1.00  0.00    -0.351 OA
BRANCH  27  28
HETATM   28  C   UNL     1       0.009  11.214 -25.059  1.00  0.00     0.175 C 
BRANCH  28  29
HETATM   29  C   UNL     1      -0.006  10.325 -23.818  1.00  0.00     0.022 C 
HETATM   30  C   UNL     1      -1.388   9.761 -23.543  1.00  0.00     0.007 C 
ENDBRANCH  28  29
ENDBRANCH  27  28
ENDBRANCH  24  27
ENDBRANCH   1  21
TORSDOF 8
ENDMDL
MODEL 10
REMARK VINA RESULT:      -6.8      3.800      5.503
REMARK  8 active torsions:
REMARK  status: ('A' for Active; 'I' for Inactive)
REMARK    1  A    between atoms: C_2  and  C_3 
REMARK    2  A    between atoms: C_3  and  O_4 
REMARK    3  A    between atoms: O_4  and  C_5 
REMARK    4  A    between atoms: C_8  and  C_9 
REMARK    5  A    between atoms: C_13  and  C_14 
REMARK       I    between atoms: C_14  and  N_15 
REMARK    6  A    between atoms: N_15  and  N_16 
REMARK    7  A    between atoms: C_17  and  C_18 
REMARK    8  A    between atoms: C_21  and  O_22 
ROOT
HETATM    1  C   UNL     1      -2.561   6.036 -32.101  1.00  0.00     0.089 A 
HETATM    2  N   UNL     1      -2.700   6.634 -33.294  1.00  0.00    -0.174 NA
HETATM    3  N   UNL     1      -3.695   5.966 -33.896  1.00  0.00    -0.272 N 
HETATM    4  H   UNL     1      -3.983   6.242 -34.830  1.00  0.00     0.189 HD
HETATM    5  C   UNL     1      -4.240   4.967 -33.138  1.00  0.00     0.121 A 
HETATM    6  C   UNL     1      -3.506   4.979 -31.968  1.00  0.00     0.071 A 
ENDROOT
BRANCH   5   7
HETATM    7  C   UNL     1      -5.352   4.186 -33.621  1.00  0.00     0.289 C 
HETATM    8  N   UNL     1      -5.647   3.069 -32.853  1.00  0.00    -0.242 N 
HETATM    9  H   UNL     1      -5.104   2.855 -32.030  1.00  0.00     0.192 HD
HETATM   10  O   UNL     1      -5.970   4.520 -34.628  1.00  0.00    -0.264 OA
BRANCH   8  11
HETATM   11  N   UNL     1      -6.713   2.277 -33.171  1.00  0.00    -0.184 NA
HETATM   12  C   UNL     1      -7.824   2.569 -32.574  1.00  0.00     0.150 C 
BRANCH  12  13
HETATM   13  C   UNL     1      -9.064   1.809 -32.826  1.00  0.00    -0.017 A 
HETATM   14  C   UNL     1     -10.191   2.432 -33.363  1.00  0.00     0.016 A 
HETATM   15  C   UNL     1     -11.350   1.687 -33.591  1.00  0.00     0.037 A 
HETATM   16  C   UNL     1     -11.391   0.322 -33.293  1.00  0.00     0.068 A 
HETATM   17  C   UNL     1     -10.261  -0.295 -32.750  1.00  0.00     0.037 A 
HETATM   18  C   UNL     1      -9.098   0.447 -32.514  1.00  0.00     0.016 A 
BRANCH  16  19
HETATM   19  O   UNL     1     -12.582  -0.288 -33.572  1.00  0.00    -0.356 OA
HETATM   20  C   UNL     1     -13.638   0.544 -34.037  1.00  0.00     0.210 C 
ENDBRANCH  16  19
ENDBRANCH  12  13
ENDBRANCH   8  11
ENDBRANCH   5   7
BRANCH   1  21
HETATM   21  C   UNL     1      -1.576   6.493 -31.119  1.00  0.00    -0.005 A 
HETATM   22  C   UNL     1      -0.204   6.365 -31.378  1.00  0.00     0.016 A 
HETATM   23  C   UNL     1       0.750   6.838 -30.467  1.00  0.00     0.037 A 
HETATM   24  C   UNL     1       0.343   7.443 -29.280  1.00  0.00     0.068 A 
HETATM   25  C   UNL     1      -1.020   7.548 -29.002  1.00  0.00     0.037 A 
HETATM   26  C   UNL     1      -1.975   7.081 -29.912  1.00  0.00     0.016 A 
BRANCH  24  27
HETATM   27  O   UNL     1       1.165   7.958 -28.317  1.00  0.00    -0.351 OA
BRANCH  27  28
HETATM   28  C   UNL     1       1.275   7.219 -27.100  1.00  0.00     0.175 C 
BRANCH  28  29
HETATM   29  C   UNL     1       1.359   8.220 -25.952  1.00  0.00     0.022 C 
HETATM   30  C   UNL     1       1.328   9.654 -26.449  1.00  0.00     0.007 C 
ENDBRANCH  28  29
ENDBRANCH  27  28
ENDBRANCH  24  27
ENDBRANCH   1  21
TORSDOF 8
ENDMDL
