MODEL 1
REMARK VINA RESULT:      -8.3      0.000      0.000
REMARK  5 active torsions:
REMARK  status: ('A' for Active; 'I' for Inactive)
REMARK    1  A    between atoms: C_8  and  C_9 
REMARK    2  A    between atoms: N_10  and  N_11 
REMARK       I    between atoms: N_11  and  C_12 
REMARK    3  A    between atoms: C_12  and  C_13 
REMARK    4  A    between atoms: C_13  and  O_14 
REMARK    5  A    between atoms: O_14  and  C_15 
ROOT
HETATM    1  N   UNL     1      -9.092   0.821 -34.137  1.00  0.00    -0.246 N 
HETATM    2  C   UNL     1     -10.397   0.727 -33.670  1.00  0.00     0.261 C 
HETATM    3  O   UNL     1     -10.844  -0.137 -32.918  1.00  0.00    -0.269 OA
HETATM    4  H   UNL     1      -8.828   1.701 -34.577  1.00  0.00     0.192 HD
ENDROOT
BRANCH   1   5
HETATM    5  N   UNL     1      -8.023   0.039 -33.768  1.00  0.00    -0.184 NA
HETATM    6  C   UNL     1      -6.980  -0.011 -34.533  1.00  0.00     0.152 C 
BRANCH   6   7
HETATM    7  C   UNL     1      -5.870  -0.873 -34.176  1.00  0.00     0.011 A 
HETATM    8  C   UNL     1      -5.782  -2.287 -34.387  1.00  0.00     0.004 A 
HETATM    9  C   UNL     1      -6.647  -3.254 -34.944  1.00  0.00     0.014 A 
HETATM   10  C   UNL     1      -4.546  -2.709 -33.893  1.00  0.00     0.043 A 
HETATM   11  C   UNL     1      -6.249  -4.595 -34.986  1.00  0.00     0.001 A 
HETATM   12  C   UNL     1      -5.008  -4.982 -34.487  1.00  0.00     0.002 A 
HETATM   13  C   UNL     1      -4.131  -4.046 -33.932  1.00  0.00     0.030 A 
HETATM   14  N   UNL     1      -3.906  -1.595 -33.402  1.00  0.00    -0.364 N 
HETATM   15  H   UNL     1      -2.989  -1.602 -32.978  1.00  0.00     0.165 HD
HETATM   16  C   UNL     1      -4.693  -0.487 -33.559  1.00  0.00     0.102 A 
ENDBRANCH   6   7
ENDBRANCH   1   5
BRANCH   2  17
HETATM   17  C   UNL     1     -11.317   1.802 -34.247  1.00  0.00     0.280 C 
BRANCH  17  18
HETATM   18  O   UNL     1     -11.761   2.711 -33.244  1.00  0.00    -0.341 OA
BRANCH  18  19
HETATM   19  C   UNL     1     -13.097   2.643 -32.936  1.00  0.00     0.086 A 
HETATM   20  C   UNL     1     -13.639   3.679 -32.158  1.00  0.00     0.045 A 
HETATM   21 BR   UNL     1     -12.560   5.112 -31.534  1.00  0.00    -0.048 Br
HETATM   22  C   UNL     1     -14.991   3.673 -31.805  1.00  0.00     0.046 A 
HETATM   23  C   UNL     1     -15.809   2.636 -32.242  1.00  0.00     0.035 A 
HETATM   24 CL   UNL     1     -17.474   2.616 -31.807  1.00  0.00    -0.084 Cl
HETATM   25  C   UNL     1     -15.292   1.614 -33.035  1.00  0.00     0.026 A 
HETATM   26  C   UNL     1     -13.939   1.621 -33.387  1.00  0.00     0.040 A 
ENDBRANCH  18  19
ENDBRANCH  17  18
ENDBRANCH   2  17
TORSDOF 5
ENDMDL
MODEL 2
REMARK VINA RESULT:      -8.3      7.770     10.166
REMARK  5 active torsions:
REMARK  status: ('A' for Active; 'I' for Inactive)
REMARK    1  A    between atoms: C_8  and  C_9 
REMARK    2  A    between atoms: N_10  and  N_11 
REMARK       I    between atoms: N_11  and  C_12 
REMARK    3  A    between atoms: C_12  and  C_13 
REMARK    4  A    between atoms: C_13  and  O_14 
REMARK    5  A    between atoms: O_14  and  C_15 
ROOT
HETATM    1  N   UNL     1      -3.035   3.086 -31.142  1.00  0.00    -0.246 N 
HETATM    2  C   UNL     1      -2.702   4.175 -31.935  1.00  0.00     0.261 C 
HETATM    3  O   UNL     1      -2.262   4.136 -33.083  1.00  0.00    -0.269 OA
HETATM    4  H   UNL     1      -3.579   3.282 -30.302  1.00  0.00     0.192 HD
ENDROOT
BRANCH   1   5
HETATM    5  N   UNL     1      -3.046   1.762 -31.514  1.00  0.00    -0.184 NA
HETATM    6  C   UNL     1      -4.021   1.314 -32.239  1.00  0.00     0.152 C 
BRANCH   6   7
HETATM    7  C   UNL     1      -4.064  -0.091 -32.592  1.00  0.00     0.011 A 
HETATM    8  C   UNL     1      -5.035  -0.734 -33.427  1.00  0.00     0.004 A 
HETATM    9  C   UNL     1      -6.182  -0.292 -34.121  1.00  0.00     0.014 A 
HETATM   10  C   UNL     1      -4.697  -2.086 -33.498  1.00  0.00     0.043 A 
HETATM   11  C   UNL     1      -6.943  -1.209 -34.854  1.00  0.00     0.001 A 
HETATM   12  C   UNL     1      -6.577  -2.551 -34.907  1.00  0.00     0.002 A 
HETATM   13  C   UNL     1      -5.445  -3.016 -34.232  1.00  0.00     0.030 A 
HETATM   14  N   UNL     1      -3.563  -2.260 -32.739  1.00  0.00    -0.364 N 
HETATM   15  H   UNL     1      -3.093  -3.145 -32.607  1.00  0.00     0.165 HD
HETATM   16  C   UNL     1      -3.177  -1.071 -32.184  1.00  0.00     0.102 A 
ENDBRANCH   6   7
ENDBRANCH   1   5
BRANCH   2  17
HETATM   17  C   UNL     1      -2.864   5.512 -31.214  1.00  0.00     0.280 C 
BRANCH  17  18
HETATM   18  O   UNL     1      -1.736   6.360 -31.410  1.00  0.00    -0.341 OA
BRANCH  18  19
HETATM   19  C   UNL     1      -0.948   6.557 -30.304  1.00  0.00     0.086 A 
HETATM   20  C   UNL     1      -1.058   7.788 -29.637  1.00  0.00     0.045 A 
HETATM   21 BR   UNL     1      -2.239   9.142 -30.255  1.00  0.00    -0.048 Br
HETATM   22  C   UNL     1      -0.285   8.059 -28.505  1.00  0.00     0.046 A 
HETATM   23  C   UNL     1       0.592   7.090 -28.027  1.00  0.00     0.035 A 
HETATM   24 CL   UNL     1       1.554   7.416 -26.638  1.00  0.00    -0.084 Cl
HETATM   25  C   UNL     1       0.695   5.854 -28.663  1.00  0.00     0.026 A 
HETATM   26  C   UNL     1      -0.078   5.586 -29.796  1.00  0.00     0.040 A 
ENDBRANCH  18  19
ENDBRANCH  17  18
ENDBRANCH   2  17
TORSDOF 5
ENDMDL
MODEL 3
REMARK VINA RESULT:      -8.0      1.443      1.715
REMARK  5 active torsions:
REMARK  status: ('A' for Active; 'I' for Inactive)
REMARK    1  A    between atoms: C_8  and  C_9 
REMARK    2  A    between atoms: N_10  and  N_11 
REMARK       I    between atoms: N_11  and  C_12 
REMARK    3  A    between atoms: C_12  and  C_13 
REMARK    4  A    between atoms: C_13  and  O_14 
REMARK    5  A    between atoms: O_14  and  C_15 
ROOT
HETATM    1  N   UNL     1      -8.328   1.897 -33.750  1.00  0.00    -0.246 N 
HETATM    2  C   UNL     1      -9.549   1.739 -33.107  1.00  0.00     0.261 C 
HETATM    3  O   UNL     1      -9.866   0.816 -32.359  1.00  0.00    -0.269 OA
HETATM    4  H   UNL     1      -8.145   2.811 -34.163  1.00  0.00     0.192 HD
ENDROOT
BRANCH   1   5
HETATM    5  N   UNL     1      -7.204   1.121 -33.596  1.00  0.00    -0.184 NA
HETATM    6  C   UNL     1      -7.124  -0.012 -34.216  1.00  0.00     0.152 C 
BRANCH   6   7
HETATM    7  C   UNL     1      -5.964  -0.858 -34.018  1.00  0.00     0.011 A 
HETATM    8  C   UNL     1      -5.872  -2.262 -34.290  1.00  0.00     0.004 A 
HETATM    9  C   UNL     1      -6.775  -3.229 -34.782  1.00  0.00     0.014 A 
HETATM   10  C   UNL     1      -4.581  -2.670 -33.953  1.00  0.00     0.043 A 
HETATM   11  C   UNL     1      -6.358  -4.558 -34.918  1.00  0.00     0.001 A 
HETATM   12  C   UNL     1      -5.061  -4.932 -34.576  1.00  0.00     0.002 A 
HETATM   13  C   UNL     1      -4.146  -3.995 -34.088  1.00  0.00     0.030 A 
HETATM   14  N   UNL     1      -3.911  -1.559 -33.496  1.00  0.00    -0.364 N 
HETATM   15  H   UNL     1      -2.952  -1.558 -33.179  1.00  0.00     0.165 HD
HETATM   16  C   UNL     1      -4.733  -0.466 -33.523  1.00  0.00     0.102 A 
ENDBRANCH   6   7
ENDBRANCH   1   5
BRANCH   2  17
HETATM   17  C   UNL     1     -10.561   2.825 -33.468  1.00  0.00     0.280 C 
BRANCH  17  18
HETATM   18  O   UNL     1     -11.725   2.280 -34.082  1.00  0.00    -0.341 OA
BRANCH  18  19
HETATM   19  C   UNL     1     -12.918   2.638 -33.504  1.00  0.00     0.086 A 
HETATM   20  C   UNL     1     -13.854   1.621 -33.261  1.00  0.00     0.045 A 
HETATM   21 BR   UNL     1     -13.494  -0.184 -33.732  1.00  0.00    -0.048 Br
HETATM   22  C   UNL     1     -15.090   1.912 -32.677  1.00  0.00     0.046 A 
HETATM   23  C   UNL     1     -15.387   3.224 -32.322  1.00  0.00     0.035 A 
HETATM   24 CL   UNL     1     -16.909   3.596 -31.610  1.00  0.00    -0.084 Cl
HETATM   25  C   UNL     1     -14.460   4.242 -32.535  1.00  0.00     0.026 A 
HETATM   26  C   UNL     1     -13.224   3.948 -33.120  1.00  0.00     0.040 A 
ENDBRANCH  18  19
ENDBRANCH  17  18
ENDBRANCH   2  17
TORSDOF 5
ENDMDL
MODEL 4
REMARK VINA RESULT:      -7.9      7.569      9.914
REMARK  5 active torsions:
REMARK  status: ('A' for Active; 'I' for Inactive)
REMARK    1  A    between atoms: C_8  and  C_9 
REMARK    2  A    between atoms: N_10  and  N_11 
REMARK       I    between atoms: N_11  and  C_12 
REMARK    3  A    between atoms: C_12  and  C_13 
REMARK    4  A    between atoms: C_13  and  O_14 
REMARK    5  A    between atoms: O_14  and  C_15 
ROOT
HETATM    1  N   UNL     1      -3.520   2.949 -31.931  1.00  0.00    -0.246 N 
HETATM    2  C   UNL     1      -2.917   4.044 -32.537  1.00  0.00     0.261 C 
HETATM    3  O   UNL     1      -3.131   4.459 -33.674  1.00  0.00    -0.269 OA
HETATM    4  H   UNL     1      -3.394   2.859 -30.923  1.00  0.00     0.192 HD
ENDROOT
BRANCH   1   5
HETATM    5  N   UNL     1      -4.546   2.185 -32.435  1.00  0.00    -0.184 NA
HETATM    6  C   UNL     1      -4.528   0.903 -32.259  1.00  0.00     0.152 C 
BRANCH   6   7
HETATM    7  C   UNL     1      -5.581   0.086 -32.831  1.00  0.00     0.011 A 
HETATM    8  C   UNL     1      -5.419  -1.163 -33.513  1.00  0.00     0.004 A 
HETATM    9  C   UNL     1      -4.306  -1.962 -33.852  1.00  0.00     0.014 A 
HETATM   10  C   UNL     1      -6.689  -1.599 -33.896  1.00  0.00     0.043 A 
HETATM   11  C   UNL     1      -4.500  -3.156 -34.556  1.00  0.00     0.001 A 
HETATM   12  C   UNL     1      -5.780  -3.563 -34.920  1.00  0.00     0.002 A 
HETATM   13  C   UNL     1      -6.901  -2.793 -34.596  1.00  0.00     0.030 A 
HETATM   14  N   UNL     1      -7.589  -0.653 -33.463  1.00  0.00    -0.364 N 
HETATM   15  H   UNL     1      -8.588  -0.706 -33.604  1.00  0.00     0.165 HD
HETATM   16  C   UNL     1      -6.935   0.368 -32.828  1.00  0.00     0.102 A 
ENDBRANCH   6   7
ENDBRANCH   1   5
BRANCH   2  17
HETATM   17  C   UNL     1      -1.849   4.699 -31.662  1.00  0.00     0.280 C 
BRANCH  17  18
HETATM   18  O   UNL     1      -2.367   5.812 -30.940  1.00  0.00    -0.341 OA
BRANCH  18  19
HETATM   19  C   UNL     1      -1.452   6.501 -30.184  1.00  0.00     0.086 A 
HETATM   20  C   UNL     1      -1.927   7.196 -29.060  1.00  0.00     0.045 A 
HETATM   21 BR   UNL     1      -3.773   7.201 -28.612  1.00  0.00    -0.048 Br
HETATM   22  C   UNL     1      -1.052   7.920 -28.245  1.00  0.00     0.046 A 
HETATM   23  C   UNL     1       0.306   7.940 -28.547  1.00  0.00     0.035 A 
HETATM   24 CL   UNL     1       1.391   8.835 -27.555  1.00  0.00    -0.084 Cl
HETATM   25  C   UNL     1       0.797   7.236 -29.644  1.00  0.00     0.026 A 
HETATM   26  C   UNL     1      -0.080   6.513 -30.458  1.00  0.00     0.040 A 
ENDBRANCH  18  19
ENDBRANCH  17  18
ENDBRANCH   2  17
TORSDOF 5
ENDMDL
MODEL 5
REMARK VINA RESULT:      -7.8      1.877      2.221
REMARK  5 active torsions:
REMARK  status: ('A' for Active; 'I' for Inactive)
REMARK    1  A    between atoms: C_8  and  C_9 
REMARK    2  A    between atoms: N_10  and  N_11 
REMARK       I    between atoms: N_11  and  C_12 
REMARK    3  A    between atoms: C_12  and  C_13 
REMARK    4  A    between atoms: C_13  and  O_14 
REMARK    5  A    between atoms: O_14  and  C_15 
ROOT
HETATM    1  N   UNL     1      -8.398   1.064 -32.300  1.00  0.00    -0.246 N 
HETATM    2  C   UNL     1      -8.342   2.378 -31.856  1.00  0.00     0.261 C 
HETATM    3  O   UNL     1      -7.376   2.932 -31.334  1.00  0.00    -0.269 OA
HETATM    4  H   UNL     1      -9.189   0.816 -32.894  1.00  0.00     0.192 HD
ENDROOT
BRANCH   1   5
HETATM    5  N   UNL     1      -7.362   0.160 -32.347  1.00  0.00    -0.184 NA
HETATM    6  C   UNL     1      -6.697   0.015 -33.448  1.00  0.00     0.152 C 
BRANCH   6   7
HETATM    7  C   UNL     1      -5.637  -0.972 -33.519  1.00  0.00     0.011 A 
HETATM    8  C   UNL     1      -5.742  -2.304 -34.035  1.00  0.00     0.004 A 
HETATM    9  C   UNL     1      -6.795  -3.064 -34.589  1.00  0.00     0.014 A 
HETATM   10  C   UNL     1      -4.487  -2.902 -33.910  1.00  0.00     0.043 A 
HETATM   11  C   UNL     1      -6.557  -4.383 -34.993  1.00  0.00     0.001 A 
HETATM   12  C   UNL     1      -5.292  -4.949 -34.857  1.00  0.00     0.002 A 
HETATM   13  C   UNL     1      -4.231  -4.218 -34.315  1.00  0.00     0.030 A 
HETATM   14  N   UNL     1      -3.649  -1.970 -33.342  1.00  0.00    -0.364 N 
HETATM   15  H   UNL     1      -2.674  -2.129 -33.131  1.00  0.00     0.165 HD
HETATM   16  C   UNL     1      -4.330  -0.809 -33.096  1.00  0.00     0.102 A 
ENDBRANCH   6   7
ENDBRANCH   1   5
BRANCH   2  17
HETATM   17  C   UNL     1      -9.670   3.118 -32.006  1.00  0.00     0.280 C 
BRANCH  17  18
HETATM   18  O   UNL     1     -10.112   3.142 -33.360  1.00  0.00    -0.341 OA
BRANCH  18  19
HETATM   19  C   UNL     1     -11.305   2.508 -33.601  1.00  0.00     0.086 A 
HETATM   20  C   UNL     1     -12.420   3.309 -33.897  1.00  0.00     0.045 A 
HETATM   21 BR   UNL     1     -12.289   5.203 -33.941  1.00  0.00    -0.048 Br
HETATM   22  C   UNL     1     -13.667   2.731 -34.151  1.00  0.00     0.046 A 
HETATM   23  C   UNL     1     -13.799   1.347 -34.124  1.00  0.00     0.035 A 
HETATM   24 CL   UNL     1     -15.331   0.626 -34.429  1.00  0.00    -0.084 Cl
HETATM   25  C   UNL     1     -12.697   0.537 -33.857  1.00  0.00     0.026 A 
HETATM   26  C   UNL     1     -11.451   1.116 -33.601  1.00  0.00     0.040 A 
ENDBRANCH  18  19
ENDBRANCH  17  18
ENDBRANCH   2  17
TORSDOF 5
ENDMDL
MODEL 6
REMARK VINA RESULT:      -7.7      6.375      8.948
REMARK  5 active torsions:
REMARK  status: ('A' for Active; 'I' for Inactive)
REMARK    1  A    between atoms: C_8  and  C_9 
REMARK    2  A    between atoms: N_10  and  N_11 
REMARK       I    between atoms: N_11  and  C_12 
REMARK    3  A    between atoms: C_12  and  C_13 
REMARK    4  A    between atoms: C_13  and  O_14 
REMARK    5  A    between atoms: O_14  and  C_15 
ROOT
HETATM    1  N   UNL     1      -5.922   3.506 -33.807  1.00  0.00    -0.246 N 
HETATM    2  C   UNL     1      -6.861   3.245 -32.817  1.00  0.00     0.261 C 
HETATM    3  O   UNL     1      -6.932   3.790 -31.717  1.00  0.00    -0.269 OA
HETATM    4  H   UNL     1      -6.120   3.129 -34.734  1.00  0.00     0.192 HD
ENDROOT
BRANCH   1   5
HETATM    5  N   UNL     1      -4.962   4.490 -33.800  1.00  0.00    -0.184 NA
HETATM    6  C   UNL     1      -3.778   4.219 -33.353  1.00  0.00     0.152 C 
BRANCH   6   7
HETATM    7  C   UNL     1      -2.777   5.266 -33.296  1.00  0.00     0.011 A 
HETATM    8  C   UNL     1      -1.751   5.415 -32.306  1.00  0.00     0.004 A 
HETATM    9  C   UNL     1      -1.387   4.692 -31.151  1.00  0.00     0.014 A 
HETATM   10  C   UNL     1      -1.015   6.555 -32.635  1.00  0.00     0.043 A 
HETATM   11  C   UNL     1      -0.309   5.129 -30.372  1.00  0.00     0.001 A 
HETATM   12  C   UNL     1       0.407   6.268 -30.730  1.00  0.00     0.002 A 
HETATM   13  C   UNL     1       0.069   7.003 -31.870  1.00  0.00     0.030 A 
HETATM   14  N   UNL     1      -1.568   7.077 -33.781  1.00  0.00    -0.364 N 
HETATM   15  H   UNL     1      -1.237   7.909 -34.249  1.00  0.00     0.165 HD
HETATM   16  C   UNL     1      -2.632   6.317 -34.183  1.00  0.00     0.102 A 
ENDBRANCH   6   7
ENDBRANCH   1   5
BRANCH   2  17
HETATM   17  C   UNL     1      -7.821   2.115 -33.185  1.00  0.00     0.280 C 
BRANCH  17  18
HETATM   18  O   UNL     1      -7.620   0.964 -32.370  1.00  0.00    -0.341 OA
BRANCH  18  19
HETATM   19  C   UNL     1      -6.876  -0.039 -32.939  1.00  0.00     0.086 A 
HETATM   20  C   UNL     1      -5.656  -0.372 -32.328  1.00  0.00     0.045 A 
HETATM   21 BR   UNL     1      -5.046   0.546 -30.780  1.00  0.00    -0.048 Br
HETATM   22  C   UNL     1      -4.846  -1.381 -32.854  1.00  0.00     0.046 A 
HETATM   23  C   UNL     1      -5.261  -2.071 -33.988  1.00  0.00     0.035 A 
HETATM   24 CL   UNL     1      -4.267  -3.311 -34.648  1.00  0.00    -0.084 Cl
HETATM   25  C   UNL     1      -6.479  -1.770 -34.593  1.00  0.00     0.026 A 
HETATM   26  C   UNL     1      -7.288  -0.759 -34.066  1.00  0.00     0.040 A 
ENDBRANCH  18  19
ENDBRANCH  17  18
ENDBRANCH   2  17
TORSDOF 5
ENDMDL
MODEL 7
REMARK VINA RESULT:      -7.6      7.561      9.641
REMARK  5 active torsions:
REMARK  status: ('A' for Active; 'I' for Inactive)
REMARK    1  A    between atoms: C_8  and  C_9 
REMARK    2  A    between atoms: N_10  and  N_11 
REMARK       I    between atoms: N_11  and  C_12 
REMARK    3  A    between atoms: C_12  and  C_13 
REMARK    4  A    between atoms: C_13  and  O_14 
REMARK    5  A    between atoms: O_14  and  C_15 
ROOT
HETATM    1  N   UNL     1      -4.273   3.720 -30.865  1.00  0.00    -0.246 N 
HETATM    2  C   UNL     1      -5.103   4.484 -30.055  1.00  0.00     0.261 C 
HETATM    3  O   UNL     1      -6.132   4.105 -29.498  1.00  0.00    -0.269 OA
HETATM    4  H   UNL     1      -3.357   4.112 -31.078  1.00  0.00     0.192 HD
ENDROOT
BRANCH   1   5
HETATM    5  N   UNL     1      -4.374   2.371 -31.116  1.00  0.00    -0.184 NA
HETATM    6  C   UNL     1      -3.719   1.860 -32.108  1.00  0.00     0.152 C 
BRANCH   6   7
HETATM    7  C   UNL     1      -3.860   0.448 -32.409  1.00  0.00     0.011 A 
HETATM    8  C   UNL     1      -4.845  -0.151 -33.260  1.00  0.00     0.004 A 
HETATM    9  C   UNL     1      -5.923   0.351 -34.021  1.00  0.00     0.014 A 
HETATM   10  C   UNL     1      -4.614  -1.527 -33.263  1.00  0.00     0.043 A 
HETATM   11  C   UNL     1      -6.724  -0.534 -34.751  1.00  0.00     0.001 A 
HETATM   12  C   UNL     1      -6.465  -1.902 -34.736  1.00  0.00     0.002 A 
HETATM   13  C   UNL     1      -5.403  -2.425 -33.993  1.00  0.00     0.030 A 
HETATM   14  N   UNL     1      -3.531  -1.758 -32.448  1.00  0.00    -0.364 N 
HETATM   15  H   UNL     1      -3.138  -2.670 -32.261  1.00  0.00     0.165 HD
HETATM   16  C   UNL     1      -3.073  -0.580 -31.923  1.00  0.00     0.102 A 
ENDBRANCH   6   7
ENDBRANCH   1   5
BRANCH   2  17
HETATM   17  C   UNL     1      -4.658   5.942 -29.950  1.00  0.00     0.280 C 
BRANCH  17  18
HETATM   18  O   UNL     1      -3.541   6.216 -30.790  1.00  0.00    -0.341 OA
BRANCH  18  19
HETATM   19  C   UNL     1      -2.440   6.733 -30.155  1.00  0.00     0.086 A 
HETATM   20  C   UNL     1      -1.176   6.382 -30.657  1.00  0.00     0.045 A 
HETATM   21 BR   UNL     1      -0.994   5.218 -32.148  1.00  0.00    -0.048 Br
HETATM   22  C   UNL     1      -0.010   6.869 -30.060  1.00  0.00     0.046 A 
HETATM   23  C   UNL     1      -0.107   7.721 -28.964  1.00  0.00     0.035 A 
HETATM   24 CL   UNL     1       1.323   8.321 -28.217  1.00  0.00    -0.084 Cl
HETATM   25  C   UNL     1      -1.353   8.098 -28.469  1.00  0.00     0.026 A 
HETATM   26  C   UNL     1      -2.518   7.609 -29.068  1.00  0.00     0.040 A 
ENDBRANCH  18  19
ENDBRANCH  17  18
ENDBRANCH   2  17
TORSDOF 5
ENDMDL
MODEL 8
REMARK VINA RESULT:      -7.6      6.737      9.507
REMARK  5 active torsions:
REMARK  status: ('A' for Active; 'I' for Inactive)
REMARK    1  A    between atoms: C_8  and  C_9 
REMARK    2  A    between atoms: N_10  and  N_11 
REMARK       I    between atoms: N_11  and  C_12 
REMARK    3  A    between atoms: C_12  and  C_13 
REMARK    4  A    between atoms: C_13  and  O_14 
REMARK    5  A    between atoms: O_14  and  C_15 
ROOT
HETATM    1  N   UNL     1      -5.490   2.503 -31.809  1.00  0.00    -0.246 N 
HETATM    2  C   UNL     1      -6.822   2.115 -31.751  1.00  0.00     0.261 C 
HETATM    3  O   UNL     1      -7.676   2.548 -30.980  1.00  0.00    -0.269 OA
HETATM    4  H   UNL     1      -4.965   2.209 -32.632  1.00  0.00     0.192 HD
ENDROOT
BRANCH   1   5
HETATM    5  N   UNL     1      -4.891   3.517 -31.099  1.00  0.00    -0.184 NA
HETATM    6  C   UNL     1      -4.289   4.468 -31.737  1.00  0.00     0.152 C 
BRANCH   6   7
HETATM    7  C   UNL     1      -3.612   5.513 -30.994  1.00  0.00     0.011 A 
HETATM    8  C   UNL     1      -2.205   5.783 -30.987  1.00  0.00     0.004 A 
HETATM    9  C   UNL     1      -1.087   5.195 -31.617  1.00  0.00     0.014 A 
HETATM   10  C   UNL     1      -1.991   6.871 -30.138  1.00  0.00     0.043 A 
HETATM   11  C   UNL     1       0.192   5.709 -31.377  1.00  0.00     0.001 A 
HETATM   12  C   UNL     1       0.370   6.797 -30.527  1.00  0.00     0.002 A 
HETATM   13  C   UNL     1      -0.719   7.401 -29.892  1.00  0.00     0.030 A 
HETATM   14  N   UNL     1      -3.220   7.249 -29.649  1.00  0.00    -0.364 N 
HETATM   15  H   UNL     1      -3.370   8.014 -29.005  1.00  0.00     0.165 HD
HETATM   16  C   UNL     1      -4.200   6.437 -30.150  1.00  0.00     0.102 A 
ENDBRANCH   6   7
ENDBRANCH   1   5
BRANCH   2  17
HETATM   17  C   UNL     1      -7.161   0.991 -32.728  1.00  0.00     0.280 C 
BRANCH  17  18
HETATM   18  O   UNL     1      -6.061   0.679 -33.578  1.00  0.00    -0.341 OA
BRANCH  18  19
HETATM   19  C   UNL     1      -5.920  -0.649 -33.896  1.00  0.00     0.086 A 
HETATM   20  C   UNL     1      -4.694  -1.263 -33.594  1.00  0.00     0.045 A 
HETATM   21 BR   UNL     1      -3.273  -0.289 -32.793  1.00  0.00    -0.048 Br
HETATM   22  C   UNL     1      -4.479  -2.612 -33.891  1.00  0.00     0.046 A 
HETATM   23  C   UNL     1      -5.497  -3.354 -34.480  1.00  0.00     0.035 A 
HETATM   24 CL   UNL     1      -5.240  -5.013 -34.857  1.00  0.00    -0.084 Cl
HETATM   25  C   UNL     1      -6.728  -2.766 -34.764  1.00  0.00     0.026 A 
HETATM   26  C   UNL     1      -6.941  -1.416 -34.468  1.00  0.00     0.040 A 
ENDBRANCH  18  19
ENDBRANCH  17  18
ENDBRANCH   2  17
TORSDOF 5
ENDMDL
MODEL 9
REMARK VINA RESULT:      -7.6      4.159      8.996
REMARK  5 active torsions:
REMARK  status: ('A' for Active; 'I' for Inactive)
REMARK    1  A    between atoms: C_8  and  C_9 
REMARK    2  A    between atoms: N_10  and  N_11 
REMARK       I    between atoms: N_11  and  C_12 
REMARK    3  A    between atoms: C_12  and  C_13 
REMARK    4  A    between atoms: C_13  and  O_14 
REMARK    5  A    between atoms: O_14  and  C_15 
ROOT
HETATM    1  N   UNL     1      -7.959   1.188 -31.937  1.00  0.00    -0.246 N 
HETATM    2  C   UNL     1      -6.826   1.987 -31.840  1.00  0.00     0.261 C 
HETATM    3  O   UNL     1      -6.803   3.213 -31.749  1.00  0.00    -0.269 OA
HETATM    4  H   UNL     1      -7.825   0.188 -31.794  1.00  0.00     0.192 HD
ENDROOT
BRANCH   1   5
HETATM    5  N   UNL     1      -9.269   1.594 -31.841  1.00  0.00    -0.184 NA
HETATM    6  C   UNL     1      -9.860   2.084 -32.883  1.00  0.00     0.152 C 
BRANCH   6   7
HETATM    7  C   UNL     1     -11.225   2.560 -32.775  1.00  0.00     0.011 A 
HETATM    8  C   UNL     1     -12.410   1.860 -33.175  1.00  0.00     0.004 A 
HETATM    9  C   UNL     1     -12.656   0.602 -33.765  1.00  0.00     0.014 A 
HETATM   10  C   UNL     1     -13.500   2.685 -32.893  1.00  0.00     0.043 A 
HETATM   11  C   UNL     1     -13.971   0.217 -34.049  1.00  0.00     0.001 A 
HETATM   12  C   UNL     1     -15.037   1.063 -33.752  1.00  0.00     0.002 A 
HETATM   13  C   UNL     1     -14.822   2.313 -33.166  1.00  0.00     0.030 A 
HETATM   14  N   UNL     1     -12.999   3.841 -32.340  1.00  0.00    -0.364 N 
HETATM   15  H   UNL     1     -13.564   4.623 -32.038  1.00  0.00     0.165 HD
HETATM   16  C   UNL     1     -11.634   3.781 -32.271  1.00  0.00     0.102 A 
ENDBRANCH   6   7
ENDBRANCH   1   5
BRANCH   2  17
HETATM   17  C   UNL     1      -5.525   1.192 -31.928  1.00  0.00     0.280 C 
BRANCH  17  18
HETATM   18  O   UNL     1      -5.183   0.885 -33.277  1.00  0.00    -0.341 OA
BRANCH  18  19
HETATM   19  C   UNL     1      -5.147  -0.452 -33.585  1.00  0.00     0.086 A 
HETATM   20  C   UNL     1      -6.105  -0.937 -34.490  1.00  0.00     0.045 A 
HETATM   21 BR   UNL     1      -7.420   0.209 -35.243  1.00  0.00    -0.048 Br
HETATM   22  C   UNL     1      -6.130  -2.288 -34.849  1.00  0.00     0.046 A 
HETATM   23  C   UNL     1      -5.183  -3.155 -34.313  1.00  0.00     0.035 A 
HETATM   24 CL   UNL     1      -5.209  -4.822 -34.743  1.00  0.00    -0.084 Cl
HETATM   25  C   UNL     1      -4.210  -2.685 -33.433  1.00  0.00     0.026 A 
HETATM   26  C   UNL     1      -4.189  -1.334 -33.075  1.00  0.00     0.040 A 
ENDBRANCH  18  19
ENDBRANCH  17  18
ENDBRANCH   2  17
TORSDOF 5
ENDMDL
MODEL 10
REMARK VINA RESULT:      -7.5      7.331      9.451
REMARK  5 active torsions:
REMARK  status: ('A' for Active; 'I' for Inactive)
REMARK    1  A    between atoms: C_8  and  C_9 
REMARK    2  A    between atoms: N_10  and  N_11 
REMARK       I    between atoms: N_11  and  C_12 
REMARK    3  A    between atoms: C_12  and  C_13 
REMARK    4  A    between atoms: C_13  and  O_14 
REMARK    5  A    between atoms: O_14  and  C_15 
ROOT
HETATM    1  N   UNL     1      -4.260   2.827 -31.748  1.00  0.00    -0.246 N 
HETATM    2  C   UNL     1      -4.535   4.168 -31.980  1.00  0.00     0.261 C 
HETATM    3  O   UNL     1      -4.972   4.655 -33.022  1.00  0.00    -0.269 OA
HETATM    4  H   UNL     1      -4.104   2.554 -30.778  1.00  0.00     0.192 HD
ENDROOT
BRANCH   1   5
HETATM    5  N   UNL     1      -4.522   1.770 -32.588  1.00  0.00    -0.184 NA
HETATM    6  C   UNL     1      -4.636   0.579 -32.093  1.00  0.00     0.152 C 
BRANCH   6   7
HETATM    7  C   UNL     1      -4.862  -0.546 -32.979  1.00  0.00     0.011 A 
HETATM    8  C   UNL     1      -4.266  -1.845 -32.881  1.00  0.00     0.004 A 
HETATM    9  C   UNL     1      -3.336  -2.437 -31.998  1.00  0.00     0.014 A 
HETATM   10  C   UNL     1      -4.762  -2.615 -33.935  1.00  0.00     0.043 A 
HETATM   11  C   UNL     1      -2.941  -3.764 -32.198  1.00  0.00     0.001 A 
HETATM   12  C   UNL     1      -3.458  -4.505 -33.258  1.00  0.00     0.002 A 
HETATM   13  C   UNL     1      -4.380  -3.945 -34.146  1.00  0.00     0.030 A 
HETATM   14  N   UNL     1      -5.629  -1.817 -34.645  1.00  0.00    -0.364 N 
HETATM   15  H   UNL     1      -6.136  -2.112 -35.467  1.00  0.00     0.165 HD
HETATM   16  C   UNL     1      -5.692  -0.570 -34.085  1.00  0.00     0.102 A 
ENDBRANCH   6   7
ENDBRANCH   1   5
BRANCH   2  17
HETATM   17  C   UNL     1      -4.169   5.067 -30.800  1.00  0.00     0.280 C 
BRANCH  17  18
HETATM   18  O   UNL     1      -3.613   6.306 -31.231  1.00  0.00    -0.341 OA
BRANCH  18  19
HETATM   19  C   UNL     1      -2.521   6.740 -30.522  1.00  0.00     0.086 A 
HETATM   20  C   UNL     1      -1.254   6.541 -31.093  1.00  0.00     0.045 A 
HETATM   21 BR   UNL     1      -1.053   5.683 -32.776  1.00  0.00    -0.048 Br
HETATM   22  C   UNL     1      -0.097   6.956 -30.426  1.00  0.00     0.046 A 
HETATM   23  C   UNL     1      -0.208   7.585 -29.190  1.00  0.00     0.035 A 
HETATM   24 CL   UNL     1       1.210   8.093 -28.358  1.00  0.00    -0.084 Cl
HETATM   25  C   UNL     1      -1.459   7.812 -28.622  1.00  0.00     0.026 A 
HETATM   26  C   UNL     1      -2.615   7.395 -29.290  1.00  0.00     0.040 A 
ENDBRANCH  18  19
ENDBRANCH  17  18
ENDBRANCH   2  17
TORSDOF 5
ENDMDL
