MODEL 1
REMARK VINA RESULT:      -7.2      0.000      0.000
REMARK  5 active torsions:
REMARK  status: ('A' for Active; 'I' for Inactive)
REMARK    1  A    between atoms: C_2  and  O_3 
REMARK    2  A    between atoms: O_3  and  C_4 
REMARK    3  A    between atoms: C_4  and  C_5 
REMARK    4  A    between atoms: C_6  and  C_7 
REMARK    5  A    between atoms: C_22  and  N_23 
ROOT
HETATM    1  C   UNL     1      -6.677   2.829 -33.109  1.00  0.00     0.075 A 
HETATM    2  C   UNL     1      -5.372   2.717 -32.565  1.00  0.00     0.008 A 
HETATM    3  C   UNL     1      -4.651   3.914 -32.290  1.00  0.00     0.045 A 
HETATM    4  C   UNL     1      -5.300   5.114 -32.633  1.00  0.00     0.143 A 
HETATM    5  N   UNL     1      -4.639   6.329 -32.526  1.00  0.00    -0.306 N 
HETATM    6  C   UNL     1      -3.342   6.473 -32.148  1.00  0.00     0.268 A 
HETATM    7  O   UNL     1      -2.792   7.567 -32.145  1.00  0.00    -0.266 OA
HETATM    8  C   UNL     1      -2.653   5.240 -31.714  1.00  0.00     0.120 A 
HETATM    9  C   UNL     1      -1.216   5.360 -31.237  1.00  0.00     0.027 C 
HETATM   10  N   UNL     1      -0.022   5.463 -30.841  1.00  0.00    -0.096 N 
HETATM   11  C   UNL     1      -3.261   4.029 -31.716  1.00  0.00     0.046 A 
HETATM   12  N   UNL     1      -6.549   5.219 -33.131  1.00  0.00    -0.234 NA
HETATM   13  C   UNL     1      -7.232   4.079 -33.369  1.00  0.00     0.050 A 
HETATM   14  C   UNL     1      -8.605   4.240 -33.954  1.00  0.00     0.071 C 
HETATM   15  H   UNL     1      -5.143   7.152 -32.829  1.00  0.00     0.170 HD
ENDROOT
BRANCH  11  16
HETATM   16  N   UNL     1      -2.656   2.882 -31.220  1.00  0.00    -0.301 NA
HETATM   17  H   UNL     1      -2.311   2.924 -30.261  1.00  0.00     0.124 HD
HETATM   18  H   UNL     1      -3.184   2.025 -31.362  1.00  0.00     0.124 HD
ENDBRANCH  11  16
BRANCH   2  19
HETATM   19  C   UNL     1      -4.819   1.362 -32.360  1.00  0.00    -0.024 A 
HETATM   20  C   UNL     1      -3.963   0.785 -33.312  1.00  0.00     0.014 A 
HETATM   21  C   UNL     1      -3.430  -0.492 -33.114  1.00  0.00     0.024 A 
HETATM   22  C   UNL     1      -3.760  -1.210 -31.967  1.00  0.00     0.034 A 
HETATM   23 CL   UNL     1      -3.100  -2.779 -31.719  1.00  0.00    -0.084 Cl
HETATM   24  C   UNL     1      -4.620  -0.663 -31.017  1.00  0.00     0.024 A 
HETATM   25  C   UNL     1      -5.149   0.616 -31.213  1.00  0.00     0.014 A 
ENDBRANCH   2  19
BRANCH   1  26
HETATM   26  C   UNL     1      -7.443   1.633 -33.492  1.00  0.00     0.296 C 
HETATM   27  O   UNL     1      -8.240   1.081 -32.757  1.00  0.00    -0.259 OA
BRANCH  26  28
HETATM   28  O   UNL     1      -7.056   1.270 -34.737  1.00  0.00    -0.318 OA
BRANCH  28  29
HETATM   29  C   UNL     1      -7.612   0.045 -35.240  1.00  0.00     0.174 C 
HETATM   30  C   UNL     1      -6.699  -1.101 -34.851  1.00  0.00     0.034 C 
ENDBRANCH  28  29
ENDBRANCH  26  28
ENDBRANCH   1  26
TORSDOF 5
ENDMDL
MODEL 2
REMARK VINA RESULT:      -7.1      3.837      6.876
REMARK  5 active torsions:
REMARK  status: ('A' for Active; 'I' for Inactive)
REMARK    1  A    between atoms: C_2  and  O_3 
REMARK    2  A    between atoms: O_3  and  C_4 
REMARK    3  A    between atoms: C_4  and  C_5 
REMARK    4  A    between atoms: C_6  and  C_7 
REMARK    5  A    between atoms: C_22  and  N_23 
ROOT
HETATM    1  C   UNL     1      -5.376   2.101 -32.296  1.00  0.00     0.075 A 
HETATM    2  C   UNL     1      -6.245   1.103 -32.807  1.00  0.00     0.008 A 
HETATM    3  C   UNL     1      -5.691  -0.163 -33.150  1.00  0.00     0.045 A 
HETATM    4  C   UNL     1      -4.300  -0.289 -32.986  1.00  0.00     0.143 A 
HETATM    5  N   UNL     1      -3.640  -1.435 -33.408  1.00  0.00    -0.306 N 
HETATM    6  C   UNL     1      -4.235  -2.480 -34.041  1.00  0.00     0.268 A 
HETATM    7  O   UNL     1      -3.586  -3.432 -34.457  1.00  0.00    -0.266 OA
HETATM    8  C   UNL     1      -5.705  -2.409 -34.166  1.00  0.00     0.120 A 
HETATM    9  C   UNL     1      -6.418  -3.579 -34.825  1.00  0.00     0.027 C 
HETATM   10  N   UNL     1      -7.008  -4.551 -35.372  1.00  0.00    -0.096 N 
HETATM   11  C   UNL     1      -6.425  -1.358 -33.705  1.00  0.00     0.046 A 
HETATM   12  N   UNL     1      -3.478   0.654 -32.480  1.00  0.00    -0.234 NA
HETATM   13  C   UNL     1      -4.017   1.844 -32.140  1.00  0.00     0.050 A 
HETATM   14  C   UNL     1      -3.061   2.875 -31.613  1.00  0.00     0.071 C 
HETATM   15  H   UNL     1      -2.635  -1.448 -33.303  1.00  0.00     0.170 HD
ENDROOT
BRANCH  11  16
HETATM   16  N   UNL     1      -7.813  -1.326 -33.730  1.00  0.00    -0.301 NA
HETATM   17  H   UNL     1      -8.247  -0.432 -33.959  1.00  0.00     0.124 HD
HETATM   18  H   UNL     1      -8.248  -2.071 -34.268  1.00  0.00     0.124 HD
ENDBRANCH  11  16
BRANCH   2  19
HETATM   19  C   UNL     1      -7.668   1.454 -32.998  1.00  0.00    -0.024 A 
HETATM   20  C   UNL     1      -8.150   1.835 -34.261  1.00  0.00     0.014 A 
HETATM   21  C   UNL     1      -9.497   2.157 -34.446  1.00  0.00     0.024 A 
HETATM   22  C   UNL     1     -10.374   2.113 -33.365  1.00  0.00     0.034 A 
HETATM   23 CL   UNL     1     -12.034   2.501 -33.592  1.00  0.00    -0.084 Cl
HETATM   24  C   UNL     1      -9.915   1.753 -32.100  1.00  0.00     0.024 A 
HETATM   25  C   UNL     1      -8.568   1.427 -31.917  1.00  0.00     0.014 A 
ENDBRANCH   2  19
BRANCH   1  26
HETATM   26  C   UNL     1      -5.868   3.455 -32.001  1.00  0.00     0.296 C 
HETATM   27  O   UNL     1      -6.278   3.797 -30.908  1.00  0.00    -0.259 OA
BRANCH  26  28
HETATM   28  O   UNL     1      -5.819   4.177 -33.144  1.00  0.00    -0.318 OA
BRANCH  28  29
HETATM   29  C   UNL     1      -6.415   5.482 -33.095  1.00  0.00     0.174 C 
HETATM   30  C   UNL     1      -7.866   5.372 -33.521  1.00  0.00     0.034 C 
ENDBRANCH  28  29
ENDBRANCH  26  28
ENDBRANCH   1  26
TORSDOF 5
ENDMDL
MODEL 3
REMARK VINA RESULT:      -7.1      4.010      7.093
REMARK  5 active torsions:
REMARK  status: ('A' for Active; 'I' for Inactive)
REMARK    1  A    between atoms: C_2  and  O_3 
REMARK    2  A    between atoms: O_3  and  C_4 
REMARK    3  A    between atoms: C_4  and  C_5 
REMARK    4  A    between atoms: C_6  and  C_7 
REMARK    5  A    between atoms: C_22  and  N_23 
ROOT
HETATM    1  C   UNL     1      -5.549   1.779 -32.111  1.00  0.00     0.075 A 
HETATM    2  C   UNL     1      -6.369   0.800 -32.728  1.00  0.00     0.008 A 
HETATM    3  C   UNL     1      -5.774  -0.438 -33.105  1.00  0.00     0.045 A 
HETATM    4  C   UNL     1      -4.393  -0.554 -32.864  1.00  0.00     0.143 A 
HETATM    5  N   UNL     1      -3.689  -1.664 -33.307  1.00  0.00    -0.306 N 
HETATM    6  C   UNL     1      -4.227  -2.681 -34.031  1.00  0.00     0.268 A 
HETATM    7  O   UNL     1      -3.537  -3.599 -34.458  1.00  0.00    -0.266 OA
HETATM    8  C   UNL     1      -5.688  -2.624 -34.242  1.00  0.00     0.120 A 
HETATM    9  C   UNL     1      -6.339  -3.765 -35.006  1.00  0.00     0.027 C 
HETATM   10  N   UNL     1      -6.878  -4.713 -35.640  1.00  0.00    -0.096 N 
HETATM   11  C   UNL     1      -6.452  -1.611 -33.769  1.00  0.00     0.046 A 
HETATM   12  N   UNL     1      -3.620   0.371 -32.258  1.00  0.00    -0.234 NA
HETATM   13  C   UNL     1      -4.198   1.532 -31.886  1.00  0.00     0.050 A 
HETATM   14  C   UNL     1      -3.294   2.546 -31.247  1.00  0.00     0.071 C 
HETATM   15  H   UNL     1      -2.692  -1.669 -33.142  1.00  0.00     0.170 HD
ENDROOT
BRANCH  11  16
HETATM   16  N   UNL     1      -7.836  -1.596 -33.876  1.00  0.00    -0.301 NA
HETATM   17  H   UNL     1      -8.261  -2.349 -34.417  1.00  0.00     0.124 HD
HETATM   18  H   UNL     1      -8.332  -1.477 -32.997  1.00  0.00     0.124 HD
ENDBRANCH  11  16
BRANCH   2  19
HETATM   19  C   UNL     1      -7.784   1.140 -32.986  1.00  0.00    -0.024 A 
HETATM   20  C   UNL     1      -8.787   0.772 -32.076  1.00  0.00     0.014 A 
HETATM   21  C   UNL     1     -10.125   1.103 -32.312  1.00  0.00     0.024 A 
HETATM   22  C   UNL     1     -10.472   1.794 -33.470  1.00  0.00     0.034 A 
HETATM   23 CL   UNL     1     -12.116   2.209 -33.759  1.00  0.00    -0.084 Cl
HETATM   24  C   UNL     1      -9.495   2.155 -34.395  1.00  0.00     0.024 A 
HETATM   25  C   UNL     1      -8.157   1.828 -34.155  1.00  0.00     0.014 A 
ENDBRANCH   2  19
BRANCH   1  26
HETATM   26  C   UNL     1      -6.082   3.108 -31.772  1.00  0.00     0.296 C 
HETATM   27  O   UNL     1      -6.023   4.065 -32.520  1.00  0.00    -0.259 OA
BRANCH  26  28
HETATM   28  O   UNL     1      -6.571   3.053 -30.512  1.00  0.00    -0.318 OA
BRANCH  28  29
HETATM   29  C   UNL     1      -7.298   4.208 -30.065  1.00  0.00     0.174 C 
HETATM   30  C   UNL     1      -8.780   3.956 -30.259  1.00  0.00     0.034 C 
ENDBRANCH  28  29
ENDBRANCH  26  28
ENDBRANCH   1  26
TORSDOF 5
ENDMDL
MODEL 4
REMARK VINA RESULT:      -7.1      2.566      4.488
REMARK  5 active torsions:
REMARK  status: ('A' for Active; 'I' for Inactive)
REMARK    1  A    between atoms: C_2  and  O_3 
REMARK    2  A    between atoms: O_3  and  C_4 
REMARK    3  A    between atoms: C_4  and  C_5 
REMARK    4  A    between atoms: C_6  and  C_7 
REMARK    5  A    between atoms: C_22  and  N_23 
ROOT
HETATM    1  C   UNL     1      -4.802   0.943 -32.051  1.00  0.00     0.075 A 
HETATM    2  C   UNL     1      -5.610   2.094 -32.234  1.00  0.00     0.008 A 
HETATM    3  C   UNL     1      -5.052   3.366 -31.923  1.00  0.00     0.045 A 
HETATM    4  C   UNL     1      -3.742   3.354 -31.412  1.00  0.00     0.143 A 
HETATM    5  N   UNL     1      -3.150   4.523 -30.957  1.00  0.00    -0.306 N 
HETATM    6  C   UNL     1      -3.765   5.734 -30.912  1.00  0.00     0.268 A 
HETATM    7  O   UNL     1      -3.215   6.716 -30.430  1.00  0.00    -0.266 OA
HETATM    8  C   UNL     1      -5.117   5.795 -31.506  1.00  0.00     0.120 A 
HETATM    9  C   UNL     1      -5.824   7.140 -31.521  1.00  0.00     0.027 C 
HETATM   10  N   UNL     1      -6.409   8.258 -31.533  1.00  0.00    -0.096 N 
HETATM   11  C   UNL     1      -5.726   4.711 -32.041  1.00  0.00     0.046 A 
HETATM   12  N   UNL     1      -2.968   2.259 -31.258  1.00  0.00    -0.234 NA
HETATM   13  C   UNL     1      -3.499   1.060 -31.575  1.00  0.00     0.050 A 
HETATM   14  C   UNL     1      -2.615  -0.134 -31.356  1.00  0.00     0.071 C 
HETATM   15  H   UNL     1      -2.223   4.442 -30.561  1.00  0.00     0.170 HD
ENDROOT
BRANCH  11  16
HETATM   16  N   UNL     1      -6.953   4.778 -32.688  1.00  0.00    -0.301 NA
HETATM   17  H   UNL     1      -6.946   4.641 -33.699  1.00  0.00     0.124 HD
HETATM   18  H   UNL     1      -7.689   4.218 -32.266  1.00  0.00     0.124 HD
ENDBRANCH  11  16
BRANCH   2  19
HETATM   19  C   UNL     1      -7.001   1.900 -32.694  1.00  0.00    -0.024 A 
HETATM   20  C   UNL     1      -8.051   1.775 -31.769  1.00  0.00     0.014 A 
HETATM   21  C   UNL     1      -9.369   1.602 -32.203  1.00  0.00     0.024 A 
HETATM   22  C   UNL     1      -9.647   1.539 -33.565  1.00  0.00     0.034 A 
HETATM   23 CL   UNL     1     -11.269   1.333 -34.100  1.00  0.00    -0.084 Cl
HETATM   24  C   UNL     1      -8.619   1.643 -34.499  1.00  0.00     0.024 A 
HETATM   25  C   UNL     1      -7.302   1.821 -34.066  1.00  0.00     0.014 A 
ENDBRANCH   2  19
BRANCH   1  26
HETATM   26  C   UNL     1      -5.344  -0.407 -32.275  1.00  0.00     0.296 C 
HETATM   27  O   UNL     1      -5.950  -1.036 -31.429  1.00  0.00    -0.259 OA
BRANCH  26  28
HETATM   28  O   UNL     1      -4.998  -0.793 -33.525  1.00  0.00    -0.318 OA
BRANCH  28  29
HETATM   29  C   UNL     1      -5.571  -2.027 -33.986  1.00  0.00     0.174 C 
HETATM   30  C   UNL     1      -6.897  -1.729 -34.657  1.00  0.00     0.034 C 
ENDBRANCH  28  29
ENDBRANCH  26  28
ENDBRANCH   1  26
TORSDOF 5
ENDMDL
MODEL 5
REMARK VINA RESULT:      -6.9      3.150      3.735
REMARK  5 active torsions:
REMARK  status: ('A' for Active; 'I' for Inactive)
REMARK    1  A    between atoms: C_2  and  O_3 
REMARK    2  A    between atoms: O_3  and  C_4 
REMARK    3  A    between atoms: C_4  and  C_5 
REMARK    4  A    between atoms: C_6  and  C_7 
REMARK    5  A    between atoms: C_22  and  N_23 
ROOT
HETATM    1  C   UNL     1      -8.762   1.933 -32.202  1.00  0.00     0.075 A 
HETATM    2  C   UNL     1      -7.678   2.277 -31.354  1.00  0.00     0.008 A 
HETATM    3  C   UNL     1      -7.843   3.372 -30.458  1.00  0.00     0.045 A 
HETATM    4  C   UNL     1      -9.074   4.047 -30.535  1.00  0.00     0.143 A 
HETATM    5  N   UNL     1      -9.292   5.204 -29.800  1.00  0.00    -0.306 N 
HETATM    6  C   UNL     1      -8.364   5.803 -29.009  1.00  0.00     0.268 A 
HETATM    7  O   UNL     1      -8.592   6.865 -28.442  1.00  0.00    -0.266 OA
HETATM    8  C   UNL     1      -7.084   5.081 -28.852  1.00  0.00     0.120 A 
HETATM    9  C   UNL     1      -6.034   5.691 -27.938  1.00  0.00     0.027 C 
HETATM   10  N   UNL     1      -5.163   6.198 -27.179  1.00  0.00    -0.096 N 
HETATM   11  C   UNL     1      -6.831   3.906 -29.476  1.00  0.00     0.046 A 
HETATM   12  N   UNL     1     -10.112   3.706 -31.327  1.00  0.00    -0.234 NA
HETATM   13  C   UNL     1      -9.952   2.654 -32.158  1.00  0.00     0.050 A 
HETATM   14  C   UNL     1     -11.119   2.330 -33.046  1.00  0.00     0.071 C 
HETATM   15  H   UNL     1     -10.181   5.667 -29.930  1.00  0.00     0.170 HD
ENDROOT
BRANCH  11  16
HETATM   16  N   UNL     1      -5.672   3.172 -29.260  1.00  0.00    -0.301 NA
HETATM   17  H   UNL     1      -5.664   2.215 -29.610  1.00  0.00     0.124 HD
HETATM   18  H   UNL     1      -4.811   3.645 -29.523  1.00  0.00     0.124 HD
ENDBRANCH  11  16
BRANCH   2  19
HETATM   19  C   UNL     1      -6.424   1.507 -31.484  1.00  0.00    -0.024 A 
HETATM   20  C   UNL     1      -6.280   0.259 -30.856  1.00  0.00     0.014 A 
HETATM   21  C   UNL     1      -5.098  -0.476 -30.987  1.00  0.00     0.024 A 
HETATM   22  C   UNL     1      -4.044   0.037 -31.736  1.00  0.00     0.034 A 
HETATM   23 CL   UNL     1      -2.591  -0.869 -31.904  1.00  0.00    -0.084 Cl
HETATM   24  C   UNL     1      -4.158   1.280 -32.354  1.00  0.00     0.024 A 
HETATM   25  C   UNL     1      -5.341   2.013 -32.227  1.00  0.00     0.014 A 
ENDBRANCH   2  19
BRANCH   1  26
HETATM   26  C   UNL     1      -8.629   0.867 -33.206  1.00  0.00     0.296 C 
HETATM   27  O   UNL     1      -9.034  -0.268 -33.038  1.00  0.00    -0.259 OA
BRANCH  26  28
HETATM   28  O   UNL     1      -7.958   1.372 -34.266  1.00  0.00    -0.318 OA
BRANCH  28  29
HETATM   29  C   UNL     1      -7.565   0.429 -35.274  1.00  0.00     0.174 C 
HETATM   30  C   UNL     1      -6.437  -0.426 -34.731  1.00  0.00     0.034 C 
ENDBRANCH  28  29
ENDBRANCH  26  28
ENDBRANCH   1  26
TORSDOF 5
ENDMDL
MODEL 6
REMARK VINA RESULT:      -6.8      2.224      2.744
REMARK  5 active torsions:
REMARK  status: ('A' for Active; 'I' for Inactive)
REMARK    1  A    between atoms: C_2  and  O_3 
REMARK    2  A    between atoms: O_3  and  C_4 
REMARK    3  A    between atoms: C_4  and  C_5 
REMARK    4  A    between atoms: C_6  and  C_7 
REMARK    5  A    between atoms: C_22  and  N_23 
ROOT
HETATM    1  C   UNL     1      -8.184   2.346 -31.501  1.00  0.00     0.075 A 
HETATM    2  C   UNL     1      -6.820   2.233 -31.873  1.00  0.00     0.008 A 
HETATM    3  C   UNL     1      -5.943   3.308 -31.554  1.00  0.00     0.045 A 
HETATM    4  C   UNL     1      -6.536   4.419 -30.927  1.00  0.00     0.143 A 
HETATM    5  N   UNL     1      -5.800   5.571 -30.687  1.00  0.00    -0.306 N 
HETATM    6  C   UNL     1      -4.507   5.754 -31.063  1.00  0.00     0.268 A 
HETATM    7  O   UNL     1      -3.934   6.822 -30.889  1.00  0.00    -0.266 OA
HETATM    8  C   UNL     1      -3.834   4.582 -31.660  1.00  0.00     0.120 A 
HETATM    9  C   UNL     1      -2.373   4.727 -32.052  1.00  0.00     0.027 C 
HETATM   10  N   UNL     1      -1.160   4.848 -32.376  1.00  0.00    -0.096 N 
HETATM   11  C   UNL     1      -4.467   3.400 -31.851  1.00  0.00     0.046 A 
HETATM   12  N   UNL     1      -7.830   4.516 -30.556  1.00  0.00    -0.234 NA
HETATM   13  C   UNL     1      -8.648   3.483 -30.846  1.00  0.00     0.050 A 
HETATM   14  C   UNL     1     -10.086   3.647 -30.446  1.00  0.00     0.071 C 
HETATM   15  H   UNL     1      -6.294   6.351 -30.274  1.00  0.00     0.170 HD
ENDROOT
BRANCH  11  16
HETATM   16  N   UNL     1      -3.818   2.265 -32.321  1.00  0.00    -0.301 NA
HETATM   17  H   UNL     1      -4.394   1.573 -32.799  1.00  0.00     0.124 HD
HETATM   18  H   UNL     1      -2.975   2.447 -32.859  1.00  0.00     0.124 HD
ENDBRANCH  11  16
BRANCH   2  19
HETATM   19  C   UNL     1      -6.399   1.025 -32.612  1.00  0.00    -0.024 A 
HETATM   20  C   UNL     1      -5.815  -0.061 -31.940  1.00  0.00     0.014 A 
HETATM   21  C   UNL     1      -5.427  -1.209 -32.636  1.00  0.00     0.024 A 
HETATM   22  C   UNL     1      -5.607  -1.277 -34.014  1.00  0.00     0.034 A 
HETATM   23 CL   UNL     1      -5.136  -2.691 -34.871  1.00  0.00    -0.084 Cl
HETATM   24  C   UNL     1      -6.169  -0.206 -34.705  1.00  0.00     0.024 A 
HETATM   25  C   UNL     1      -6.562   0.941 -34.008  1.00  0.00     0.014 A 
ENDBRANCH   2  19
BRANCH   1  26
HETATM   26  C   UNL     1      -9.159   1.309 -31.874  1.00  0.00     0.296 C 
HETATM   27  O   UNL     1      -9.303   0.271 -31.257  1.00  0.00    -0.259 OA
BRANCH  26  28
HETATM   28  O   UNL     1      -9.782   1.708 -33.007  1.00  0.00    -0.318 OA
BRANCH  28  29
HETATM   29  C   UNL     1     -10.825   0.849 -33.492  1.00  0.00     0.174 C 
HETATM   30  C   UNL     1     -11.878   1.697 -34.177  1.00  0.00     0.034 C 
ENDBRANCH  28  29
ENDBRANCH  26  28
ENDBRANCH   1  26
TORSDOF 5
ENDMDL
MODEL 7
REMARK VINA RESULT:      -6.7      3.778      6.286
REMARK  5 active torsions:
REMARK  status: ('A' for Active; 'I' for Inactive)
REMARK    1  A    between atoms: C_2  and  O_3 
REMARK    2  A    between atoms: O_3  and  C_4 
REMARK    3  A    between atoms: C_4  and  C_5 
REMARK    4  A    between atoms: C_6  and  C_7 
REMARK    5  A    between atoms: C_22  and  N_23 
ROOT
HETATM    1  C   UNL     1      -7.049   2.948 -31.073  1.00  0.00     0.075 A 
HETATM    2  C   UNL     1      -7.174   1.806 -31.905  1.00  0.00     0.008 A 
HETATM    3  C   UNL     1      -6.099   0.873 -31.936  1.00  0.00     0.045 A 
HETATM    4  C   UNL     1      -4.975   1.205 -31.158  1.00  0.00     0.143 A 
HETATM    5  N   UNL     1      -3.824   0.433 -31.214  1.00  0.00    -0.306 N 
HETATM    6  C   UNL     1      -3.653  -0.641 -32.029  1.00  0.00     0.268 A 
HETATM    7  O   UNL     1      -2.585  -1.238 -32.088  1.00  0.00    -0.266 OA
HETATM    8  C   UNL     1      -4.837  -1.058 -32.808  1.00  0.00     0.120 A 
HETATM    9  C   UNL     1      -4.706  -2.283 -33.697  1.00  0.00     0.027 C 
HETATM   10  N   UNL     1      -4.595  -3.301 -34.434  1.00  0.00    -0.096 N 
HETATM   11  C   UNL     1      -6.019  -0.399 -32.742  1.00  0.00     0.046 A 
HETATM   12  N   UNL     1      -4.867   2.282 -30.351  1.00  0.00    -0.234 NA
HETATM   13  C   UNL     1      -5.900   3.149 -30.313  1.00  0.00     0.050 A 
HETATM   14  C   UNL     1      -5.723   4.350 -29.430  1.00  0.00     0.071 C 
HETATM   15  H   UNL     1      -3.035   0.748 -30.665  1.00  0.00     0.170 HD
ENDROOT
BRANCH  11  16
HETATM   16  N   UNL     1      -7.164  -0.839 -33.394  1.00  0.00    -0.301 NA
HETATM   17  H   UNL     1      -7.619  -1.668 -33.012  1.00  0.00     0.124 HD
HETATM   18  H   UNL     1      -7.855  -0.116 -33.577  1.00  0.00     0.124 HD
ENDBRANCH  11  16
BRANCH   2  19
HETATM   19  C   UNL     1      -8.396   1.675 -32.726  1.00  0.00    -0.024 A 
HETATM   20  C   UNL     1      -9.416   0.784 -32.357  1.00  0.00     0.014 A 
HETATM   21  C   UNL     1     -10.577   0.667 -33.127  1.00  0.00     0.024 A 
HETATM   22  C   UNL     1     -10.723   1.432 -34.281  1.00  0.00     0.034 A 
HETATM   23 CL   UNL     1     -12.154   1.295 -35.225  1.00  0.00    -0.084 Cl
HETATM   24  C   UNL     1      -9.716   2.311 -34.675  1.00  0.00     0.024 A 
HETATM   25  C   UNL     1      -8.557   2.431 -33.902  1.00  0.00     0.014 A 
ENDBRANCH   2  19
BRANCH   1  26
HETATM   26  C   UNL     1      -8.087   3.991 -31.057  1.00  0.00     0.296 C 
HETATM   27  O   UNL     1      -7.980   5.053 -31.639  1.00  0.00    -0.259 OA
BRANCH  26  28
HETATM   28  O   UNL     1      -9.096   3.563 -30.264  1.00  0.00    -0.318 OA
BRANCH  28  29
HETATM   29  C   UNL     1     -10.292   4.357 -30.280  1.00  0.00     0.174 C 
HETATM   30  C   UNL     1     -11.180   3.880 -31.413  1.00  0.00     0.034 C 
ENDBRANCH  28  29
ENDBRANCH  26  28
ENDBRANCH   1  26
TORSDOF 5
ENDMDL
MODEL 8
REMARK VINA RESULT:      -6.6      3.787      6.313
REMARK  5 active torsions:
REMARK  status: ('A' for Active; 'I' for Inactive)
REMARK    1  A    between atoms: C_2  and  O_3 
REMARK    2  A    between atoms: O_3  and  C_4 
REMARK    3  A    between atoms: C_4  and  C_5 
REMARK    4  A    between atoms: C_6  and  C_7 
REMARK    5  A    between atoms: C_22  and  N_23 
ROOT
HETATM    1  C   UNL     1      -8.536   1.714 -32.875  1.00  0.00     0.075 A 
HETATM    2  C   UNL     1      -8.377   3.062 -33.285  1.00  0.00     0.008 A 
HETATM    3  C   UNL     1      -9.489   3.722 -33.881  1.00  0.00     0.045 A 
HETATM    4  C   UNL     1     -10.648   2.942 -34.048  1.00  0.00     0.143 A 
HETATM    5  N   UNL     1     -11.745   3.446 -34.732  1.00  0.00    -0.306 N 
HETATM    6  C   UNL     1     -11.791   4.666 -35.327  1.00  0.00     0.268 A 
HETATM    7  O   UNL     1     -12.763   5.025 -35.980  1.00  0.00    -0.266 OA
HETATM    8  C   UNL     1     -10.618   5.537 -35.111  1.00  0.00     0.120 A 
HETATM    9  C   UNL     1     -10.646   6.929 -35.718  1.00  0.00     0.027 C 
HETATM   10  N   UNL     1     -10.671   8.085 -36.223  1.00  0.00    -0.096 N 
HETATM   11  C   UNL     1      -9.543   5.142 -34.387  1.00  0.00     0.046 A 
HETATM   12  N   UNL     1     -10.804   1.666 -33.638  1.00  0.00    -0.234 NA
HETATM   13  C   UNL     1      -9.750   1.057 -33.056  1.00  0.00     0.050 A 
HETATM   14  C   UNL     1      -9.956  -0.373 -32.646  1.00  0.00     0.071 C 
HETATM   15  H   UNL     1     -12.531   2.822 -34.857  1.00  0.00     0.170 HD
ENDROOT
BRANCH  11  16
HETATM   16  N   UNL     1      -8.479   5.985 -34.096  1.00  0.00    -0.301 NA
HETATM   17  H   UNL     1      -8.614   6.977 -34.290  1.00  0.00     0.124 HD
HETATM   18  H   UNL     1      -8.078   5.864 -33.170  1.00  0.00     0.124 HD
ENDBRANCH  11  16
BRANCH   2  19
HETATM   19  C   UNL     1      -7.049   3.688 -33.113  1.00  0.00    -0.024 A 
HETATM   20  C   UNL     1      -6.121   3.703 -34.166  1.00  0.00     0.014 A 
HETATM   21  C   UNL     1      -4.869   4.305 -34.008  1.00  0.00     0.024 A 
HETATM   22  C   UNL     1      -4.529   4.886 -32.789  1.00  0.00     0.034 A 
HETATM   23 CL   UNL     1      -2.992   5.632 -32.595  1.00  0.00    -0.084 Cl
HETATM   24  C   UNL     1      -5.428   4.868 -31.725  1.00  0.00     0.024 A 
HETATM   25  C   UNL     1      -6.682   4.270 -31.885  1.00  0.00     0.014 A 
ENDBRANCH   2  19
BRANCH   1  26
HETATM   26  C   UNL     1      -7.404   0.950 -32.328  1.00  0.00     0.296 C 
HETATM   27  O   UNL     1      -7.140   0.897 -31.142  1.00  0.00    -0.259 OA
BRANCH  26  28
HETATM   28  O   UNL     1      -6.733   0.398 -33.365  1.00  0.00    -0.318 OA
BRANCH  28  29
HETATM   29  C   UNL     1      -6.368  -0.983 -33.219  1.00  0.00     0.174 C 
HETATM   30  C   UNL     1      -6.910  -1.759 -34.403  1.00  0.00     0.034 C 
ENDBRANCH  28  29
ENDBRANCH  26  28
ENDBRANCH   1  26
TORSDOF 5
ENDMDL
MODEL 9
REMARK VINA RESULT:      -6.5     16.954     18.052
REMARK  5 active torsions:
REMARK  status: ('A' for Active; 'I' for Inactive)
REMARK    1  A    between atoms: C_2  and  O_3 
REMARK    2  A    between atoms: O_3  and  C_4 
REMARK    3  A    between atoms: C_4  and  C_5 
REMARK    4  A    between atoms: C_6  and  C_7 
REMARK    5  A    between atoms: C_22  and  N_23 
ROOT
HETATM    1  C   UNL     1      -5.688 -13.402 -38.230  1.00  0.00     0.075 A 
HETATM    2  C   UNL     1      -4.747 -14.022 -37.368  1.00  0.00     0.008 A 
HETATM    3  C   UNL     1      -5.192 -14.458 -36.087  1.00  0.00     0.045 A 
HETATM    4  C   UNL     1      -6.537 -14.186 -35.779  1.00  0.00     0.143 A 
HETATM    5  N   UNL     1      -7.039 -14.452 -34.513  1.00  0.00    -0.306 N 
HETATM    6  C   UNL     1      -6.304 -14.931 -33.475  1.00  0.00     0.268 A 
HETATM    7  O   UNL     1      -6.787 -15.076 -32.359  1.00  0.00    -0.266 OA
HETATM    8  C   UNL     1      -4.905 -15.293 -33.785  1.00  0.00     0.120 A 
HETATM    9  C   UNL     1      -4.059 -15.878 -32.666  1.00  0.00     0.027 C 
HETATM   10  N   UNL     1      -3.359 -16.364 -31.736  1.00  0.00    -0.096 N 
HETATM   11  C   UNL     1      -4.370 -15.135 -35.020  1.00  0.00     0.046 A 
HETATM   12  N   UNL     1      -7.434 -13.614 -36.608  1.00  0.00    -0.234 NA
HETATM   13  C   UNL     1      -7.008 -13.223 -37.828  1.00  0.00     0.050 A 
HETATM   14  C   UNL     1      -8.031 -12.562 -38.705  1.00  0.00     0.071 C 
HETATM   15  H   UNL     1      -8.001 -14.194 -34.339  1.00  0.00     0.170 HD
ENDROOT
BRANCH  11  16
HETATM   16  N   UNL     1      -3.089 -15.562 -35.346  1.00  0.00    -0.301 NA
HETATM   17  H   UNL     1      -2.590 -15.018 -36.050  1.00  0.00     0.124 HD
HETATM   18  H   UNL     1      -2.482 -15.739 -34.549  1.00  0.00     0.124 HD
ENDBRANCH  11  16
BRANCH   2  19
HETATM   19  C   UNL     1      -3.349 -14.136 -37.833  1.00  0.00    -0.024 A 
HETATM   20  C   UNL     1      -2.441 -13.082 -37.642  1.00  0.00     0.014 A 
HETATM   21  C   UNL     1      -1.116 -13.193 -38.072  1.00  0.00     0.024 A 
HETATM   22  C   UNL     1      -0.689 -14.355 -38.708  1.00  0.00     0.034 A 
HETATM   23 CL   UNL     1       0.944 -14.496 -39.230  1.00  0.00    -0.084 Cl
HETATM   24  C   UNL     1      -1.576 -15.407 -38.922  1.00  0.00     0.024 A 
HETATM   25  C   UNL     1      -2.901 -15.298 -38.488  1.00  0.00     0.014 A 
ENDBRANCH   2  19
BRANCH   1  26
HETATM   26  C   UNL     1      -5.276 -12.855 -39.532  1.00  0.00     0.296 C 
HETATM   27  O   UNL     1      -4.935 -11.699 -39.698  1.00  0.00    -0.259 OA
BRANCH  26  28
HETATM   28  O   UNL     1      -5.400 -13.836 -40.456  1.00  0.00    -0.318 OA
BRANCH  28  29
HETATM   29  C   UNL     1      -4.876 -13.546 -41.761  1.00  0.00     0.174 C 
HETATM   30  C   UNL     1      -3.538 -14.241 -41.916  1.00  0.00     0.034 C 
ENDBRANCH  28  29
ENDBRANCH  26  28
ENDBRANCH   1  26
TORSDOF 5
ENDMDL
MODEL 10
REMARK VINA RESULT:      -6.5      3.430      5.345
REMARK  5 active torsions:
REMARK  status: ('A' for Active; 'I' for Inactive)
REMARK    1  A    between atoms: C_2  and  O_3 
REMARK    2  A    between atoms: O_3  and  C_4 
REMARK    3  A    between atoms: C_4  and  C_5 
REMARK    4  A    between atoms: C_6  and  C_7 
REMARK    5  A    between atoms: C_22  and  N_23 
ROOT
HETATM    1  C   UNL     1      -6.234   1.350 -32.970  1.00  0.00     0.075 A 
HETATM    2  C   UNL     1      -7.216   2.261 -32.503  1.00  0.00     0.008 A 
HETATM    3  C   UNL     1      -6.852   3.178 -31.477  1.00  0.00     0.045 A 
HETATM    4  C   UNL     1      -5.539   3.059 -30.985  1.00  0.00     0.143 A 
HETATM    5  N   UNL     1      -5.121   3.815 -29.899  1.00  0.00    -0.306 N 
HETATM    6  C   UNL     1      -5.914   4.668 -29.200  1.00  0.00     0.268 A 
HETATM    7  O   UNL     1      -5.507   5.253 -28.204  1.00  0.00    -0.266 OA
HETATM    8  C   UNL     1      -7.277   4.869 -29.734  1.00  0.00     0.120 A 
HETATM    9  C   UNL     1      -8.183   5.852 -29.012  1.00  0.00     0.027 C 
HETATM   10  N   UNL     1      -8.934   6.669 -28.412  1.00  0.00    -0.096 N 
HETATM   11  C   UNL     1      -7.728   4.225 -30.837  1.00  0.00     0.046 A 
HETATM   12  N   UNL     1      -4.601   2.205 -31.444  1.00  0.00    -0.234 NA
HETATM   13  C   UNL     1      -4.951   1.354 -32.431  1.00  0.00     0.050 A 
HETATM   14  C   UNL     1      -3.887   0.399 -32.889  1.00  0.00     0.071 C 
HETATM   15  H   UNL     1      -4.180   3.652 -29.564  1.00  0.00     0.170 HD
ENDROOT
BRANCH  11  16
HETATM   16  N   UNL     1      -8.971   4.479 -31.402  1.00  0.00    -0.301 NA
HETATM   17  H   UNL     1      -9.624   3.697 -31.443  1.00  0.00     0.124 HD
HETATM   18  H   UNL     1      -9.442   5.306 -31.045  1.00  0.00     0.124 HD
ENDBRANCH  11  16
BRANCH   2  19
HETATM   19  C   UNL     1      -8.574   2.173 -33.078  1.00  0.00    -0.024 A 
HETATM   20  C   UNL     1      -8.974   3.039 -34.109  1.00  0.00     0.014 A 
HETATM   21  C   UNL     1     -10.255   2.950 -34.662  1.00  0.00     0.024 A 
HETATM   22  C   UNL     1     -11.153   2.002 -34.179  1.00  0.00     0.034 A 
HETATM   23 CL   UNL     1     -12.727   1.886 -34.863  1.00  0.00    -0.084 Cl
HETATM   24  C   UNL     1     -10.783   1.143 -33.147  1.00  0.00     0.024 A 
HETATM   25  C   UNL     1      -9.501   1.229 -32.597  1.00  0.00     0.014 A 
ENDBRANCH   2  19
BRANCH   1  26
HETATM   26  C   UNL     1      -6.568   0.323 -33.969  1.00  0.00     0.296 C 
HETATM   27  O   UNL     1      -6.664   0.551 -35.160  1.00  0.00    -0.259 OA
BRANCH  26  28
HETATM   28  O   UNL     1      -6.784  -0.842 -33.315  1.00  0.00    -0.318 OA
BRANCH  28  29
HETATM   29  C   UNL     1      -6.936  -2.010 -34.137  1.00  0.00     0.174 C 
HETATM   30  C   UNL     1      -5.565  -2.596 -34.412  1.00  0.00     0.034 C 
ENDBRANCH  28  29
ENDBRANCH  26  28
ENDBRANCH   1  26
TORSDOF 5
ENDMDL
