MODEL 1
REMARK VINA RESULT:      -8.7      0.000      0.000
REMARK  5 active torsions:
REMARK  status: ('A' for Active; 'I' for Inactive)
REMARK    1  A    between atoms: C_2  and  C_3 
REMARK    2  A    between atoms: C_6  and  C_7 
REMARK    3  A    between atoms: C_7  and  C_8 
REMARK       I    between atoms: C_8  and  N_9 
REMARK    4  A    between atoms: N_9  and  C_10 
REMARK    5  A    between atoms: C_17  and  C_18 
REMARK       I    between atoms: C_18  and  N_19 
ROOT
HETATM    1  C   UNL     1      -3.724   3.589 -32.508  1.00  0.00     0.035 A 
HETATM    2  C   UNL     1      -2.587   3.867 -31.735  1.00  0.00     0.046 A 
HETATM    3  C   UNL     1      -1.827   5.026 -32.004  1.00  0.00     0.030 A 
HETATM    4  C   UNL     1      -2.245   5.882 -33.016  1.00  0.00     0.063 A 
HETATM    5  N   UNL     1      -1.322   6.889 -33.041  1.00  0.00    -0.277 N 
HETATM    6  H   UNL     1      -1.308   7.694 -33.659  1.00  0.00     0.189 HD
HETATM    7  N   UNL     1      -0.327   6.758 -32.149  1.00  0.00    -0.168 NA
HETATM    8  C   UNL     1      -0.625   5.608 -31.500  1.00  0.00     0.156 A 
HETATM    9  C   UNL     1      -3.385   5.650 -33.788  1.00  0.00     0.034 A 
HETATM   10  C   UNL     1      -4.108   4.480 -33.518  1.00  0.00     0.032 A 
ENDROOT
BRANCH   1  11
HETATM   11  N   UNL     1      -4.464   2.394 -32.384  1.00  0.00    -0.327 N 
HETATM   12  C   UNL     1      -5.619   2.207 -31.643  1.00  0.00     0.226 C 
HETATM   13  O   UNL     1      -6.383   3.091 -31.266  1.00  0.00    -0.273 OA
HETATM   14  H   UNL     1      -4.115   1.589 -32.889  1.00  0.00     0.169 HD
BRANCH  12  15
HETATM   15  C   UNL     1      -5.849   0.752 -31.269  1.00  0.00     0.141 C 
BRANCH  15  16
HETATM   16  C   UNL     1      -5.727  -0.239 -32.396  1.00  0.00    -0.049 A 
HETATM   17  C   UNL     1      -4.574  -1.027 -32.516  1.00  0.00     0.008 A 
HETATM   18  C   UNL     1      -4.498  -2.040 -33.475  1.00  0.00     0.007 A 
HETATM   19  C   UNL     1      -5.579  -2.299 -34.326  1.00  0.00    -0.059 A 
HETATM   20  C   UNL     1      -6.720  -1.495 -34.226  1.00  0.00     0.007 A 
HETATM   21  C   UNL     1      -6.794  -0.477 -33.270  1.00  0.00     0.008 A 
BRANCH  19  22
HETATM   22  C   UNL     1      -5.521  -3.432 -35.322  1.00  0.00     0.034 C 
HETATM   23  C   UNL     1      -6.650  -4.438 -35.130  1.00  0.00     0.010 C 
ENDBRANCH  19  22
ENDBRANCH  15  16
ENDBRANCH  12  15
ENDBRANCH   1  11
BRANCH   8  24
HETATM   24  C   UNL     1       0.248   5.084 -30.439  1.00  0.00     0.270 C 
HETATM   25  N   UNL     1      -0.165   5.396 -29.172  1.00  0.00    -0.365 N 
HETATM   26  H   UNL     1      -1.000   5.958 -29.058  1.00  0.00     0.159 HD
HETATM   27  H   UNL     1       0.383   5.096 -28.382  1.00  0.00     0.159 HD
HETATM   28  O   UNL     1       1.269   4.433 -30.631  1.00  0.00    -0.266 OA
ENDBRANCH   8  24
TORSDOF 5
ENDMDL
MODEL 2
REMARK VINA RESULT:      -8.6      5.714      9.030
REMARK  5 active torsions:
REMARK  status: ('A' for Active; 'I' for Inactive)
REMARK    1  A    between atoms: C_2  and  C_3 
REMARK    2  A    between atoms: C_6  and  C_7 
REMARK    3  A    between atoms: C_7  and  C_8 
REMARK       I    between atoms: C_8  and  N_9 
REMARK    4  A    between atoms: N_9  and  C_10 
REMARK    5  A    between atoms: C_17  and  C_18 
REMARK       I    between atoms: C_18  and  N_19 
ROOT
HETATM    1  C   UNL     1     -10.171   2.180 -33.980  1.00  0.00     0.035 A 
HETATM    2  C   UNL     1     -11.405   1.531 -34.134  1.00  0.00     0.046 A 
HETATM    3  C   UNL     1     -12.561   2.080 -33.538  1.00  0.00     0.030 A 
HETATM    4  C   UNL     1     -12.450   3.273 -32.835  1.00  0.00     0.063 A 
HETATM    5  N   UNL     1     -13.710   3.543 -32.379  1.00  0.00    -0.277 N 
HETATM    6  H   UNL     1     -14.005   4.339 -31.823  1.00  0.00     0.189 HD
HETATM    7  N   UNL     1     -14.631   2.621 -32.706  1.00  0.00    -0.168 NA
HETATM    8  C   UNL     1     -13.935   1.709 -33.422  1.00  0.00     0.156 A 
HETATM    9  C   UNL     1     -11.243   3.959 -32.683  1.00  0.00     0.034 A 
HETATM   10  C   UNL     1     -10.105   3.380 -33.262  1.00  0.00     0.032 A 
ENDROOT
BRANCH   1  11
HETATM   11  N   UNL     1      -8.953   1.633 -34.438  1.00  0.00    -0.327 N 
HETATM   12  C   UNL     1      -8.000   0.978 -33.676  1.00  0.00     0.226 C 
HETATM   13  O   UNL     1      -8.189   0.453 -32.583  1.00  0.00    -0.273 OA
HETATM   14  H   UNL     1      -8.756   1.729 -35.426  1.00  0.00     0.169 HD
BRANCH  12  15
HETATM   15  C   UNL     1      -6.619   1.007 -34.310  1.00  0.00     0.141 C 
BRANCH  15  16
HETATM   16  C   UNL     1      -5.837  -0.278 -34.230  1.00  0.00    -0.049 A 
HETATM   17  C   UNL     1      -4.685  -0.350 -33.435  1.00  0.00     0.008 A 
HETATM   18  C   UNL     1      -4.023  -1.567 -33.246  1.00  0.00     0.007 A 
HETATM   19  C   UNL     1      -4.507  -2.741 -33.836  1.00  0.00    -0.059 A 
HETATM   20  C   UNL     1      -5.641  -2.664 -34.653  1.00  0.00     0.007 A 
HETATM   21  C   UNL     1      -6.300  -1.447 -34.847  1.00  0.00     0.008 A 
BRANCH  19  22
HETATM   22  C   UNL     1      -3.828  -4.064 -33.585  1.00  0.00     0.034 C 
HETATM   23  C   UNL     1      -4.566  -5.233 -34.228  1.00  0.00     0.010 C 
ENDBRANCH  19  22
ENDBRANCH  15  16
ENDBRANCH  12  15
ENDBRANCH   1  11
BRANCH   8  24
HETATM   24  C   UNL     1     -14.584   0.503 -33.957  1.00  0.00     0.270 C 
HETATM   25  N   UNL     1     -14.097  -0.668 -33.443  1.00  0.00    -0.365 N 
HETATM   26  H   UNL     1     -13.342  -0.626 -32.769  1.00  0.00     0.159 HD
HETATM   27  H   UNL     1     -14.469  -1.547 -33.766  1.00  0.00     0.159 HD
HETATM   28  O   UNL     1     -15.476   0.503 -34.798  1.00  0.00    -0.266 OA
ENDBRANCH   8  24
TORSDOF 5
ENDMDL
MODEL 3
REMARK VINA RESULT:      -8.2      3.409      8.194
REMARK  5 active torsions:
REMARK  status: ('A' for Active; 'I' for Inactive)
REMARK    1  A    between atoms: C_2  and  C_3 
REMARK    2  A    between atoms: C_6  and  C_7 
REMARK    3  A    between atoms: C_7  and  C_8 
REMARK       I    between atoms: C_8  and  N_9 
REMARK    4  A    between atoms: N_9  and  C_10 
REMARK    5  A    between atoms: C_17  and  C_18 
REMARK       I    between atoms: C_18  and  N_19 
ROOT
HETATM    1  C   UNL     1      -5.584  -0.048 -33.498  1.00  0.00     0.035 A 
HETATM    2  C   UNL     1      -4.809  -1.212 -33.386  1.00  0.00     0.046 A 
HETATM    3  C   UNL     1      -5.249  -2.404 -33.999  1.00  0.00     0.030 A 
HETATM    4  C   UNL     1      -6.432  -2.387 -34.727  1.00  0.00     0.063 A 
HETATM    5  N   UNL     1      -6.594  -3.665 -35.185  1.00  0.00    -0.277 N 
HETATM    6  H   UNL     1      -7.353  -4.022 -35.754  1.00  0.00     0.189 HD
HETATM    7  N   UNL     1      -5.631  -4.520 -34.803  1.00  0.00    -0.168 NA
HETATM    8  C   UNL     1      -4.792  -3.755 -34.067  1.00  0.00     0.156 A 
HETATM    9  C   UNL     1      -7.215  -1.242 -34.881  1.00  0.00     0.034 A 
HETATM   10  C   UNL     1      -6.770  -0.076 -34.242  1.00  0.00     0.032 A 
ENDROOT
BRANCH   1  11
HETATM   11  N   UNL     1      -5.277   1.149 -32.815  1.00  0.00    -0.327 N 
HETATM   12  C   UNL     1      -5.960   1.685 -31.736  1.00  0.00     0.226 C 
HETATM   13  O   UNL     1      -6.703   1.070 -30.977  1.00  0.00    -0.273 OA
HETATM   14  H   UNL     1      -4.475   1.669 -33.147  1.00  0.00     0.169 HD
BRANCH  12  15
HETATM   15  C   UNL     1      -5.747   3.183 -31.591  1.00  0.00     0.141 C 
BRANCH  15  16
HETATM   16  C   UNL     1      -4.606   3.760 -32.388  1.00  0.00    -0.049 A 
HETATM   17  C   UNL     1      -4.867   4.523 -33.535  1.00  0.00     0.008 A 
HETATM   18  C   UNL     1      -3.830   5.174 -34.210  1.00  0.00     0.007 A 
HETATM   19  C   UNL     1      -2.512   5.089 -33.745  1.00  0.00    -0.059 A 
HETATM   20  C   UNL     1      -2.247   4.305 -32.616  1.00  0.00     0.007 A 
HETATM   21  C   UNL     1      -3.283   3.649 -31.943  1.00  0.00     0.008 A 
BRANCH  19  22
HETATM   22  C   UNL     1      -1.402   5.839 -34.438  1.00  0.00     0.034 C 
HETATM   23  C   UNL     1      -0.912   7.037 -33.631  1.00  0.00     0.010 C 
ENDBRANCH  19  22
ENDBRANCH  15  16
ENDBRANCH  12  15
ENDBRANCH   1  11
BRANCH   8  24
HETATM   24  C   UNL     1      -3.596  -4.329 -33.433  1.00  0.00     0.270 C 
HETATM   25  N   UNL     1      -3.003  -5.326 -34.160  1.00  0.00    -0.365 N 
HETATM   26  H   UNL     1      -3.421  -5.599 -35.042  1.00  0.00     0.159 HD
HETATM   27  H   UNL     1      -2.188  -5.792 -33.794  1.00  0.00     0.159 HD
HETATM   28  O   UNL     1      -3.146  -3.985 -32.346  1.00  0.00    -0.266 OA
ENDBRANCH   8  24
TORSDOF 5
ENDMDL
MODEL 4
REMARK VINA RESULT:      -7.9      2.229      2.655
REMARK  5 active torsions:
REMARK  status: ('A' for Active; 'I' for Inactive)
REMARK    1  A    between atoms: C_2  and  C_3 
REMARK    2  A    between atoms: C_6  and  C_7 
REMARK    3  A    between atoms: C_7  and  C_8 
REMARK       I    between atoms: C_8  and  N_9 
REMARK    4  A    between atoms: N_9  and  C_10 
REMARK    5  A    between atoms: C_17  and  C_18 
REMARK       I    between atoms: C_18  and  N_19 
ROOT
HETATM    1  C   UNL     1      -3.254   4.150 -32.887  1.00  0.00     0.035 A 
HETATM    2  C   UNL     1      -3.637   5.309 -32.195  1.00  0.00     0.046 A 
HETATM    3  C   UNL     1      -2.922   6.509 -32.396  1.00  0.00     0.030 A 
HETATM    4  C   UNL     1      -1.868   6.518 -33.301  1.00  0.00     0.063 A 
HETATM    5  N   UNL     1      -1.378   7.793 -33.274  1.00  0.00    -0.277 N 
HETATM    6  H   UNL     1      -0.602   8.165 -33.810  1.00  0.00     0.189 HD
HETATM    7  N   UNL     1      -2.006   8.614 -32.415  1.00  0.00    -0.168 NA
HETATM    8  C   UNL     1      -2.963   7.833 -31.863  1.00  0.00     0.156 A 
HETATM    9  C   UNL     1      -1.476   5.390 -34.026  1.00  0.00     0.034 A 
HETATM   10  C   UNL     1      -2.185   4.205 -33.790  1.00  0.00     0.032 A 
ENDROOT
BRANCH   1  11
HETATM   11  N   UNL     1      -3.837   2.886 -32.650  1.00  0.00    -0.327 N 
HETATM   12  C   UNL     1      -5.188   2.581 -32.669  1.00  0.00     0.226 C 
HETATM   13  O   UNL     1      -6.066   3.234 -33.226  1.00  0.00    -0.273 OA
HETATM   14  H   UNL     1      -3.203   2.124 -32.446  1.00  0.00     0.169 HD
BRANCH  12  15
HETATM   15  C   UNL     1      -5.521   1.337 -31.862  1.00  0.00     0.141 C 
BRANCH  15  16
HETATM   16  C   UNL     1      -5.568   0.047 -32.639  1.00  0.00    -0.049 A 
HETATM   17  C   UNL     1      -6.738  -0.321 -33.317  1.00  0.00     0.008 A 
HETATM   18  C   UNL     1      -6.758  -1.445 -34.148  1.00  0.00     0.007 A 
HETATM   19  C   UNL     1      -5.605  -2.217 -34.332  1.00  0.00    -0.059 A 
HETATM   20  C   UNL     1      -4.443  -1.866 -33.633  1.00  0.00     0.007 A 
HETATM   21  C   UNL     1      -4.424  -0.745 -32.798  1.00  0.00     0.008 A 
BRANCH  19  22
HETATM   22  C   UNL     1      -5.609  -3.395 -35.274  1.00  0.00     0.034 C 
HETATM   23  C   UNL     1      -6.680  -4.422 -34.924  1.00  0.00     0.010 C 
ENDBRANCH  19  22
ENDBRANCH  15  16
ENDBRANCH  12  15
ENDBRANCH   1  11
BRANCH   8  24
HETATM   24  C   UNL     1      -3.873   8.356 -30.833  1.00  0.00     0.270 C 
HETATM   25  N   UNL     1      -3.557   7.967 -29.559  1.00  0.00    -0.365 N 
HETATM   26  H   UNL     1      -2.759   7.358 -29.421  1.00  0.00     0.159 HD
HETATM   27  H   UNL     1      -4.137   8.262 -28.791  1.00  0.00     0.159 HD
HETATM   28  O   UNL     1      -4.846   9.067 -31.055  1.00  0.00    -0.266 OA
ENDBRANCH   8  24
TORSDOF 5
ENDMDL
MODEL 5
REMARK VINA RESULT:      -7.9      4.927      7.597
REMARK  5 active torsions:
REMARK  status: ('A' for Active; 'I' for Inactive)
REMARK    1  A    between atoms: C_2  and  C_3 
REMARK    2  A    between atoms: C_6  and  C_7 
REMARK    3  A    between atoms: C_7  and  C_8 
REMARK       I    between atoms: C_8  and  N_9 
REMARK    4  A    between atoms: N_9  and  C_10 
REMARK    5  A    between atoms: C_17  and  C_18 
REMARK       I    between atoms: C_18  and  N_19 
ROOT
HETATM    1  C   UNL     1      -6.885   0.537 -34.113  1.00  0.00     0.035 A 
HETATM    2  C   UNL     1      -5.762   0.388 -33.286  1.00  0.00     0.046 A 
HETATM    3  C   UNL     1      -5.048  -0.830 -33.292  1.00  0.00     0.030 A 
HETATM    4  C   UNL     1      -5.463  -1.845 -34.144  1.00  0.00     0.063 A 
HETATM    5  N   UNL     1      -4.598  -2.880 -33.922  1.00  0.00    -0.277 N 
HETATM    6  H   UNL     1      -4.600  -3.789 -34.371  1.00  0.00     0.189 HD
HETATM    7  N   UNL     1      -3.665  -2.636 -32.986  1.00  0.00    -0.168 NA
HETATM    8  C   UNL     1      -3.932  -1.372 -32.586  1.00  0.00     0.156 A 
HETATM    9  C   UNL     1      -6.561  -1.723 -34.999  1.00  0.00     0.034 A 
HETATM   10  C   UNL     1      -7.268  -0.513 -34.956  1.00  0.00     0.032 A 
ENDROOT
BRANCH   1  11
HETATM   11  N   UNL     1      -7.721   1.674 -34.076  1.00  0.00    -0.327 N 
HETATM   12  C   UNL     1      -8.684   1.963 -33.123  1.00  0.00     0.226 C 
HETATM   13  O   UNL     1      -8.739   1.494 -31.990  1.00  0.00    -0.273 OA
HETATM   14  H   UNL     1      -7.605   2.348 -34.822  1.00  0.00     0.169 HD
BRANCH  12  15
HETATM   15  C   UNL     1      -9.751   2.917 -33.636  1.00  0.00     0.141 C 
BRANCH  15  16
HETATM   16  C   UNL     1     -11.176   2.480 -33.419  1.00  0.00    -0.049 A 
HETATM   17  C   UNL     1     -12.071   3.318 -32.739  1.00  0.00     0.008 A 
HETATM   18  C   UNL     1     -13.425   2.987 -32.642  1.00  0.00     0.007 A 
HETATM   19  C   UNL     1     -13.919   1.821 -33.237  1.00  0.00    -0.059 A 
HETATM   20  C   UNL     1     -13.021   0.969 -33.893  1.00  0.00     0.007 A 
HETATM   21  C   UNL     1     -11.665   1.296 -33.985  1.00  0.00     0.008 A 
BRANCH  19  22
HETATM   22  C   UNL     1     -15.391   1.493 -33.186  1.00  0.00     0.034 C 
HETATM   23  C   UNL     1     -16.146   2.349 -32.176  1.00  0.00     0.010 C 
ENDBRANCH  19  22
ENDBRANCH  15  16
ENDBRANCH  12  15
ENDBRANCH   1  11
BRANCH   8  24
HETATM   24  C   UNL     1      -3.138  -0.722 -31.533  1.00  0.00     0.270 C 
HETATM   25  N   UNL     1      -1.849  -1.177 -31.445  1.00  0.00    -0.365 N 
HETATM   26  H   UNL     1      -1.549  -1.910 -32.076  1.00  0.00     0.159 HD
HETATM   27  H   UNL     1      -1.237  -0.803 -30.738  1.00  0.00     0.159 HD
HETATM   28  O   UNL     1      -3.558   0.141 -30.771  1.00  0.00    -0.266 OA
ENDBRANCH   8  24
TORSDOF 5
ENDMDL
MODEL 6
REMARK VINA RESULT:      -7.8      2.920      8.837
REMARK  5 active torsions:
REMARK  status: ('A' for Active; 'I' for Inactive)
REMARK    1  A    between atoms: C_2  and  C_3 
REMARK    2  A    between atoms: C_6  and  C_7 
REMARK    3  A    between atoms: C_7  and  C_8 
REMARK       I    between atoms: C_8  and  N_9 
REMARK    4  A    between atoms: N_9  and  C_10 
REMARK    5  A    between atoms: C_17  and  C_18 
REMARK       I    between atoms: C_18  and  N_19 
ROOT
HETATM    1  C   UNL     1      -3.702   2.732 -31.423  1.00  0.00     0.035 A 
HETATM    2  C   UNL     1      -5.007   2.992 -30.978  1.00  0.00     0.046 A 
HETATM    3  C   UNL     1      -6.030   2.053 -31.232  1.00  0.00     0.030 A 
HETATM    4  C   UNL     1      -5.709   0.875 -31.895  1.00  0.00     0.063 A 
HETATM    5  N   UNL     1      -6.885   0.186 -31.997  1.00  0.00    -0.277 N 
HETATM    6  H   UNL     1      -7.031  -0.721 -32.427  1.00  0.00     0.189 HD
HETATM    7  N   UNL     1      -7.950   0.818 -31.476  1.00  0.00    -0.168 NA
HETATM    8  C   UNL     1      -7.437   1.976 -31.000  1.00  0.00     0.156 A 
HETATM    9  C   UNL     1      -4.418   0.572 -32.329  1.00  0.00     0.034 A 
HETATM   10  C   UNL     1      -3.425   1.532 -32.088  1.00  0.00     0.032 A 
ENDROOT
BRANCH   1  11
HETATM   11  N   UNL     1      -2.654   3.671 -31.318  1.00  0.00    -0.327 N 
HETATM   12  C   UNL     1      -2.384   4.713 -32.189  1.00  0.00     0.226 C 
HETATM   13  O   UNL     1      -3.179   5.216 -32.977  1.00  0.00    -0.273 OA
HETATM   14  H   UNL     1      -2.034   3.573 -30.523  1.00  0.00     0.169 HD
BRANCH  12  15
HETATM   15  C   UNL     1      -0.937   5.173 -32.125  1.00  0.00     0.141 C 
BRANCH  15  16
HETATM   16  C   UNL     1      -0.488   5.734 -30.801  1.00  0.00    -0.049 A 
HETATM   17  C   UNL     1       0.273   4.946 -29.927  1.00  0.00     0.008 A 
HETATM   18  C   UNL     1       0.807   5.491 -28.756  1.00  0.00     0.007 A 
HETATM   19  C   UNL     1       0.606   6.840 -28.440  1.00  0.00    -0.059 A 
HETATM   20  C   UNL     1      -0.177   7.621 -29.298  1.00  0.00     0.007 A 
HETATM   21  C   UNL     1      -0.716   7.075 -30.467  1.00  0.00     0.008 A 
BRANCH  19  22
HETATM   22  C   UNL     1       1.232   7.444 -27.208  1.00  0.00     0.034 C 
HETATM   23  C   UNL     1       1.690   8.881 -27.428  1.00  0.00     0.010 C 
ENDBRANCH  19  22
ENDBRANCH  15  16
ENDBRANCH  12  15
ENDBRANCH   1  11
BRANCH   8  24
HETATM   24  C   UNL     1      -8.295   2.984 -30.360  1.00  0.00     0.270 C 
HETATM   25  N   UNL     1      -9.620   2.643 -30.317  1.00  0.00    -0.365 N 
HETATM   26  H   UNL     1      -9.908   1.762 -30.726  1.00  0.00     0.159 HD
HETATM   27  H   UNL     1     -10.286   3.282 -29.914  1.00  0.00     0.159 HD
HETATM   28  O   UNL     1      -7.902   4.053 -29.907  1.00  0.00    -0.266 OA
ENDBRANCH   8  24
TORSDOF 5
ENDMDL
MODEL 7
REMARK VINA RESULT:      -7.7     16.957     18.199
REMARK  5 active torsions:
REMARK  status: ('A' for Active; 'I' for Inactive)
REMARK    1  A    between atoms: C_2  and  C_3 
REMARK    2  A    between atoms: C_6  and  C_7 
REMARK    3  A    between atoms: C_7  and  C_8 
REMARK       I    between atoms: C_8  and  N_9 
REMARK    4  A    between atoms: N_9  and  C_10 
REMARK    5  A    between atoms: C_17  and  C_18 
REMARK       I    between atoms: C_18  and  N_19 
ROOT
HETATM    1  C   UNL     1      -2.034 -14.284 -38.673  1.00  0.00     0.035 A 
HETATM    2  C   UNL     1      -1.104 -14.869 -37.801  1.00  0.00     0.046 A 
HETATM    3  C   UNL     1       0.222 -15.080 -38.235  1.00  0.00     0.030 A 
HETATM    4  C   UNL     1       0.581 -14.673 -39.513  1.00  0.00     0.063 A 
HETATM    5  N   UNL     1       1.900 -15.009 -39.643  1.00  0.00    -0.277 N 
HETATM    6  H   UNL     1       2.495 -14.862 -40.451  1.00  0.00     0.189 HD
HETATM    7  N   UNL     1       2.428 -15.619 -38.569  1.00  0.00    -0.168 NA
HETATM    8  C   UNL     1       1.402 -15.671 -37.689  1.00  0.00     0.156 A 
HETATM    9  C   UNL     1      -0.311 -14.064 -40.399  1.00  0.00     0.034 A 
HETATM   10  C   UNL     1      -1.628 -13.890 -39.954  1.00  0.00     0.032 A 
ENDROOT
BRANCH   1  11
HETATM   11  N   UNL     1      -3.404 -14.152 -38.359  1.00  0.00    -0.327 N 
HETATM   12  C   UNL     1      -4.014 -13.069 -37.749  1.00  0.00     0.226 C 
HETATM   13  O   UNL     1      -3.568 -11.927 -37.698  1.00  0.00    -0.273 OA
HETATM   14  H   UNL     1      -4.004 -14.930 -38.606  1.00  0.00     0.169 HD
BRANCH  12  15
HETATM   15  C   UNL     1      -5.322 -13.438 -37.067  1.00  0.00     0.141 C 
BRANCH  15  16
HETATM   16  C   UNL     1      -6.572 -13.170 -37.865  1.00  0.00    -0.049 A 
HETATM   17  C   UNL     1      -6.477 -12.663 -39.168  1.00  0.00     0.008 A 
HETATM   18  C   UNL     1      -7.616 -12.532 -39.967  1.00  0.00     0.007 A 
HETATM   19  C   UNL     1      -8.873 -12.920 -39.488  1.00  0.00    -0.059 A 
HETATM   20  C   UNL     1      -8.972 -13.401 -38.177  1.00  0.00     0.007 A 
HETATM   21  C   UNL     1      -7.834 -13.526 -37.375  1.00  0.00     0.008 A 
BRANCH  19  22
HETATM   22  C   UNL     1     -10.093 -12.835 -40.370  1.00  0.00     0.034 C 
HETATM   23  C   UNL     1     -10.689 -11.433 -40.413  1.00  0.00     0.010 C 
ENDBRANCH  19  22
ENDBRANCH  15  16
ENDBRANCH  12  15
ENDBRANCH   1  11
BRANCH   8  24
HETATM   24  C   UNL     1       1.561 -16.296 -36.368  1.00  0.00     0.270 C 
HETATM   25  N   UNL     1       2.346 -17.418 -36.373  1.00  0.00    -0.365 N 
HETATM   26  H   UNL     1       2.734 -17.735 -37.253  1.00  0.00     0.159 HD
HETATM   27  H   UNL     1       2.495 -17.925 -35.516  1.00  0.00     0.159 HD
HETATM   28  O   UNL     1       1.043 -15.890 -35.334  1.00  0.00    -0.266 OA
ENDBRANCH   8  24
TORSDOF 5
ENDMDL
MODEL 8
REMARK VINA RESULT:      -7.7      1.964      2.930
REMARK  5 active torsions:
REMARK  status: ('A' for Active; 'I' for Inactive)
REMARK    1  A    between atoms: C_2  and  C_3 
REMARK    2  A    between atoms: C_6  and  C_7 
REMARK    3  A    between atoms: C_7  and  C_8 
REMARK       I    between atoms: C_8  and  N_9 
REMARK    4  A    between atoms: N_9  and  C_10 
REMARK    5  A    between atoms: C_17  and  C_18 
REMARK       I    between atoms: C_18  and  N_19 
ROOT
HETATM    1  C   UNL     1      -3.764   3.090 -32.035  1.00  0.00     0.035 A 
HETATM    2  C   UNL     1      -2.580   3.696 -31.590  1.00  0.00     0.046 A 
HETATM    3  C   UNL     1      -2.086   4.837 -32.258  1.00  0.00     0.030 A 
HETATM    4  C   UNL     1      -2.807   5.350 -33.329  1.00  0.00     0.063 A 
HETATM    5  N   UNL     1      -2.088   6.428 -33.765  1.00  0.00    -0.277 N 
HETATM    6  H   UNL     1      -2.315   7.047 -34.536  1.00  0.00     0.189 HD
HETATM    7  N   UNL     1      -0.951   6.653 -33.086  1.00  0.00    -0.168 NA
HETATM    8  C   UNL     1      -0.935   5.675 -32.151  1.00  0.00     0.156 A 
HETATM    9  C   UNL     1      -4.002   4.789 -33.783  1.00  0.00     0.034 A 
HETATM   10  C   UNL     1      -4.458   3.642 -33.119  1.00  0.00     0.032 A 
ENDROOT
BRANCH   1  11
HETATM   11  N   UNL     1      -4.257   1.880 -31.500  1.00  0.00    -0.327 N 
HETATM   12  C   UNL     1      -4.051   0.607 -32.004  1.00  0.00     0.226 C 
HETATM   13  O   UNL     1      -3.147   0.272 -32.764  1.00  0.00    -0.273 OA
HETATM   14  H   UNL     1      -4.818   1.950 -30.660  1.00  0.00     0.169 HD
BRANCH  12  15
HETATM   15  C   UNL     1      -5.119  -0.380 -31.562  1.00  0.00     0.141 C 
BRANCH  15  16
HETATM   16  C   UNL     1      -6.518  -0.083 -32.034  1.00  0.00    -0.049 A 
HETATM   17  C   UNL     1      -6.945  -0.533 -33.292  1.00  0.00     0.008 A 
HETATM   18  C   UNL     1      -8.275  -0.381 -33.691  1.00  0.00     0.007 A 
HETATM   19  C   UNL     1      -9.213   0.209 -32.836  1.00  0.00    -0.059 A 
HETATM   20  C   UNL     1      -8.783   0.684 -31.591  1.00  0.00     0.007 A 
HETATM   21  C   UNL     1      -7.451   0.537 -31.194  1.00  0.00     0.008 A 
BRANCH  19  22
HETATM   22  C   UNL     1     -10.663   0.319 -33.241  1.00  0.00     0.034 C 
HETATM   23  C   UNL     1     -10.908   1.447 -34.237  1.00  0.00     0.010 C 
ENDBRANCH  19  22
ENDBRANCH  15  16
ENDBRANCH  12  15
ENDBRANCH   1  11
BRANCH   8  24
HETATM   24  C   UNL     1       0.178   5.550 -31.198  1.00  0.00     0.270 C 
HETATM   25  N   UNL     1       0.356   6.647 -30.400  1.00  0.00    -0.365 N 
HETATM   26  H   UNL     1      -0.257   7.444 -30.526  1.00  0.00     0.159 HD
HETATM   27  H   UNL     1       1.108   6.659 -29.731  1.00  0.00     0.159 HD
HETATM   28  O   UNL     1       0.913   4.573 -31.105  1.00  0.00    -0.266 OA
ENDBRANCH   8  24
TORSDOF 5
ENDMDL
MODEL 9
REMARK VINA RESULT:      -7.7      5.215      7.530
REMARK  5 active torsions:
REMARK  status: ('A' for Active; 'I' for Inactive)
REMARK    1  A    between atoms: C_2  and  C_3 
REMARK    2  A    between atoms: C_6  and  C_7 
REMARK    3  A    between atoms: C_7  and  C_8 
REMARK       I    between atoms: C_8  and  N_9 
REMARK    4  A    between atoms: N_9  and  C_10 
REMARK    5  A    between atoms: C_17  and  C_18 
REMARK       I    between atoms: C_18  and  N_19 
ROOT
HETATM    1  C   UNL     1      -6.315  -0.002 -33.725  1.00  0.00     0.035 A 
HETATM    2  C   UNL     1      -5.253  -0.645 -33.071  1.00  0.00     0.046 A 
HETATM    3  C   UNL     1      -4.853  -1.932 -33.490  1.00  0.00     0.030 A 
HETATM    4  C   UNL     1      -5.507  -2.519 -34.566  1.00  0.00     0.063 A 
HETATM    5  N   UNL     1      -4.913  -3.740 -34.727  1.00  0.00    -0.277 N 
HETATM    6  H   UNL     1      -5.136  -4.445 -35.421  1.00  0.00     0.189 HD
HETATM    7  N   UNL     1      -3.942  -4.010 -33.839  1.00  0.00    -0.168 NA
HETATM    8  C   UNL     1      -3.894  -2.900 -33.066  1.00  0.00     0.156 A 
HETATM    9  C   UNL     1      -6.549  -1.898 -35.257  1.00  0.00     0.034 A 
HETATM   10  C   UNL     1      -6.945  -0.632 -34.805  1.00  0.00     0.032 A 
ENDROOT
BRANCH   1  11
HETATM   11  N   UNL     1      -6.853   1.228 -33.290  1.00  0.00    -0.327 N 
HETATM   12  C   UNL     1      -7.677   1.431 -32.195  1.00  0.00     0.226 C 
HETATM   13  O   UNL     1      -7.793   0.677 -31.233  1.00  0.00    -0.273 OA
HETATM   14  H   UNL     1      -6.613   2.048 -33.833  1.00  0.00     0.169 HD
BRANCH  12  15
HETATM   15  C   UNL     1      -8.507   2.699 -32.310  1.00  0.00     0.141 C 
BRANCH  15  16
HETATM   16  C   UNL     1      -9.920   2.513 -32.799  1.00  0.00    -0.049 A 
HETATM   17  C   UNL     1     -10.299   1.308 -33.407  1.00  0.00     0.008 A 
HETATM   18  C   UNL     1     -11.633   1.069 -33.747  1.00  0.00     0.007 A 
HETATM   19  C   UNL     1     -12.621   2.023 -33.473  1.00  0.00    -0.059 A 
HETATM   20  C   UNL     1     -12.239   3.237 -32.892  1.00  0.00     0.007 A 
HETATM   21  C   UNL     1     -10.904   3.479 -32.556  1.00  0.00     0.008 A 
BRANCH  19  22
HETATM   22  C   UNL     1     -14.070   1.742 -33.785  1.00  0.00     0.034 C 
HETATM   23  C   UNL     1     -14.353   0.254 -33.963  1.00  0.00     0.010 C 
ENDBRANCH  19  22
ENDBRANCH  15  16
ENDBRANCH  12  15
ENDBRANCH   1  11
BRANCH   8  24
HETATM   24  C   UNL     1      -2.959  -2.799 -31.936  1.00  0.00     0.270 C 
HETATM   25  N   UNL     1      -2.516  -1.527 -31.690  1.00  0.00    -0.365 N 
HETATM   26  H   UNL     1      -2.838  -0.776 -32.289  1.00  0.00     0.159 HD
HETATM   27  H   UNL     1      -1.856  -1.365 -30.947  1.00  0.00     0.159 HD
HETATM   28  O   UNL     1      -2.573  -3.745 -31.259  1.00  0.00    -0.266 OA
ENDBRANCH   8  24
TORSDOF 5
ENDMDL
MODEL 10
REMARK VINA RESULT:      -7.7      3.060      8.817
REMARK  5 active torsions:
REMARK  status: ('A' for Active; 'I' for Inactive)
REMARK    1  A    between atoms: C_2  and  C_3 
REMARK    2  A    between atoms: C_6  and  C_7 
REMARK    3  A    between atoms: C_7  and  C_8 
REMARK       I    between atoms: C_8  and  N_9 
REMARK    4  A    between atoms: N_9  and  C_10 
REMARK    5  A    between atoms: C_17  and  C_18 
REMARK       I    between atoms: C_18  and  N_19 
ROOT
HETATM    1  C   UNL     1      -3.897   4.106 -32.792  1.00  0.00     0.035 A 
HETATM    2  C   UNL     1      -4.960   3.421 -33.400  1.00  0.00     0.046 A 
HETATM    3  C   UNL     1      -5.230   2.086 -33.032  1.00  0.00     0.030 A 
HETATM    4  C   UNL     1      -4.449   1.490 -32.050  1.00  0.00     0.063 A 
HETATM    5  N   UNL     1      -4.937   0.220 -31.920  1.00  0.00    -0.277 N 
HETATM    6  H   UNL     1      -4.606  -0.504 -31.291  1.00  0.00     0.189 HD
HETATM    7  N   UNL     1      -5.957  -0.073 -32.744  1.00  0.00    -0.168 NA
HETATM    8  C   UNL     1      -6.149   1.072 -33.440  1.00  0.00     0.156 A 
HETATM    9  C   UNL     1      -3.399   2.149 -31.406  1.00  0.00     0.034 A 
HETATM   10  C   UNL     1      -3.135   3.466 -31.807  1.00  0.00     0.032 A 
ENDROOT
BRANCH   1  11
HETATM   11  N   UNL     1      -3.487   5.397 -33.191  1.00  0.00    -0.327 N 
HETATM   12  C   UNL     1      -2.427   5.708 -34.025  1.00  0.00     0.226 C 
HETATM   13  O   UNL     1      -1.895   4.946 -34.828  1.00  0.00    -0.273 OA
HETATM   14  H   UNL     1      -4.023   6.176 -32.829  1.00  0.00     0.169 HD
BRANCH  12  15
HETATM   15  C   UNL     1      -1.914   7.124 -33.821  1.00  0.00     0.141 C 
BRANCH  15  16
HETATM   16  C   UNL     1      -1.407   7.442 -32.439  1.00  0.00    -0.049 A 
HETATM   17  C   UNL     1      -2.125   8.318 -31.613  1.00  0.00     0.008 A 
HETATM   18  C   UNL     1      -1.741   8.522 -30.285  1.00  0.00     0.007 A 
HETATM   19  C   UNL     1      -0.641   7.844 -29.748  1.00  0.00    -0.059 A 
HETATM   20  C   UNL     1       0.093   6.990 -30.579  1.00  0.00     0.007 A 
HETATM   21  C   UNL     1      -0.287   6.790 -31.910  1.00  0.00     0.008 A 
BRANCH  19  22
HETATM   22  C   UNL     1      -0.262   8.017 -28.298  1.00  0.00     0.034 C 
HETATM   23  C   UNL     1       1.228   8.276 -28.109  1.00  0.00     0.010 C 
ENDBRANCH  19  22
ENDBRANCH  15  16
ENDBRANCH  12  15
ENDBRANCH   1  11
BRANCH   8  24
HETATM   24  C   UNL     1      -7.180   1.165 -34.484  1.00  0.00     0.270 C 
HETATM   25  N   UNL     1      -8.247   1.953 -34.146  1.00  0.00    -0.365 N 
HETATM   26  H   UNL     1      -8.259   2.388 -33.231  1.00  0.00     0.159 HD
HETATM   27  H   UNL     1      -9.011   2.059 -34.793  1.00  0.00     0.159 HD
HETATM   28  O   UNL     1      -7.133   0.592 -35.567  1.00  0.00    -0.266 OA
ENDBRANCH   8  24
TORSDOF 5
ENDMDL
