MODEL 1
REMARK VINA RESULT:      -9.5      0.000      0.000
REMARK  6 active torsions:
REMARK  status: ('A' for Active; 'I' for Inactive)
REMARK    1  A    between atoms: O_2  and  C_3 
REMARK    2  A    between atoms: C_5  and  C_6 
REMARK    3  A    between atoms: C_12  and  C_13 
REMARK       I    between atoms: C_13  and  N_14 
REMARK    4  A    between atoms: N_14  and  C_15 
REMARK    5  A    between atoms: C_15  and  C_16 
REMARK    6  A    between atoms: C_23  and  C_24 
ROOT
HETATM    1  C   UNL     1      -7.236  -0.160 -33.396  1.00  0.00     0.118 C 
HETATM    2  N   UNL     1      -6.486   1.037 -33.011  1.00  0.00    -0.365 N 
HETATM    3  C   UNL     1      -7.044   2.274 -33.115  1.00  0.00     0.138 A 
HETATM    4  N   UNL     1      -8.290   2.435 -33.675  1.00  0.00    -0.240 N 
HETATM    5  N   UNL     1      -8.657   3.713 -33.841  1.00  0.00    -0.181 NA
HETATM    6  C   UNL     1      -7.644   4.390 -33.292  1.00  0.00     0.160 A 
HETATM    7  C   UNL     1      -6.611   3.550 -32.802  1.00  0.00     0.096 A 
HETATM    8  C   UNL     1      -9.097   1.354 -34.210  1.00  0.00     0.221 C 
HETATM    9  C   UNL     1      -8.192   0.161 -34.559  1.00  0.00     0.066 C 
HETATM   10  H   UNL     1      -5.471   0.923 -33.015  1.00  0.00     0.161 HD
ENDROOT
BRANCH   7  11
HETATM   11  C   UNL     1      -5.400   4.007 -32.147  1.00  0.00     0.257 C 
HETATM   12  N   UNL     1      -4.256   3.322 -32.478  1.00  0.00    -0.352 N 
HETATM   13  H   UNL     1      -4.353   2.469 -33.013  1.00  0.00     0.163 HD
HETATM   14  O   UNL     1      -5.421   4.920 -31.329  1.00  0.00    -0.267 OA
BRANCH  12  15
HETATM   15  C   UNL     1      -2.996   3.585 -31.820  1.00  0.00     0.161 C 
BRANCH  15  16
HETATM   16  C   UNL     1      -2.197   4.671 -32.497  1.00  0.00    -0.041 A 
HETATM   17  C   UNL     1      -2.132   4.774 -33.895  1.00  0.00     0.009 A 
HETATM   18  C   UNL     1      -1.452   5.832 -34.501  1.00  0.00     0.001 A 
HETATM   19  C   UNL     1      -0.843   6.810 -33.718  1.00  0.00     0.000 A 
HETATM   20  C   UNL     1      -0.914   6.731 -32.329  1.00  0.00     0.001 A 
HETATM   21  C   UNL     1      -1.588   5.670 -31.722  1.00  0.00     0.009 A 
ENDBRANCH  15  16
ENDBRANCH  12  15
ENDBRANCH   7  11
BRANCH   1  22
HETATM   22  C   UNL     1      -6.270  -1.293 -33.686  1.00  0.00    -0.033 A 
HETATM   23  C   UNL     1      -5.088  -1.479 -32.950  1.00  0.00     0.046 A 
HETATM   24  C   UNL     1      -4.211  -2.533 -33.237  1.00  0.00     0.068 A 
HETATM   25  C   UNL     1      -4.526  -3.429 -34.256  1.00  0.00     0.037 A 
HETATM   26  C   UNL     1      -5.708  -3.274 -34.981  1.00  0.00     0.003 A 
HETATM   27  C   UNL     1      -6.575  -2.218 -34.697  1.00  0.00     0.009 A 
BRANCH  24  28
HETATM   28  O   UNL     1      -3.092  -2.570 -32.449  1.00  0.00    -0.356 OA
HETATM   29  C   UNL     1      -2.702  -1.351 -31.829  1.00  0.00     0.210 C 
ENDBRANCH  24  28
ENDBRANCH   1  22
BRANCH   8  30
HETATM   30  C   UNL     1     -10.194   0.999 -33.232  1.00  0.00     0.409 C 
HETATM   31  F   UNL     1     -11.375   1.589 -33.519  1.00  0.00    -0.169 F 
HETATM   32  F   UNL     1     -10.411  -0.331 -33.146  1.00  0.00    -0.169 F 
HETATM   33  F   UNL     1      -9.849   1.413 -31.984  1.00  0.00    -0.169 F 
ENDBRANCH   8  30
TORSDOF 6
ENDMDL
MODEL 2
REMARK VINA RESULT:      -9.3      1.392      2.095
REMARK  6 active torsions:
REMARK  status: ('A' for Active; 'I' for Inactive)
REMARK    1  A    between atoms: O_2  and  C_3 
REMARK    2  A    between atoms: C_5  and  C_6 
REMARK    3  A    between atoms: C_12  and  C_13 
REMARK       I    between atoms: C_13  and  N_14 
REMARK    4  A    between atoms: N_14  and  C_15 
REMARK    5  A    between atoms: C_15  and  C_16 
REMARK    6  A    between atoms: C_23  and  C_24 
ROOT
HETATM    1  C   UNL     1      -7.532   0.293 -33.292  1.00  0.00     0.118 C 
HETATM    2  N   UNL     1      -6.990   1.614 -32.966  1.00  0.00    -0.365 N 
HETATM    3  C   UNL     1      -7.696   2.744 -33.238  1.00  0.00     0.138 A 
HETATM    4  N   UNL     1      -8.892   2.676 -33.915  1.00  0.00    -0.240 N 
HETATM    5  N   UNL     1      -9.409   3.871 -34.237  1.00  0.00    -0.181 NA
HETATM    6  C   UNL     1      -8.554   4.729 -33.675  1.00  0.00     0.160 A 
HETATM    7  C   UNL     1      -7.470   4.091 -33.020  1.00  0.00     0.096 A 
HETATM    8  C   UNL     1      -9.491   1.449 -34.406  1.00  0.00     0.221 C 
HETATM    9  C   UNL     1      -8.405   0.372 -34.556  1.00  0.00     0.066 C 
HETATM   10  H   UNL     1      -5.973   1.645 -32.873  1.00  0.00     0.161 HD
ENDROOT
BRANCH   7  11
HETATM   11  C   UNL     1      -6.401   4.771 -32.313  1.00  0.00     0.257 C 
HETATM   12  N   UNL     1      -5.872   5.865 -32.955  1.00  0.00    -0.352 N 
HETATM   13  H   UNL     1      -6.140   6.024 -33.918  1.00  0.00     0.163 HD
HETATM   14  O   UNL     1      -5.986   4.363 -31.234  1.00  0.00    -0.267 OA
BRANCH  12  15
HETATM   15  C   UNL     1      -4.726   6.572 -32.432  1.00  0.00     0.161 C 
BRANCH  15  16
HETATM   16  C   UNL     1      -3.451   6.249 -33.170  1.00  0.00    -0.041 A 
HETATM   17  C   UNL     1      -3.414   5.284 -34.189  1.00  0.00     0.009 A 
HETATM   18  C   UNL     1      -2.243   5.058 -34.914  1.00  0.00     0.001 A 
HETATM   19  C   UNL     1      -1.098   5.803 -34.642  1.00  0.00     0.000 A 
HETATM   20  C   UNL     1      -1.123   6.777 -33.646  1.00  0.00     0.001 A 
HETATM   21  C   UNL     1      -2.293   7.001 -32.916  1.00  0.00     0.009 A 
ENDBRANCH  15  16
ENDBRANCH  12  15
ENDBRANCH   7  11
BRANCH   1  22
HETATM   22  C   UNL     1      -6.400  -0.712 -33.385  1.00  0.00    -0.033 A 
HETATM   23  C   UNL     1      -6.379  -1.734 -34.349  1.00  0.00     0.046 A 
HETATM   24  C   UNL     1      -5.323  -2.651 -34.416  1.00  0.00     0.068 A 
HETATM   25  C   UNL     1      -4.258  -2.535 -33.525  1.00  0.00     0.037 A 
HETATM   26  C   UNL     1      -4.249  -1.511 -32.577  1.00  0.00     0.003 A 
HETATM   27  C   UNL     1      -5.308  -0.605 -32.509  1.00  0.00     0.009 A 
BRANCH  24  28
HETATM   28  O   UNL     1      -5.455  -3.600 -35.392  1.00  0.00    -0.356 OA
HETATM   29  C   UNL     1      -6.566  -4.482 -35.284  1.00  0.00     0.210 C 
ENDBRANCH  24  28
ENDBRANCH   1  22
BRANCH   8  30
HETATM   30  C   UNL     1     -10.621   1.028 -33.493  1.00  0.00     0.409 C 
HETATM   31  F   UNL     1     -10.687   1.755 -32.357  1.00  0.00    -0.169 F 
HETATM   32  F   UNL     1     -11.830   1.089 -34.090  1.00  0.00    -0.169 F 
HETATM   33  F   UNL     1     -10.445  -0.266 -33.113  1.00  0.00    -0.169 F 
ENDBRANCH   8  30
TORSDOF 6
ENDMDL
MODEL 3
REMARK VINA RESULT:      -9.2      3.582      7.281
REMARK  6 active torsions:
REMARK  status: ('A' for Active; 'I' for Inactive)
REMARK    1  A    between atoms: O_2  and  C_3 
REMARK    2  A    between atoms: C_5  and  C_6 
REMARK    3  A    between atoms: C_12  and  C_13 
REMARK       I    between atoms: C_13  and  N_14 
REMARK    4  A    between atoms: N_14  and  C_15 
REMARK    5  A    between atoms: C_15  and  C_16 
REMARK    6  A    between atoms: C_23  and  C_24 
ROOT
HETATM    1  C   UNL     1      -5.337   0.313 -32.268  1.00  0.00     0.118 C 
HETATM    2  N   UNL     1      -6.763   0.454 -32.571  1.00  0.00    -0.365 N 
HETATM    3  C   UNL     1      -7.531   1.358 -31.906  1.00  0.00     0.138 A 
HETATM    4  N   UNL     1      -7.008   2.091 -30.866  1.00  0.00    -0.240 N 
HETATM    5  N   UNL     1      -7.909   2.838 -30.213  1.00  0.00    -0.181 NA
HETATM    6  C   UNL     1      -9.029   2.637 -30.912  1.00  0.00     0.160 A 
HETATM    7  C   UNL     1      -8.859   1.736 -31.994  1.00  0.00     0.096 A 
HETATM    8  C   UNL     1      -5.647   1.969 -30.377  1.00  0.00     0.221 C 
HETATM    9  C   UNL     1      -5.078   0.599 -30.779  1.00  0.00     0.066 C 
HETATM   10  H   UNL     1      -7.186  -0.364 -33.014  1.00  0.00     0.161 HD
ENDROOT
BRANCH   7  11
HETATM   11  C   UNL     1      -9.897   1.343 -32.929  1.00  0.00     0.257 C 
HETATM   12  N   UNL     1     -10.598   2.377 -33.501  1.00  0.00    -0.352 N 
HETATM   13  H   UNL     1     -10.460   3.307 -33.125  1.00  0.00     0.163 HD
HETATM   14  O   UNL     1     -10.143   0.163 -33.153  1.00  0.00    -0.267 OA
BRANCH  12  15
HETATM   15  C   UNL     1     -11.736   2.140 -34.359  1.00  0.00     0.161 C 
BRANCH  15  16
HETATM   16  C   UNL     1     -13.051   2.219 -33.623  1.00  0.00    -0.041 A 
HETATM   17  C   UNL     1     -14.131   1.387 -33.955  1.00  0.00     0.009 A 
HETATM   18  C   UNL     1     -15.311   1.420 -33.211  1.00  0.00     0.001 A 
HETATM   19  C   UNL     1     -15.422   2.273 -32.115  1.00  0.00     0.000 A 
HETATM   20  C   UNL     1     -14.352   3.092 -31.762  1.00  0.00     0.001 A 
HETATM   21  C   UNL     1     -13.173   3.064 -32.509  1.00  0.00     0.009 A 
ENDBRANCH  15  16
ENDBRANCH  12  15
ENDBRANCH   7  11
BRANCH   1  22
HETATM   22  C   UNL     1      -4.852  -1.048 -32.729  1.00  0.00    -0.033 A 
HETATM   23  C   UNL     1      -5.361  -1.678 -33.877  1.00  0.00     0.046 A 
HETATM   24  C   UNL     1      -4.898  -2.936 -34.283  1.00  0.00     0.068 A 
HETATM   25  C   UNL     1      -3.896  -3.567 -33.549  1.00  0.00     0.037 A 
HETATM   26  C   UNL     1      -3.361  -2.945 -32.420  1.00  0.00     0.003 A 
HETATM   27  C   UNL     1      -3.831  -1.695 -32.015  1.00  0.00     0.009 A 
BRANCH  24  28
HETATM   28  O   UNL     1      -5.504  -3.429 -35.406  1.00  0.00    -0.356 OA
HETATM   29  C   UNL     1      -6.442  -4.483 -35.220  1.00  0.00     0.210 C 
ENDBRANCH  24  28
ENDBRANCH   1  22
BRANCH   8  30
HETATM   30  C   UNL     1      -4.815   3.127 -30.880  1.00  0.00     0.409 C 
HETATM   31  F   UNL     1      -5.162   3.534 -32.120  1.00  0.00    -0.169 F 
HETATM   32  F   UNL     1      -4.865   4.203 -30.066  1.00  0.00    -0.169 F 
HETATM   33  F   UNL     1      -3.508   2.758 -30.947  1.00  0.00    -0.169 F 
ENDBRANCH   8  30
TORSDOF 6
ENDMDL
MODEL 4
REMARK VINA RESULT:      -9.0      2.300      3.442
REMARK  6 active torsions:
REMARK  status: ('A' for Active; 'I' for Inactive)
REMARK    1  A    between atoms: O_2  and  C_3 
REMARK    2  A    between atoms: C_5  and  C_6 
REMARK    3  A    between atoms: C_12  and  C_13 
REMARK       I    between atoms: C_13  and  N_14 
REMARK    4  A    between atoms: N_14  and  C_15 
REMARK    5  A    between atoms: C_15  and  C_16 
REMARK    6  A    between atoms: C_23  and  C_24 
ROOT
HETATM    1  C   UNL     1      -6.023   1.150 -33.102  1.00  0.00     0.118 C 
HETATM    2  N   UNL     1      -4.846   1.964 -32.790  1.00  0.00    -0.365 N 
HETATM    3  C   UNL     1      -4.897   3.321 -32.862  1.00  0.00     0.138 A 
HETATM    4  N   UNL     1      -6.028   3.956 -33.323  1.00  0.00    -0.240 N 
HETATM    5  N   UNL     1      -5.891   5.281 -33.473  1.00  0.00    -0.181 NA
HETATM    6  C   UNL     1      -4.658   5.510 -33.012  1.00  0.00     0.160 A 
HETATM    7  C   UNL     1      -3.988   4.330 -32.598  1.00  0.00     0.096 A 
HETATM    8  C   UNL     1      -7.224   3.275 -33.782  1.00  0.00     0.221 C 
HETATM    9  C   UNL     1      -6.871   1.834 -34.189  1.00  0.00     0.066 C 
HETATM   10  H   UNL     1      -3.955   1.471 -32.873  1.00  0.00     0.161 HD
ENDROOT
BRANCH   7  11
HETATM   11  C   UNL     1      -2.648   4.278 -32.045  1.00  0.00     0.257 C 
HETATM   12  N   UNL     1      -1.820   5.312 -32.408  1.00  0.00    -0.352 N 
HETATM   13  H   UNL     1      -2.134   5.935 -33.142  1.00  0.00     0.163 HD
HETATM   14  O   UNL     1      -2.285   3.348 -31.332  1.00  0.00    -0.267 OA
BRANCH  12  15
HETATM   15  C   UNL     1      -0.425   5.336 -32.032  1.00  0.00     0.161 C 
BRANCH  15  16
HETATM   16  C   UNL     1      -0.197   5.924 -30.661  1.00  0.00    -0.041 A 
HETATM   17  C   UNL     1       0.426   5.190 -29.640  1.00  0.00     0.009 A 
HETATM   18  C   UNL     1       0.698   5.779 -28.404  1.00  0.00     0.001 A 
HETATM   19  C   UNL     1       0.367   7.114 -28.178  1.00  0.00     0.000 A 
HETATM   20  C   UNL     1      -0.234   7.860 -29.188  1.00  0.00     0.001 A 
HETATM   21  C   UNL     1      -0.513   7.271 -30.423  1.00  0.00     0.009 A 
ENDBRANCH  15  16
ENDBRANCH  12  15
ENDBRANCH   7  11
BRANCH   1  22
HETATM   22  C   UNL     1      -5.587  -0.259 -33.456  1.00  0.00    -0.033 A 
HETATM   23  C   UNL     1      -6.467  -1.200 -34.015  1.00  0.00     0.046 A 
HETATM   24  C   UNL     1      -6.042  -2.496 -34.334  1.00  0.00     0.068 A 
HETATM   25  C   UNL     1      -4.714  -2.854 -34.113  1.00  0.00     0.037 A 
HETATM   26  C   UNL     1      -3.819  -1.925 -33.582  1.00  0.00     0.003 A 
HETATM   27  C   UNL     1      -4.250  -0.637 -33.259  1.00  0.00     0.009 A 
BRANCH  24  28
HETATM   28  O   UNL     1      -7.018  -3.303 -34.850  1.00  0.00    -0.356 OA
HETATM   29  C   UNL     1      -6.597  -4.543 -35.407  1.00  0.00     0.210 C 
ENDBRANCH  24  28
ENDBRANCH   1  22
BRANCH   8  30
HETATM   30  C   UNL     1      -8.295   3.343 -32.717  1.00  0.00     0.409 C 
HETATM   31  F   UNL     1      -7.796   3.377 -31.462  1.00  0.00    -0.169 F 
HETATM   32  F   UNL     1      -9.113   4.407 -32.861  1.00  0.00    -0.169 F 
HETATM   33  F   UNL     1      -9.085   2.239 -32.788  1.00  0.00    -0.169 F 
ENDBRANCH   8  30
TORSDOF 6
ENDMDL
MODEL 5
REMARK VINA RESULT:      -8.9      3.299      7.059
REMARK  6 active torsions:
REMARK  status: ('A' for Active; 'I' for Inactive)
REMARK    1  A    between atoms: O_2  and  C_3 
REMARK    2  A    between atoms: C_5  and  C_6 
REMARK    3  A    between atoms: C_12  and  C_13 
REMARK       I    between atoms: C_13  and  N_14 
REMARK    4  A    between atoms: N_14  and  C_15 
REMARK    5  A    between atoms: C_15  and  C_16 
REMARK    6  A    between atoms: C_23  and  C_24 
ROOT
HETATM    1  C   UNL     1      -5.565   0.409 -33.250  1.00  0.00     0.118 C 
HETATM    2  N   UNL     1      -6.862   1.041 -33.504  1.00  0.00    -0.365 N 
HETATM    3  C   UNL     1      -7.261   2.126 -32.787  1.00  0.00     0.138 A 
HETATM    4  N   UNL     1      -6.498   2.595 -31.742  1.00  0.00    -0.240 N 
HETATM    5  N   UNL     1      -7.076   3.578 -31.038  1.00  0.00    -0.181 NA
HETATM    6  C   UNL     1      -8.210   3.800 -31.707  1.00  0.00     0.160 A 
HETATM    7  C   UNL     1      -8.380   2.939 -32.822  1.00  0.00     0.096 A 
HETATM    8  C   UNL     1      -5.253   1.995 -31.300  1.00  0.00     0.221 C 
HETATM    9  C   UNL     1      -5.196   0.529 -31.762  1.00  0.00     0.066 C 
HETATM   10  H   UNL     1      -7.548   0.436 -33.958  1.00  0.00     0.161 HD
ENDROOT
BRANCH   7  11
HETATM   11  C   UNL     1      -9.507   2.963 -33.735  1.00  0.00     0.257 C 
HETATM   12  N   UNL     1     -10.272   1.822 -33.757  1.00  0.00    -0.352 N 
HETATM   13  H   UNL     1      -9.919   1.006 -33.273  1.00  0.00     0.163 HD
HETATM   14  O   UNL     1      -9.727   3.931 -34.456  1.00  0.00    -0.267 OA
BRANCH  12  15
HETATM   15  C   UNL     1     -11.356   1.652 -34.697  1.00  0.00     0.161 C 
BRANCH  15  16
HETATM   16  C   UNL     1     -12.712   1.653 -34.035  1.00  0.00    -0.041 A 
HETATM   17  C   UNL     1     -13.037   2.569 -33.023  1.00  0.00     0.009 A 
HETATM   18  C   UNL     1     -14.322   2.604 -32.479  1.00  0.00     0.001 A 
HETATM   19  C   UNL     1     -15.304   1.736 -32.952  1.00  0.00     0.000 A 
HETATM   20  C   UNL     1     -15.002   0.833 -33.968  1.00  0.00     0.001 A 
HETATM   21  C   UNL     1     -13.715   0.793 -34.509  1.00  0.00     0.009 A 
ENDBRANCH  15  16
ENDBRANCH  12  15
ENDBRANCH   7  11
BRANCH   1  22
HETATM   22  C   UNL     1      -5.586  -1.017 -33.768  1.00  0.00    -0.033 A 
HETATM   23  C   UNL     1      -4.553  -1.929 -33.497  1.00  0.00     0.046 A 
HETATM   24  C   UNL     1      -4.593  -3.241 -33.986  1.00  0.00     0.068 A 
HETATM   25  C   UNL     1      -5.690  -3.658 -34.738  1.00  0.00     0.037 A 
HETATM   26  C   UNL     1      -6.737  -2.772 -34.996  1.00  0.00     0.003 A 
HETATM   27  C   UNL     1      -6.688  -1.464 -34.513  1.00  0.00     0.009 A 
BRANCH  24  28
HETATM   28  O   UNL     1      -3.506  -4.004 -33.658  1.00  0.00    -0.356 OA
HETATM   29  C   UNL     1      -3.070  -3.951 -32.305  1.00  0.00     0.210 C 
ENDBRANCH  24  28
ENDBRANCH   1  22
BRANCH   8  30
HETATM   30  C   UNL     1      -4.083   2.817 -31.792  1.00  0.00     0.409 C 
HETATM   31  F   UNL     1      -2.947   2.099 -31.927  1.00  0.00    -0.169 F 
HETATM   32  F   UNL     1      -4.327   3.423 -32.973  1.00  0.00    -0.169 F 
HETATM   33  F   UNL     1      -3.810   3.807 -30.902  1.00  0.00    -0.169 F 
ENDBRANCH   8  30
TORSDOF 6
ENDMDL
MODEL 6
REMARK VINA RESULT:      -8.8      3.010      7.975
REMARK  6 active torsions:
REMARK  status: ('A' for Active; 'I' for Inactive)
REMARK    1  A    between atoms: O_2  and  C_3 
REMARK    2  A    between atoms: C_5  and  C_6 
REMARK    3  A    between atoms: C_12  and  C_13 
REMARK       I    between atoms: C_13  and  N_14 
REMARK    4  A    between atoms: N_14  and  C_15 
REMARK    5  A    between atoms: C_15  and  C_16 
REMARK    6  A    between atoms: C_23  and  C_24 
ROOT
HETATM    1  C   UNL     1      -4.340   4.917 -31.271  1.00  0.00     0.118 C 
HETATM    2  N   UNL     1      -4.001   3.503 -31.450  1.00  0.00    -0.365 N 
HETATM    3  C   UNL     1      -4.792   2.526 -30.930  1.00  0.00     0.138 A 
HETATM    4  N   UNL     1      -5.873   2.845 -30.142  1.00  0.00    -0.240 N 
HETATM    5  N   UNL     1      -6.478   1.787 -29.584  1.00  0.00    -0.181 NA
HETATM    6  C   UNL     1      -5.809   0.752 -30.100  1.00  0.00     0.160 A 
HETATM    7  C   UNL     1      -4.754   1.143 -30.964  1.00  0.00     0.096 A 
HETATM    8  C   UNL     1      -6.257   4.197 -29.780  1.00  0.00     0.221 C 
HETATM    9  C   UNL     1      -5.042   5.130 -29.919  1.00  0.00     0.066 C 
HETATM   10  H   UNL     1      -3.016   3.324 -31.652  1.00  0.00     0.161 HD
ENDROOT
BRANCH   7  11
HETATM   11  C   UNL     1      -3.872   0.236 -31.674  1.00  0.00     0.257 C 
HETATM   12  N   UNL     1      -4.435  -0.415 -32.746  1.00  0.00    -0.352 N 
HETATM   13  H   UNL     1      -5.437  -0.346 -32.869  1.00  0.00     0.163 HD
HETATM   14  O   UNL     1      -2.717   0.047 -31.307  1.00  0.00    -0.267 OA
BRANCH  12  15
HETATM   15  C   UNL     1      -3.718  -1.434 -33.477  1.00  0.00     0.161 C 
BRANCH  15  16
HETATM   16  C   UNL     1      -4.625  -2.501 -34.036  1.00  0.00    -0.041 A 
HETATM   17  C   UNL     1      -4.219  -3.842 -34.123  1.00  0.00     0.009 A 
HETATM   18  C   UNL     1      -5.102  -4.826 -34.571  1.00  0.00     0.001 A 
HETATM   19  C   UNL     1      -6.407  -4.487 -34.920  1.00  0.00     0.000 A 
HETATM   20  C   UNL     1      -6.831  -3.164 -34.822  1.00  0.00     0.001 A 
HETATM   21  C   UNL     1      -5.947  -2.177 -34.381  1.00  0.00     0.009 A 
ENDBRANCH  15  16
ENDBRANCH  12  15
ENDBRANCH   7  11
BRANCH   1  22
HETATM   22  C   UNL     1      -3.096   5.765 -31.461  1.00  0.00    -0.033 A 
HETATM   23  C   UNL     1      -3.153   7.161 -31.600  1.00  0.00     0.046 A 
HETATM   24  C   UNL     1      -1.991   7.923 -31.774  1.00  0.00     0.068 A 
HETATM   25  C   UNL     1      -0.751   7.288 -31.789  1.00  0.00     0.037 A 
HETATM   26  C   UNL     1      -0.674   5.904 -31.627  1.00  0.00     0.003 A 
HETATM   27  C   UNL     1      -1.835   5.149 -31.462  1.00  0.00     0.009 A 
BRANCH  24  28
HETATM   28  O   UNL     1      -2.208   9.267 -31.916  1.00  0.00    -0.356 OA
HETATM   29  C   UNL     1      -2.245  10.041 -30.723  1.00  0.00     0.210 C 
ENDBRANCH  24  28
ENDBRANCH   1  22
BRANCH   8  30
HETATM   30  C   UNL     1      -7.439   4.636 -30.613  1.00  0.00     0.409 C 
HETATM   31  F   UNL     1      -7.466   5.968 -30.839  1.00  0.00    -0.169 F 
HETATM   32  F   UNL     1      -7.498   4.016 -31.810  1.00  0.00    -0.169 F 
HETATM   33  F   UNL     1      -8.595   4.332 -29.966  1.00  0.00    -0.169 F 
ENDBRANCH   8  30
TORSDOF 6
ENDMDL
MODEL 7
REMARK VINA RESULT:      -8.8      2.921      8.101
REMARK  6 active torsions:
REMARK  status: ('A' for Active; 'I' for Inactive)
REMARK    1  A    between atoms: O_2  and  C_3 
REMARK    2  A    between atoms: C_5  and  C_6 
REMARK    3  A    between atoms: C_12  and  C_13 
REMARK       I    between atoms: C_13  and  N_14 
REMARK    4  A    between atoms: N_14  and  C_15 
REMARK    5  A    between atoms: C_15  and  C_16 
REMARK    6  A    between atoms: C_23  and  C_24 
ROOT
HETATM    1  C   UNL     1      -3.484   5.439 -31.721  1.00  0.00     0.118 C 
HETATM    2  N   UNL     1      -3.448   3.980 -31.840  1.00  0.00    -0.365 N 
HETATM    3  C   UNL     1      -4.599   3.254 -31.871  1.00  0.00     0.138 A 
HETATM    4  N   UNL     1      -5.818   3.867 -31.693  1.00  0.00    -0.240 N 
HETATM    5  N   UNL     1      -6.851   3.018 -31.607  1.00  0.00    -0.181 NA
HETATM    6  C   UNL     1      -6.282   1.829 -31.820  1.00  0.00     0.160 A 
HETATM    7  C   UNL     1      -4.878   1.907 -32.010  1.00  0.00     0.096 A 
HETATM    8  C   UNL     1      -5.997   5.285 -31.443  1.00  0.00     0.221 C 
HETATM    9  C   UNL     1      -4.695   5.876 -30.879  1.00  0.00     0.066 C 
HETATM   10  H   UNL     1      -2.570   3.550 -31.545  1.00  0.00     0.161 HD
ENDROOT
BRANCH   7  11
HETATM   11  C   UNL     1      -4.004   0.779 -32.274  1.00  0.00     0.257 C 
HETATM   12  N   UNL     1      -4.494  -0.152 -33.158  1.00  0.00    -0.352 N 
HETATM   13  H   UNL     1      -5.464  -0.078 -33.434  1.00  0.00     0.163 HD
HETATM   14  O   UNL     1      -2.922   0.662 -31.709  1.00  0.00    -0.267 OA
BRANCH  12  15
HETATM   15  C   UNL     1      -3.790  -1.385 -33.429  1.00  0.00     0.161 C 
BRANCH  15  16
HETATM   16  C   UNL     1      -4.705  -2.492 -33.892  1.00  0.00    -0.041 A 
HETATM   17  C   UNL     1      -6.027  -2.236 -34.290  1.00  0.00     0.009 A 
HETATM   18  C   UNL     1      -6.831  -3.262 -34.789  1.00  0.00     0.001 A 
HETATM   19  C   UNL     1      -6.320  -4.552 -34.913  1.00  0.00     0.000 A 
HETATM   20  C   UNL     1      -5.005  -4.818 -34.539  1.00  0.00     0.001 A 
HETATM   21  C   UNL     1      -4.201  -3.794 -34.034  1.00  0.00     0.009 A 
ENDBRANCH  15  16
ENDBRANCH  12  15
ENDBRANCH   7  11
BRANCH   1  22
HETATM   22  C   UNL     1      -2.152   5.938 -31.194  1.00  0.00    -0.033 A 
HETATM   23  C   UNL     1      -2.054   7.025 -30.309  1.00  0.00     0.046 A 
HETATM   24  C   UNL     1      -0.813   7.468 -29.835  1.00  0.00     0.068 A 
HETATM   25  C   UNL     1       0.347   6.805 -30.229  1.00  0.00     0.037 A 
HETATM   26  C   UNL     1       0.267   5.707 -31.087  1.00  0.00     0.003 A 
HETATM   27  C   UNL     1      -0.972   5.275 -31.563  1.00  0.00     0.009 A 
BRANCH  24  28
HETATM   28  O   UNL     1      -0.877   8.550 -28.999  1.00  0.00    -0.356 OA
HETATM   29  C   UNL     1      -0.184   8.447 -27.762  1.00  0.00     0.210 C 
ENDBRANCH  24  28
ENDBRANCH   1  22
BRANCH   8  30
HETATM   30  C   UNL     1      -6.461   5.974 -32.707  1.00  0.00     0.409 C 
HETATM   31  F   UNL     1      -5.915   5.455 -33.828  1.00  0.00    -0.169 F 
HETATM   32  F   UNL     1      -7.802   5.952 -32.856  1.00  0.00    -0.169 F 
HETATM   33  F   UNL     1      -6.101   7.285 -32.674  1.00  0.00    -0.169 F 
ENDBRANCH   8  30
TORSDOF 6
ENDMDL
MODEL 8
REMARK VINA RESULT:      -8.5      2.829      5.330
REMARK  6 active torsions:
REMARK  status: ('A' for Active; 'I' for Inactive)
REMARK    1  A    between atoms: O_2  and  C_3 
REMARK    2  A    between atoms: C_5  and  C_6 
REMARK    3  A    between atoms: C_12  and  C_13 
REMARK       I    between atoms: C_13  and  N_14 
REMARK    4  A    between atoms: N_14  and  C_15 
REMARK    5  A    between atoms: C_15  and  C_16 
REMARK    6  A    between atoms: C_23  and  C_24 
ROOT
HETATM    1  C   UNL     1      -8.412   0.907 -34.088  1.00  0.00     0.118 C 
HETATM    2  N   UNL     1      -7.466   1.959 -33.708  1.00  0.00    -0.365 N 
HETATM    3  C   UNL     1      -6.242   1.647 -33.202  1.00  0.00     0.138 A 
HETATM    4  N   UNL     1      -5.903   0.338 -32.946  1.00  0.00    -0.240 N 
HETATM    5  N   UNL     1      -4.727   0.188 -32.321  1.00  0.00    -0.181 NA
HETATM    6  C   UNL     1      -4.262   1.438 -32.252  1.00  0.00     0.160 A 
HETATM    7  C   UNL     1      -5.152   2.397 -32.800  1.00  0.00     0.096 A 
HETATM    8  C   UNL     1      -6.784  -0.796 -33.157  1.00  0.00     0.221 C 
HETATM    9  C   UNL     1      -8.245  -0.317 -33.171  1.00  0.00     0.066 C 
HETATM   10  H   UNL     1      -7.894   2.865 -33.513  1.00  0.00     0.161 HD
ENDROOT
BRANCH   7  11
HETATM   11  C   UNL     1      -4.904   3.825 -32.873  1.00  0.00     0.257 C 
HETATM   12  N   UNL     1      -3.986   4.310 -31.973  1.00  0.00    -0.352 N 
HETATM   13  H   UNL     1      -3.674   3.692 -31.235  1.00  0.00     0.163 HD
HETATM   14  O   UNL     1      -5.507   4.540 -33.666  1.00  0.00    -0.267 OA
BRANCH  12  15
HETATM   15  C   UNL     1      -3.722   5.725 -31.847  1.00  0.00     0.161 C 
BRANCH  15  16
HETATM   16  C   UNL     1      -2.275   6.027 -31.545  1.00  0.00    -0.041 A 
HETATM   17  C   UNL     1      -1.892   7.195 -30.867  1.00  0.00     0.009 A 
HETATM   18  C   UNL     1      -0.557   7.416 -30.528  1.00  0.00     0.001 A 
HETATM   19  C   UNL     1       0.411   6.466 -30.845  1.00  0.00     0.000 A 
HETATM   20  C   UNL     1       0.045   5.294 -31.502  1.00  0.00     0.001 A 
HETATM   21  C   UNL     1      -1.290   5.073 -31.847  1.00  0.00     0.009 A 
ENDBRANCH  15  16
ENDBRANCH  12  15
ENDBRANCH   7  11
BRANCH   1  22
HETATM   22  C   UNL     1      -9.819   1.474 -34.110  1.00  0.00    -0.033 A 
HETATM   23  C   UNL     1     -10.941   0.713 -33.742  1.00  0.00     0.046 A 
HETATM   24  C   UNL     1     -12.231   1.258 -33.772  1.00  0.00     0.068 A 
HETATM   25  C   UNL     1     -12.405   2.587 -34.150  1.00  0.00     0.037 A 
HETATM   26  C   UNL     1     -11.299   3.365 -34.495  1.00  0.00     0.003 A 
HETATM   27  C   UNL     1     -10.016   2.815 -34.472  1.00  0.00     0.009 A 
BRANCH  24  28
HETATM   28  O   UNL     1     -13.223   0.389 -33.407  1.00  0.00    -0.356 OA
HETATM   29  C   UNL     1     -14.533   0.675 -33.882  1.00  0.00     0.210 C 
ENDBRANCH  24  28
ENDBRANCH   1  22
BRANCH   8  30
HETATM   30  C   UNL     1      -6.388  -1.524 -34.422  1.00  0.00     0.409 C 
HETATM   31  F   UNL     1      -5.144  -2.048 -34.368  1.00  0.00    -0.169 F 
HETATM   32  F   UNL     1      -7.239  -2.522 -34.742  1.00  0.00    -0.169 F 
HETATM   33  F   UNL     1      -6.398  -0.660 -35.472  1.00  0.00    -0.169 F 
ENDBRANCH   8  30
TORSDOF 6
ENDMDL
MODEL 9
REMARK VINA RESULT:      -8.5      3.699      6.707
REMARK  6 active torsions:
REMARK  status: ('A' for Active; 'I' for Inactive)
REMARK    1  A    between atoms: O_2  and  C_3 
REMARK    2  A    between atoms: C_5  and  C_6 
REMARK    3  A    between atoms: C_12  and  C_13 
REMARK       I    between atoms: C_13  and  N_14 
REMARK    4  A    between atoms: N_14  and  C_15 
REMARK    5  A    between atoms: C_15  and  C_16 
REMARK    6  A    between atoms: C_23  and  C_24 
ROOT
HETATM    1  C   UNL     1      -6.153   0.486 -32.598  1.00  0.00     0.118 C 
HETATM    2  N   UNL     1      -7.543   0.914 -32.774  1.00  0.00    -0.365 N 
HETATM    3  C   UNL     1      -8.115   1.797 -31.912  1.00  0.00     0.138 A 
HETATM    4  N   UNL     1      -7.432   2.233 -30.799  1.00  0.00    -0.240 N 
HETATM    5  N   UNL     1      -8.163   2.987 -29.967  1.00  0.00    -0.181 NA
HETATM    6  C   UNL     1      -9.327   3.105 -30.611  1.00  0.00     0.160 A 
HETATM    7  C   UNL     1      -9.358   2.400 -31.842  1.00  0.00     0.096 A 
HETATM    8  C   UNL     1      -6.097   1.799 -30.432  1.00  0.00     0.221 C 
HETATM    9  C   UNL     1      -5.792   0.449 -31.103  1.00  0.00     0.066 C 
HETATM   10  H   UNL     1      -8.120   0.273 -33.321  1.00  0.00     0.161 HD
ENDROOT
BRANCH   7  11
HETATM   11  C   UNL     1     -10.484   2.362 -32.757  1.00  0.00     0.257 C 
HETATM   12  N   UNL     1     -11.648   2.915 -32.282  1.00  0.00    -0.352 N 
HETATM   13  H   UNL     1     -11.691   3.158 -31.301  1.00  0.00     0.163 HD
HETATM   14  O   UNL     1     -10.393   1.836 -33.861  1.00  0.00    -0.267 OA
BRANCH  12  15
HETATM   15  C   UNL     1     -12.882   2.846 -33.031  1.00  0.00     0.161 C 
BRANCH  15  16
HETATM   16  C   UNL     1     -13.184   4.119 -33.782  1.00  0.00    -0.041 A 
HETATM   17  C   UNL     1     -13.819   5.207 -33.161  1.00  0.00     0.009 A 
HETATM   18  C   UNL     1     -14.018   6.404 -33.850  1.00  0.00     0.001 A 
HETATM   19  C   UNL     1     -13.570   6.537 -35.163  1.00  0.00     0.000 A 
HETATM   20  C   UNL     1     -12.922   5.473 -35.786  1.00  0.00     0.001 A 
HETATM   21  C   UNL     1     -12.728   4.273 -35.100  1.00  0.00     0.009 A 
ENDBRANCH  15  16
ENDBRANCH  12  15
ENDBRANCH   7  11
BRANCH   1  22
HETATM   22  C   UNL     1      -5.933  -0.831 -33.319  1.00  0.00    -0.033 A 
HETATM   23  C   UNL     1      -4.793  -1.623 -33.104  1.00  0.00     0.046 A 
HETATM   24  C   UNL     1      -4.611  -2.835 -33.781  1.00  0.00     0.068 A 
HETATM   25  C   UNL     1      -5.589  -3.277 -34.669  1.00  0.00     0.037 A 
HETATM   26  C   UNL     1      -6.740  -2.515 -34.876  1.00  0.00     0.003 A 
HETATM   27  C   UNL     1      -6.913  -1.304 -34.204  1.00  0.00     0.009 A 
BRANCH  24  28
HETATM   28  O   UNL     1      -3.443  -3.482 -33.484  1.00  0.00    -0.356 OA
HETATM   29  C   UNL     1      -3.412  -4.886 -33.709  1.00  0.00     0.210 C 
ENDBRANCH  24  28
ENDBRANCH   1  22
BRANCH   8  30
HETATM   30  C   UNL     1      -5.093   2.874 -30.783  1.00  0.00     0.409 C 
HETATM   31  F   UNL     1      -3.835   2.403 -30.925  1.00  0.00    -0.169 F 
HETATM   32  F   UNL     1      -5.410   3.540 -31.914  1.00  0.00    -0.169 F 
HETATM   33  F   UNL     1      -5.048   3.802 -29.791  1.00  0.00    -0.169 F 
ENDBRANCH   8  30
TORSDOF 6
ENDMDL
MODEL 10
REMARK VINA RESULT:      -8.5      2.864      5.300
REMARK  6 active torsions:
REMARK  status: ('A' for Active; 'I' for Inactive)
REMARK    1  A    between atoms: O_2  and  C_3 
REMARK    2  A    between atoms: C_5  and  C_6 
REMARK    3  A    between atoms: C_12  and  C_13 
REMARK       I    between atoms: C_13  and  N_14 
REMARK    4  A    between atoms: N_14  and  C_15 
REMARK    5  A    between atoms: C_15  and  C_16 
REMARK    6  A    between atoms: C_23  and  C_24 
ROOT
HETATM    1  C   UNL     1      -8.463   1.365 -33.906  1.00  0.00     0.118 C 
HETATM    2  N   UNL     1      -7.656   2.117 -32.943  1.00  0.00    -0.365 N 
HETATM    3  C   UNL     1      -6.743   1.487 -32.155  1.00  0.00     0.138 A 
HETATM    4  N   UNL     1      -6.628   0.116 -32.176  1.00  0.00    -0.240 N 
HETATM    5  N   UNL     1      -5.792  -0.379 -31.253  1.00  0.00    -0.181 NA
HETATM    6  C   UNL     1      -5.294   0.719 -30.679  1.00  0.00     0.160 A 
HETATM    7  C   UNL     1      -5.834   1.920 -31.207  1.00  0.00     0.096 A 
HETATM    8  C   UNL     1      -7.445  -0.766 -32.989  1.00  0.00     0.221 C 
HETATM    9  C   UNL     1      -8.751  -0.049 -33.371  1.00  0.00     0.066 C 
HETATM   10  H   UNL     1      -8.055   3.014 -32.662  1.00  0.00     0.161 HD
ENDROOT
BRANCH   7  11
HETATM   11  C   UNL     1      -5.469   3.259 -30.785  1.00  0.00     0.257 C 
HETATM   12  N   UNL     1      -4.763   3.996 -31.706  1.00  0.00    -0.352 N 
HETATM   13  H   UNL     1      -4.414   3.518 -32.527  1.00  0.00     0.163 HD
HETATM   14  O   UNL     1      -5.749   3.676 -29.666  1.00  0.00    -0.267 OA
BRANCH  12  15
HETATM   15  C   UNL     1      -4.230   5.300 -31.386  1.00  0.00     0.161 C 
BRANCH  15  16
HETATM   16  C   UNL     1      -3.107   5.715 -32.304  1.00  0.00    -0.041 A 
HETATM   17  C   UNL     1      -2.546   4.822 -33.231  1.00  0.00     0.009 A 
HETATM   18  C   UNL     1      -1.562   5.249 -34.125  1.00  0.00     0.001 A 
HETATM   19  C   UNL     1      -1.138   6.576 -34.116  1.00  0.00     0.000 A 
HETATM   20  C   UNL     1      -1.698   7.478 -33.214  1.00  0.00     0.001 A 
HETATM   21  C   UNL     1      -2.678   7.051 -32.316  1.00  0.00     0.009 A 
ENDBRANCH  15  16
ENDBRANCH  12  15
ENDBRANCH   7  11
BRANCH   1  22
HETATM   22  C   UNL     1      -9.709   2.158 -34.253  1.00  0.00    -0.033 A 
HETATM   23  C   UNL     1     -10.909   1.541 -34.642  1.00  0.00     0.046 A 
HETATM   24  C   UNL     1     -12.046   2.294 -34.959  1.00  0.00     0.068 A 
HETATM   25  C   UNL     1     -11.996   3.683 -34.864  1.00  0.00     0.037 A 
HETATM   26  C   UNL     1     -10.819   4.313 -34.455  1.00  0.00     0.003 A 
HETATM   27  C   UNL     1      -9.687   3.558 -34.149  1.00  0.00     0.009 A 
BRANCH  24  28
HETATM   28  O   UNL     1     -13.131   1.553 -35.341  1.00  0.00    -0.356 OA
HETATM   29  C   UNL     1     -13.852   0.891 -34.308  1.00  0.00     0.210 C 
ENDBRANCH  24  28
ENDBRANCH   1  22
BRANCH   8  30
HETATM   30  C   UNL     1      -6.656  -1.237 -34.189  1.00  0.00     0.409 C 
HETATM   31  F   UNL     1      -7.414  -1.400 -35.295  1.00  0.00    -0.169 F 
HETATM   32  F   UNL     1      -5.639  -0.408 -34.508  1.00  0.00    -0.169 F 
HETATM   33  F   UNL     1      -6.095  -2.447 -33.924  1.00  0.00    -0.169 F 
ENDBRANCH   8  30
TORSDOF 6
ENDMDL
