MODEL 1
REMARK VINA RESULT:      -9.0      0.000      0.000
REMARK  5 active torsions:
REMARK  status: ('A' for Active; 'I' for Inactive)
REMARK    1  A    between atoms: C_8  and  C_9 
REMARK    2  A    between atoms: C_9  and  N_10 
REMARK       I    between atoms: N_10  and  C_11 
REMARK       I    between atoms: C_11  and  N_12 
REMARK    3  A    between atoms: N_12  and  C_13 
REMARK    4  A    between atoms: C_15  and  N_16 
REMARK       I    between atoms: N_16  and  C_17 
REMARK    5  A    between atoms: C_17  and  C_18 
ROOT
HETATM    1  C   UNL     1      -5.827   2.595 -31.399  1.00  0.00     0.038 A 
HETATM    2  C   UNL     1      -5.858   1.681 -32.450  1.00  0.00     0.059 A 
HETATM    3  C   UNL     1      -5.994   0.307 -32.225  1.00  0.00     0.036 A 
HETATM    4  C   UNL     1      -5.997  -0.178 -30.921  1.00  0.00     0.029 A 
HETATM    5  C   UNL     1      -5.937   0.720 -29.853  1.00  0.00     0.004 A 
HETATM    6  C   UNL     1      -5.862   2.097 -30.091  1.00  0.00     0.029 A 
ENDROOT
BRANCH   1   7
HETATM    7  N   UNL     1      -5.693   3.988 -31.570  1.00  0.00    -0.309 N 
HETATM    8  C   UNL     1      -4.604   4.810 -31.555  1.00  0.00     0.320 C 
HETATM    9  N   UNL     1      -3.388   4.254 -31.762  1.00  0.00    -0.338 N 
HETATM   10  O   UNL     1      -4.769   6.011 -31.358  1.00  0.00    -0.247 OA
HETATM   11  H   UNL     1      -3.338   3.391 -32.285  1.00  0.00     0.164 HD
HETATM   12  H   UNL     1      -6.553   4.523 -31.581  1.00  0.00     0.170 HD
BRANCH   9  13
HETATM   13  C   UNL     1      -2.143   4.929 -31.484  1.00  0.00     0.167 C 
BRANCH  13  14
HETATM   14  C   UNL     1      -1.984   6.025 -32.487  1.00  0.00     0.009 A 
HETATM   15  C   UNL     1      -1.949   5.916 -33.868  1.00  0.00     0.034 A 
HETATM   16  C   UNL     1      -2.067   4.746 -34.769  1.00  0.00     0.070 C 
HETATM   17  N   UNL     1      -1.793   7.186 -34.344  1.00  0.00    -0.282 N 
HETATM   18  H   UNL     1      -1.724   7.487 -35.310  1.00  0.00     0.189 HD
HETATM   19  N   UNL     1      -1.727   8.118 -33.386  1.00  0.00    -0.179 NA
HETATM   20  C   UNL     1      -1.841   7.423 -32.247  1.00  0.00     0.060 A 
HETATM   21  C   UNL     1      -1.818   8.133 -30.944  1.00  0.00     0.073 C 
ENDBRANCH  13  14
ENDBRANCH   9  13
ENDBRANCH   1   7
BRANCH   3  22
HETATM   22  N   UNL     1      -6.062  -0.589 -33.311  1.00  0.00    -0.327 N 
HETATM   23  C   UNL     1      -4.947  -1.220 -33.846  1.00  0.00     0.226 C 
HETATM   24  O   UNL     1      -3.786  -0.871 -33.631  1.00  0.00    -0.273 OA
HETATM   25  H   UNL     1      -6.910  -0.587 -33.861  1.00  0.00     0.169 HD
BRANCH  23  26
HETATM   26  C   UNL     1      -5.243  -2.476 -34.654  1.00  0.00     0.078 C 
HETATM   27  C   UNL     1      -4.571  -3.774 -34.227  1.00  0.00     0.014 C 
HETATM   28  C   UNL     1      -5.360  -4.825 -34.991  1.00  0.00     0.001 C 
HETATM   29  C   UNL     1      -6.800  -4.321 -34.982  1.00  0.00     0.001 C 
HETATM   30  C   UNL     1      -6.729  -2.839 -34.613  1.00  0.00     0.014 C 
ENDBRANCH  23  26
ENDBRANCH   3  22
TORSDOF 5
ENDMDL
MODEL 2
REMARK VINA RESULT:      -8.8      4.435      6.845
REMARK  5 active torsions:
REMARK  status: ('A' for Active; 'I' for Inactive)
REMARK    1  A    between atoms: C_8  and  C_9 
REMARK    2  A    between atoms: C_9  and  N_10 
REMARK       I    between atoms: N_10  and  C_11 
REMARK       I    between atoms: C_11  and  N_12 
REMARK    3  A    between atoms: N_12  and  C_13 
REMARK    4  A    between atoms: C_15  and  N_16 
REMARK       I    between atoms: N_16  and  C_17 
REMARK    5  A    between atoms: C_17  and  C_18 
ROOT
HETATM    1  C   UNL     1      -7.780   2.227 -31.418  1.00  0.00     0.038 A 
HETATM    2  C   UNL     1      -7.584   0.937 -31.906  1.00  0.00     0.059 A 
HETATM    3  C   UNL     1      -6.497   0.618 -32.726  1.00  0.00     0.036 A 
HETATM    4  C   UNL     1      -5.641   1.628 -33.154  1.00  0.00     0.029 A 
HETATM    5  C   UNL     1      -5.838   2.934 -32.701  1.00  0.00     0.004 A 
HETATM    6  C   UNL     1      -6.895   3.229 -31.832  1.00  0.00     0.029 A 
ENDROOT
BRANCH   1   7
HETATM    7  N   UNL     1      -8.857   2.601 -30.589  1.00  0.00    -0.309 N 
HETATM    8  C   UNL     1     -10.115   3.048 -30.870  1.00  0.00     0.320 C 
HETATM    9  N   UNL     1     -10.616   2.796 -32.102  1.00  0.00    -0.338 N 
HETATM   10  O   UNL     1     -10.739   3.654 -30.003  1.00  0.00    -0.247 OA
HETATM   11  H   UNL     1     -10.258   2.001 -32.611  1.00  0.00     0.164 HD
HETATM   12  H   UNL     1      -8.654   2.687 -29.601  1.00  0.00     0.170 HD
BRANCH   9  13
HETATM   13  C   UNL     1     -11.786   3.450 -32.638  1.00  0.00     0.167 C 
BRANCH  13  14
HETATM   14  C   UNL     1     -11.959   2.992 -34.049  1.00  0.00     0.009 A 
HETATM   15  C   UNL     1     -11.451   3.573 -35.201  1.00  0.00     0.034 A 
HETATM   16  C   UNL     1     -10.599   4.767 -35.411  1.00  0.00     0.070 C 
HETATM   17  N   UNL     1     -11.875   2.792 -36.237  1.00  0.00    -0.282 N 
HETATM   18  H   UNL     1     -11.695   2.917 -37.227  1.00  0.00     0.189 HD
HETATM   19  N   UNL     1     -12.616   1.744 -35.857  1.00  0.00    -0.179 NA
HETATM   20  C   UNL     1     -12.676   1.855 -34.524  1.00  0.00     0.060 A 
HETATM   21  C   UNL     1     -13.425   0.847 -33.733  1.00  0.00     0.073 C 
ENDBRANCH  13  14
ENDBRANCH   9  13
ENDBRANCH   1   7
BRANCH   3  22
HETATM   22  N   UNL     1      -6.304  -0.706 -33.170  1.00  0.00    -0.327 N 
HETATM   23  C   UNL     1      -6.489  -1.099 -34.489  1.00  0.00     0.226 C 
HETATM   24  O   UNL     1      -7.091  -0.432 -35.330  1.00  0.00    -0.273 OA
HETATM   25  H   UNL     1      -6.259  -1.429 -32.465  1.00  0.00     0.169 HD
BRANCH  23  26
HETATM   26  C   UNL     1      -5.791  -2.394 -34.879  1.00  0.00     0.078 C 
HETATM   27  C   UNL     1      -4.626  -2.864 -34.018  1.00  0.00     0.014 C 
HETATM   28  C   UNL     1      -4.440  -4.305 -34.467  1.00  0.00     0.001 C 
HETATM   29  C   UNL     1      -5.852  -4.824 -34.721  1.00  0.00     0.001 C 
HETATM   30  C   UNL     1      -6.745  -3.589 -34.833  1.00  0.00     0.014 C 
ENDBRANCH  23  26
ENDBRANCH   3  22
TORSDOF 5
ENDMDL
MODEL 3
REMARK VINA RESULT:      -8.8      1.678      2.278
REMARK  5 active torsions:
REMARK  status: ('A' for Active; 'I' for Inactive)
REMARK    1  A    between atoms: C_8  and  C_9 
REMARK    2  A    between atoms: C_9  and  N_10 
REMARK       I    between atoms: N_10  and  C_11 
REMARK       I    between atoms: C_11  and  N_12 
REMARK    3  A    between atoms: N_12  and  C_13 
REMARK    4  A    between atoms: C_15  and  N_16 
REMARK       I    between atoms: N_16  and  C_17 
REMARK    5  A    between atoms: C_17  and  C_18 
ROOT
HETATM    1  C   UNL     1      -4.327   1.736 -30.963  1.00  0.00     0.038 A 
HETATM    2  C   UNL     1      -4.523   0.603 -31.750  1.00  0.00     0.059 A 
HETATM    3  C   UNL     1      -5.739  -0.087 -31.756  1.00  0.00     0.036 A 
HETATM    4  C   UNL     1      -6.752   0.300 -30.882  1.00  0.00     0.029 A 
HETATM    5  C   UNL     1      -6.564   1.415 -30.064  1.00  0.00     0.004 A 
HETATM    6  C   UNL     1      -5.363   2.133 -30.111  1.00  0.00     0.029 A 
ENDROOT
BRANCH   1   7
HETATM    7  N   UNL     1      -3.123   2.467 -30.921  1.00  0.00    -0.309 N 
HETATM    8  C   UNL     1      -2.833   3.770 -31.206  1.00  0.00     0.320 C 
HETATM    9  N   UNL     1      -3.852   4.660 -31.202  1.00  0.00    -0.338 N 
HETATM   10  O   UNL     1      -1.670   4.080 -31.452  1.00  0.00    -0.247 OA
HETATM   11  H   UNL     1      -4.665   4.455 -30.639  1.00  0.00     0.164 HD
HETATM   12  H   UNL     1      -2.276   1.929 -30.780  1.00  0.00     0.170 HD
BRANCH   9  13
HETATM   13  C   UNL     1      -3.757   5.985 -31.765  1.00  0.00     0.167 C 
BRANCH  13  14
HETATM   14  C   UNL     1      -3.617   5.844 -33.246  1.00  0.00     0.009 A 
HETATM   15  C   UNL     1      -2.546   6.224 -34.039  1.00  0.00     0.034 A 
HETATM   16  C   UNL     1      -1.244   6.847 -33.708  1.00  0.00     0.070 C 
HETATM   17  N   UNL     1      -2.885   5.887 -35.318  1.00  0.00    -0.282 N 
HETATM   18  H   UNL     1      -2.341   6.019 -36.164  1.00  0.00     0.189 HD
HETATM   19  N   UNL     1      -4.089   5.313 -35.425  1.00  0.00    -0.179 NA
HETATM   20  C   UNL     1      -4.548   5.282 -34.168  1.00  0.00     0.060 A 
HETATM   21  C   UNL     1      -5.883   4.698 -33.883  1.00  0.00     0.073 C 
ENDBRANCH  13  14
ENDBRANCH   9  13
ENDBRANCH   1   7
BRANCH   3  22
HETATM   22  N   UNL     1      -5.919  -1.207 -32.593  1.00  0.00    -0.327 N 
HETATM   23  C   UNL     1      -5.965  -1.120 -33.978  1.00  0.00     0.226 C 
HETATM   24  O   UNL     1      -6.131  -0.070 -34.599  1.00  0.00    -0.273 OA
HETATM   25  H   UNL     1      -6.259  -2.056 -32.163  1.00  0.00     0.169 HD
BRANCH  23  26
HETATM   26  C   UNL     1      -5.680  -2.421 -34.714  1.00  0.00     0.078 C 
HETATM   27  C   UNL     1      -4.618  -3.349 -34.140  1.00  0.00     0.014 C 
HETATM   28  C   UNL     1      -4.869  -4.648 -34.890  1.00  0.00     0.001 C 
HETATM   29  C   UNL     1      -6.385  -4.731 -35.037  1.00  0.00     0.001 C 
HETATM   30  C   UNL     1      -6.916  -3.322 -34.773  1.00  0.00     0.014 C 
ENDBRANCH  23  26
ENDBRANCH   3  22
TORSDOF 5
ENDMDL
MODEL 4
REMARK VINA RESULT:      -8.7      2.864      8.846
REMARK  5 active torsions:
REMARK  status: ('A' for Active; 'I' for Inactive)
REMARK    1  A    between atoms: C_8  and  C_9 
REMARK    2  A    between atoms: C_9  and  N_10 
REMARK       I    between atoms: N_10  and  C_11 
REMARK       I    between atoms: C_11  and  N_12 
REMARK    3  A    between atoms: N_12  and  C_13 
REMARK    4  A    between atoms: C_15  and  N_16 
REMARK       I    between atoms: N_16  and  C_17 
REMARK    5  A    between atoms: C_17  and  C_18 
ROOT
HETATM    1  C   UNL     1      -4.118   5.627 -33.671  1.00  0.00     0.038 A 
HETATM    2  C   UNL     1      -3.429   6.003 -32.519  1.00  0.00     0.059 A 
HETATM    3  C   UNL     1      -2.034   6.106 -32.498  1.00  0.00     0.036 A 
HETATM    4  C   UNL     1      -1.301   5.729 -33.619  1.00  0.00     0.029 A 
HETATM    5  C   UNL     1      -1.972   5.320 -34.773  1.00  0.00     0.004 A 
HETATM    6  C   UNL     1      -3.371   5.279 -34.801  1.00  0.00     0.029 A 
ENDROOT
BRANCH   1   7
HETATM    7  N   UNL     1      -5.521   5.509 -33.746  1.00  0.00    -0.309 N 
HETATM    8  C   UNL     1      -6.341   4.427 -33.876  1.00  0.00     0.320 C 
HETATM    9  N   UNL     1      -5.846   3.213 -33.539  1.00  0.00    -0.338 N 
HETATM   10  O   UNL     1      -7.486   4.594 -34.288  1.00  0.00    -0.247 OA
HETATM   11  H   UNL     1      -5.091   3.172 -32.870  1.00  0.00     0.164 HD
HETATM   12  H   UNL     1      -6.038   6.372 -33.855  1.00  0.00     0.170 HD
BRANCH   9  13
HETATM   13  C   UNL     1      -6.477   1.965 -33.897  1.00  0.00     0.167 C 
BRANCH  13  14
HETATM   14  C   UNL     1      -6.670   1.175 -32.644  1.00  0.00     0.009 A 
HETATM   15  C   UNL     1      -7.651   1.337 -31.679  1.00  0.00     0.034 A 
HETATM   16  C   UNL     1      -8.787   2.282 -31.574  1.00  0.00     0.070 C 
HETATM   17  N   UNL     1      -7.414   0.379 -30.734  1.00  0.00    -0.282 N 
HETATM   18  H   UNL     1      -7.933   0.202 -29.881  1.00  0.00     0.189 HD
HETATM   19  N   UNL     1      -6.360  -0.399 -31.006  1.00  0.00    -0.179 NA
HETATM   20  C   UNL     1      -5.895   0.077 -32.168  1.00  0.00     0.060 A 
HETATM   21  C   UNL     1      -4.709  -0.551 -32.801  1.00  0.00     0.073 C 
ENDBRANCH  13  14
ENDBRANCH   9  13
ENDBRANCH   1   7
BRANCH   3  22
HETATM   22  N   UNL     1      -1.369   6.528 -31.329  1.00  0.00    -0.327 N 
HETATM   23  C   UNL     1      -0.560   5.691 -30.572  1.00  0.00     0.226 C 
HETATM   24  O   UNL     1      -0.554   4.464 -30.668  1.00  0.00    -0.273 OA
HETATM   25  H   UNL     1      -1.679   7.392 -30.906  1.00  0.00     0.169 HD
BRANCH  23  26
HETATM   26  C   UNL     1       0.432   6.404 -29.663  1.00  0.00     0.078 C 
HETATM   27  C   UNL     1       0.220   7.889 -29.401  1.00  0.00     0.014 C 
HETATM   28  C   UNL     1       1.133   8.151 -28.213  1.00  0.00     0.001 C 
HETATM   29  C   UNL     1       1.030   6.895 -27.353  1.00  0.00     0.001 C 
HETATM   30  C   UNL     1       0.435   5.812 -28.252  1.00  0.00     0.014 C 
ENDBRANCH  23  26
ENDBRANCH   3  22
TORSDOF 5
ENDMDL
MODEL 5
REMARK VINA RESULT:      -8.6      1.570      2.296
REMARK  5 active torsions:
REMARK  status: ('A' for Active; 'I' for Inactive)
REMARK    1  A    between atoms: C_8  and  C_9 
REMARK    2  A    between atoms: C_9  and  N_10 
REMARK       I    between atoms: N_10  and  C_11 
REMARK       I    between atoms: C_11  and  N_12 
REMARK    3  A    between atoms: N_12  and  C_13 
REMARK    4  A    between atoms: C_15  and  N_16 
REMARK       I    between atoms: N_16  and  C_17 
REMARK    5  A    between atoms: C_17  and  C_18 
ROOT
HETATM    1  C   UNL     1      -7.065   2.486 -31.653  1.00  0.00     0.038 A 
HETATM    2  C   UNL     1      -6.922   1.524 -32.651  1.00  0.00     0.059 A 
HETATM    3  C   UNL     1      -6.487   0.226 -32.363  1.00  0.00     0.036 A 
HETATM    4  C   UNL     1      -6.089  -0.093 -31.068  1.00  0.00     0.029 A 
HETATM    5  C   UNL     1      -6.197   0.867 -30.060  1.00  0.00     0.004 A 
HETATM    6  C   UNL     1      -6.690   2.144 -30.349  1.00  0.00     0.029 A 
ENDROOT
BRANCH   1   7
HETATM    7  N   UNL     1      -7.500   3.806 -31.889  1.00  0.00    -0.309 N 
HETATM    8  C   UNL     1      -6.840   4.925 -32.306  1.00  0.00     0.320 C 
HETATM    9  N   UNL     1      -5.662   4.761 -32.951  1.00  0.00    -0.338 N 
HETATM   10  O   UNL     1      -7.337   6.026 -32.084  1.00  0.00    -0.247 OA
HETATM   11  H   UNL     1      -5.498   3.891 -33.437  1.00  0.00     0.164 HD
HETATM   12  H   UNL     1      -8.438   4.031 -31.581  1.00  0.00     0.170 HD
BRANCH   9  13
HETATM   13  C   UNL     1      -4.722   5.832 -33.182  1.00  0.00     0.167 C 
BRANCH  13  14
HETATM   14  C   UNL     1      -3.465   5.504 -32.445  1.00  0.00     0.009 A 
HETATM   15  C   UNL     1      -3.239   5.564 -31.079  1.00  0.00     0.034 A 
HETATM   16  C   UNL     1      -4.121   5.936 -29.948  1.00  0.00     0.070 C 
HETATM   17  N   UNL     1      -1.946   5.167 -30.891  1.00  0.00    -0.282 N 
HETATM   18  H   UNL     1      -1.437   5.091 -30.018  1.00  0.00     0.189 HD
HETATM   19  N   UNL     1      -1.309   4.847 -32.024  1.00  0.00    -0.179 NA
HETATM   20  C   UNL     1      -2.224   5.050 -32.980  1.00  0.00     0.060 A 
HETATM   21  C   UNL     1      -1.877   4.790 -34.400  1.00  0.00     0.073 C 
ENDBRANCH  13  14
ENDBRANCH   9  13
ENDBRANCH   1   7
BRANCH   3  22
HETATM   22  N   UNL     1      -6.390  -0.737 -33.388  1.00  0.00    -0.327 N 
HETATM   23  C   UNL     1      -5.179  -1.219 -33.864  1.00  0.00     0.226 C 
HETATM   24  O   UNL     1      -4.091  -0.682 -33.657  1.00  0.00    -0.273 OA
HETATM   25  H   UNL     1      -7.215  -0.902 -33.948  1.00  0.00     0.169 HD
BRANCH  23  26
HETATM   26  C   UNL     1      -5.259  -2.554 -34.591  1.00  0.00     0.078 C 
HETATM   27  C   UNL     1      -4.503  -3.736 -33.999  1.00  0.00     0.014 C 
HETATM   28  C   UNL     1      -5.096  -4.920 -34.746  1.00  0.00     0.001 C 
HETATM   29  C   UNL     1      -6.574  -4.580 -34.913  1.00  0.00     0.001 C 
HETATM   30  C   UNL     1      -6.695  -3.077 -34.662  1.00  0.00     0.014 C 
ENDBRANCH  23  26
ENDBRANCH   3  22
TORSDOF 5
ENDMDL
MODEL 6
REMARK VINA RESULT:      -8.5      4.989      7.533
REMARK  5 active torsions:
REMARK  status: ('A' for Active; 'I' for Inactive)
REMARK    1  A    between atoms: C_8  and  C_9 
REMARK    2  A    between atoms: C_9  and  N_10 
REMARK       I    between atoms: N_10  and  C_11 
REMARK       I    between atoms: C_11  and  N_12 
REMARK    3  A    between atoms: N_12  and  C_13 
REMARK    4  A    between atoms: C_15  and  N_16 
REMARK       I    between atoms: N_16  and  C_17 
REMARK    5  A    between atoms: C_17  and  C_18 
ROOT
HETATM    1  C   UNL     1      -7.977   2.142 -33.088  1.00  0.00     0.038 A 
HETATM    2  C   UNL     1      -7.354   1.108 -33.783  1.00  0.00     0.059 A 
HETATM    3  C   UNL     1      -6.792   0.011 -33.120  1.00  0.00     0.036 A 
HETATM    4  C   UNL     1      -6.761  -0.008 -31.729  1.00  0.00     0.029 A 
HETATM    5  C   UNL     1      -7.354   1.035 -31.014  1.00  0.00     0.004 A 
HETATM    6  C   UNL     1      -7.965   2.097 -31.689  1.00  0.00     0.029 A 
ENDROOT
BRANCH   1   7
HETATM    7  N   UNL     1      -8.558   3.268 -33.706  1.00  0.00    -0.309 N 
HETATM    8  C   UNL     1      -9.780   3.467 -34.281  1.00  0.00     0.320 C 
HETATM    9  N   UNL     1     -10.782   2.622 -33.945  1.00  0.00    -0.338 N 
HETATM   10  O   UNL     1      -9.921   4.397 -35.070  1.00  0.00    -0.247 OA
HETATM   11  H   UNL     1     -10.736   2.155 -33.050  1.00  0.00     0.164 HD
HETATM   12  H   UNL     1      -7.940   4.049 -33.888  1.00  0.00     0.170 HD
BRANCH   9  13
HETATM   13  C   UNL     1     -12.021   2.522 -34.677  1.00  0.00     0.167 C 
BRANCH  13  14
HETATM   14  C   UNL     1     -13.125   2.343 -33.686  1.00  0.00     0.009 A 
HETATM   15  C   UNL     1     -13.737   1.162 -33.298  1.00  0.00     0.034 A 
HETATM   16  C   UNL     1     -13.507  -0.247 -33.697  1.00  0.00     0.070 C 
HETATM   17  N   UNL     1     -14.678   1.510 -32.372  1.00  0.00    -0.282 N 
HETATM   18  H   UNL     1     -15.318   0.901 -31.874  1.00  0.00     0.189 HD
HETATM   19  N   UNL     1     -14.729   2.823 -32.120  1.00  0.00    -0.179 NA
HETATM   20  C   UNL     1     -13.787   3.344 -32.916  1.00  0.00     0.060 A 
HETATM   21  C   UNL     1     -13.541   4.807 -32.909  1.00  0.00     0.073 C 
ENDBRANCH  13  14
ENDBRANCH   9  13
ENDBRANCH   1   7
BRANCH   3  22
HETATM   22  N   UNL     1      -6.204  -1.039 -33.854  1.00  0.00    -0.327 N 
HETATM   23  C   UNL     1      -4.838  -1.285 -33.865  1.00  0.00     0.226 C 
HETATM   24  O   UNL     1      -3.988  -0.481 -33.483  1.00  0.00    -0.273 OA
HETATM   25  H   UNL     1      -6.766  -1.474 -34.572  1.00  0.00     0.169 HD
BRANCH  23  26
HETATM   26  C   UNL     1      -4.440  -2.692 -34.289  1.00  0.00     0.078 C 
HETATM   27  C   UNL     1      -3.777  -3.589 -33.253  1.00  0.00     0.014 C 
HETATM   28  C   UNL     1      -3.867  -4.964 -33.896  1.00  0.00     0.001 C 
HETATM   29  C   UNL     1      -5.217  -4.979 -34.606  1.00  0.00     0.001 C 
HETATM   30  C   UNL     1      -5.653  -3.518 -34.721  1.00  0.00     0.014 C 
ENDBRANCH  23  26
ENDBRANCH   3  22
TORSDOF 5
ENDMDL
MODEL 7
REMARK VINA RESULT:      -8.5      1.614      2.167
REMARK  5 active torsions:
REMARK  status: ('A' for Active; 'I' for Inactive)
REMARK    1  A    between atoms: C_8  and  C_9 
REMARK    2  A    between atoms: C_9  and  N_10 
REMARK       I    between atoms: N_10  and  C_11 
REMARK       I    between atoms: C_11  and  N_12 
REMARK    3  A    between atoms: N_12  and  C_13 
REMARK    4  A    between atoms: C_15  and  N_16 
REMARK       I    between atoms: N_16  and  C_17 
REMARK    5  A    between atoms: C_17  and  C_18 
ROOT
HETATM    1  C   UNL     1      -4.350   2.021 -31.047  1.00  0.00     0.038 A 
HETATM    2  C   UNL     1      -4.524   0.858 -31.794  1.00  0.00     0.059 A 
HETATM    3  C   UNL     1      -5.698   0.102 -31.716  1.00  0.00     0.036 A 
HETATM    4  C   UNL     1      -6.682   0.456 -30.798  1.00  0.00     0.029 A 
HETATM    5  C   UNL     1      -6.513   1.602 -30.018  1.00  0.00     0.004 A 
HETATM    6  C   UNL     1      -5.359   2.384 -30.149  1.00  0.00     0.029 A 
ENDROOT
BRANCH   1   7
HETATM    7  N   UNL     1      -3.188   2.818 -31.089  1.00  0.00    -0.309 N 
HETATM    8  C   UNL     1      -2.876   3.943 -31.796  1.00  0.00     0.320 C 
HETATM    9  N   UNL     1      -3.895   4.679 -32.296  1.00  0.00    -0.338 N 
HETATM   10  O   UNL     1      -1.694   4.241 -31.947  1.00  0.00    -0.247 OA
HETATM   11  H   UNL     1      -4.794   4.627 -31.838  1.00  0.00     0.164 HD
HETATM   12  H   UNL     1      -2.372   2.447 -30.619  1.00  0.00     0.170 HD
BRANCH   9  13
HETATM   13  C   UNL     1      -3.723   5.706 -33.296  1.00  0.00     0.167 C 
BRANCH  13  14
HETATM   14  C   UNL     1      -3.281   6.952 -32.600  1.00  0.00     0.009 A 
HETATM   15  C   UNL     1      -4.001   7.727 -31.705  1.00  0.00     0.034 A 
HETATM   16  C   UNL     1      -5.368   7.585 -31.152  1.00  0.00     0.070 C 
HETATM   17  N   UNL     1      -3.174   8.752 -31.342  1.00  0.00    -0.282 N 
HETATM   18  H   UNL     1      -3.368   9.514 -30.702  1.00  0.00     0.189 HD
HETATM   19  N   UNL     1      -1.970   8.706 -31.925  1.00  0.00    -0.179 NA
HETATM   20  C   UNL     1      -2.022   7.614 -32.696  1.00  0.00     0.060 A 
HETATM   21  C   UNL     1      -0.842   7.227 -33.509  1.00  0.00     0.073 C 
ENDBRANCH  13  14
ENDBRANCH   9  13
ENDBRANCH   1   7
BRANCH   3  22
HETATM   22  N   UNL     1      -5.860  -1.048 -32.515  1.00  0.00    -0.327 N 
HETATM   23  C   UNL     1      -5.954  -1.004 -33.899  1.00  0.00     0.226 C 
HETATM   24  O   UNL     1      -6.183   0.019 -34.544  1.00  0.00    -0.273 OA
HETATM   25  H   UNL     1      -6.150  -1.897 -32.050  1.00  0.00     0.169 HD
BRANCH  23  26
HETATM   26  C   UNL     1      -5.641  -2.314 -34.608  1.00  0.00     0.078 C 
HETATM   27  C   UNL     1      -4.601  -3.234 -33.981  1.00  0.00     0.014 C 
HETATM   28  C   UNL     1      -4.823  -4.542 -34.724  1.00  0.00     0.001 C 
HETATM   29  C   UNL     1      -6.332  -4.628 -34.929  1.00  0.00     0.001 C 
HETATM   30  C   UNL     1      -6.873  -3.216 -34.703  1.00  0.00     0.014 C 
ENDBRANCH  23  26
ENDBRANCH   3  22
TORSDOF 5
ENDMDL
MODEL 8
REMARK VINA RESULT:      -8.5      5.379      7.730
REMARK  5 active torsions:
REMARK  status: ('A' for Active; 'I' for Inactive)
REMARK    1  A    between atoms: C_8  and  C_9 
REMARK    2  A    between atoms: C_9  and  N_10 
REMARK       I    between atoms: N_10  and  C_11 
REMARK       I    between atoms: C_11  and  N_12 
REMARK    3  A    between atoms: N_12  and  C_13 
REMARK    4  A    between atoms: C_15  and  N_16 
REMARK       I    between atoms: N_16  and  C_17 
REMARK    5  A    between atoms: C_17  and  C_18 
ROOT
HETATM    1  C   UNL     1      -9.726   3.486 -30.606  1.00  0.00     0.038 A 
HETATM    2  C   UNL     1      -9.321   2.207 -30.980  1.00  0.00     0.059 A 
HETATM    3  C   UNL     1      -8.023   1.950 -31.433  1.00  0.00     0.036 A 
HETATM    4  C   UNL     1      -7.137   3.008 -31.615  1.00  0.00     0.029 A 
HETATM    5  C   UNL     1      -7.534   4.302 -31.273  1.00  0.00     0.004 A 
HETATM    6  C   UNL     1      -8.816   4.538 -30.764  1.00  0.00     0.029 A 
ENDROOT
BRANCH   1   7
HETATM    7  N   UNL     1     -11.020   3.799 -30.142  1.00  0.00    -0.309 N 
HETATM    8  C   UNL     1     -12.221   3.900 -30.782  1.00  0.00     0.320 C 
HETATM    9  N   UNL     1     -12.353   3.284 -31.980  1.00  0.00    -0.338 N 
HETATM   10  O   UNL     1     -13.126   4.538 -30.251  1.00  0.00    -0.247 OA
HETATM   11  H   UNL     1     -11.762   2.489 -32.178  1.00  0.00     0.164 HD
HETATM   12  H   UNL     1     -11.085   4.141 -29.191  1.00  0.00     0.170 HD
BRANCH   9  13
HETATM   13  C   UNL     1     -13.438   3.544 -32.896  1.00  0.00     0.167 C 
BRANCH  13  14
HETATM   14  C   UNL     1     -12.997   3.118 -34.259  1.00  0.00     0.009 A 
HETATM   15  C   UNL     1     -12.471   3.908 -35.269  1.00  0.00     0.034 A 
HETATM   16  C   UNL     1     -12.167   5.357 -35.332  1.00  0.00     0.070 C 
HETATM   17  N   UNL     1     -12.219   3.068 -36.315  1.00  0.00    -0.282 N 
HETATM   18  H   UNL     1     -11.833   3.300 -37.224  1.00  0.00     0.189 HD
HETATM   19  N   UNL     1     -12.535   1.790 -36.070  1.00  0.00    -0.179 NA
HETATM   20  C   UNL     1     -13.012   1.807 -34.819  1.00  0.00     0.060 A 
HETATM   21  C   UNL     1     -13.467   0.544 -34.186  1.00  0.00     0.073 C 
ENDBRANCH  13  14
ENDBRANCH   9  13
ENDBRANCH   1   7
BRANCH   3  22
HETATM   22  N   UNL     1      -7.632   0.637 -31.767  1.00  0.00    -0.327 N 
HETATM   23  C   UNL     1      -7.720   0.123 -33.053  1.00  0.00     0.226 C 
HETATM   24  O   UNL     1      -8.383   0.631 -33.957  1.00  0.00    -0.273 OA
HETATM   25  H   UNL     1      -7.507  -0.016 -31.006  1.00  0.00     0.169 HD
BRANCH  23  26
HETATM   26  C   UNL     1      -6.834  -1.085 -33.325  1.00  0.00     0.078 C 
HETATM   27  C   UNL     1      -6.847  -1.679 -34.727  1.00  0.00     0.014 C 
HETATM   28  C   UNL     1      -5.623  -2.581 -34.719  1.00  0.00     0.001 C 
HETATM   29  C   UNL     1      -4.584  -1.827 -33.894  1.00  0.00     0.001 C 
HETATM   30  C   UNL     1      -5.353  -0.763 -33.111  1.00  0.00     0.014 C 
ENDBRANCH  23  26
ENDBRANCH   3  22
TORSDOF 5
ENDMDL
MODEL 9
REMARK VINA RESULT:      -8.4      2.565      3.755
REMARK  5 active torsions:
REMARK  status: ('A' for Active; 'I' for Inactive)
REMARK    1  A    between atoms: C_8  and  C_9 
REMARK    2  A    between atoms: C_9  and  N_10 
REMARK       I    between atoms: N_10  and  C_11 
REMARK       I    between atoms: C_11  and  N_12 
REMARK    3  A    between atoms: N_12  and  C_13 
REMARK    4  A    between atoms: C_15  and  N_16 
REMARK       I    between atoms: N_16  and  C_17 
REMARK    5  A    between atoms: C_17  and  C_18 
ROOT
HETATM    1  C   UNL     1      -4.024   5.242 -32.793  1.00  0.00     0.038 A 
HETATM    2  C   UNL     1      -4.214   3.900 -33.116  1.00  0.00     0.059 A 
HETATM    3  C   UNL     1      -5.047   3.072 -32.355  1.00  0.00     0.036 A 
HETATM    4  C   UNL     1      -5.624   3.564 -31.189  1.00  0.00     0.029 A 
HETATM    5  C   UNL     1      -5.421   4.899 -30.832  1.00  0.00     0.004 A 
HETATM    6  C   UNL     1      -4.634   5.734 -31.634  1.00  0.00     0.029 A 
ENDROOT
BRANCH   1   7
HETATM    7  N   UNL     1      -3.198   6.118 -33.525  1.00  0.00    -0.309 N 
HETATM    8  C   UNL     1      -2.040   6.765 -33.205  1.00  0.00     0.320 C 
HETATM    9  N   UNL     1      -1.310   6.282 -32.173  1.00  0.00    -0.338 N 
HETATM   10  O   UNL     1      -1.708   7.749 -33.860  1.00  0.00    -0.247 OA
HETATM   11  H   UNL     1      -1.402   5.304 -31.937  1.00  0.00     0.164 HD
HETATM   12  H   UNL     1      -3.567   6.451 -34.408  1.00  0.00     0.170 HD
BRANCH   9  13
HETATM   13  C   UNL     1      -0.243   7.016 -31.537  1.00  0.00     0.167 C 
BRANCH  13  14
HETATM   14  C   UNL     1      -0.310   6.741 -30.070  1.00  0.00     0.009 A 
HETATM   15  C   UNL     1       0.238   5.672 -29.378  1.00  0.00     0.034 A 
HETATM   16  C   UNL     1       1.045   4.514 -29.829  1.00  0.00     0.070 C 
HETATM   17  N   UNL     1      -0.087   5.864 -28.066  1.00  0.00    -0.282 N 
HETATM   18  H   UNL     1       0.147   5.277 -27.273  1.00  0.00     0.189 HD
HETATM   19  N   UNL     1      -0.800   6.975 -27.842  1.00  0.00    -0.179 NA
HETATM   20  C   UNL     1      -0.944   7.519 -29.057  1.00  0.00     0.060 A 
HETATM   21  C   UNL     1      -1.691   8.792 -29.211  1.00  0.00     0.073 C 
ENDBRANCH  13  14
ENDBRANCH   9  13
ENDBRANCH   1   7
BRANCH   3  22
HETATM   22  N   UNL     1      -5.250   1.728 -32.730  1.00  0.00    -0.327 N 
HETATM   23  C   UNL     1      -6.223   1.332 -33.638  1.00  0.00     0.226 C 
HETATM   24  O   UNL     1      -7.167   2.039 -33.991  1.00  0.00    -0.273 OA
HETATM   25  H   UNL     1      -4.834   1.016 -32.146  1.00  0.00     0.169 HD
BRANCH  23  26
HETATM   26  C   UNL     1      -5.991  -0.030 -34.277  1.00  0.00     0.078 C 
HETATM   27  C   UNL     1      -4.982  -0.964 -33.621  1.00  0.00     0.014 C 
HETATM   28  C   UNL     1      -5.285  -2.299 -34.282  1.00  0.00     0.001 C 
HETATM   29  C   UNL     1      -6.801  -2.321 -34.449  1.00  0.00     0.001 C 
HETATM   30  C   UNL     1      -7.267  -0.874 -34.292  1.00  0.00     0.014 C 
ENDBRANCH  23  26
ENDBRANCH   3  22
TORSDOF 5
ENDMDL
MODEL 10
REMARK VINA RESULT:      -8.4      2.145      2.863
REMARK  5 active torsions:
REMARK  status: ('A' for Active; 'I' for Inactive)
REMARK    1  A    between atoms: C_8  and  C_9 
REMARK    2  A    between atoms: C_9  and  N_10 
REMARK       I    between atoms: N_10  and  C_11 
REMARK       I    between atoms: C_11  and  N_12 
REMARK    3  A    between atoms: N_12  and  C_13 
REMARK    4  A    between atoms: C_15  and  N_16 
REMARK       I    between atoms: N_16  and  C_17 
REMARK    5  A    between atoms: C_17  and  C_18 
ROOT
HETATM    1  C   UNL     1      -7.667   1.881 -31.329  1.00  0.00     0.038 A 
HETATM    2  C   UNL     1      -7.151   0.717 -31.895  1.00  0.00     0.059 A 
HETATM    3  C   UNL     1      -7.874  -0.028 -32.831  1.00  0.00     0.036 A 
HETATM    4  C   UNL     1      -9.181   0.336 -33.137  1.00  0.00     0.029 A 
HETATM    5  C   UNL     1      -9.728   1.483 -32.558  1.00  0.00     0.004 A 
HETATM    6  C   UNL     1      -8.973   2.255 -31.667  1.00  0.00     0.029 A 
ENDROOT
BRANCH   1   7
HETATM    7  N   UNL     1      -6.981   2.669 -30.382  1.00  0.00    -0.309 N 
HETATM    8  C   UNL     1      -5.766   3.289 -30.417  1.00  0.00     0.320 C 
HETATM    9  N   UNL     1      -5.216   3.534 -31.629  1.00  0.00    -0.338 N 
HETATM   10  O   UNL     1      -5.226   3.600 -29.359  1.00  0.00    -0.247 OA
HETATM   11  H   UNL     1      -5.830   3.623 -32.426  1.00  0.00     0.164 HD
HETATM   12  H   UNL     1      -7.375   2.693 -29.450  1.00  0.00     0.170 HD
BRANCH   9  13
HETATM   13  C   UNL     1      -3.833   3.903 -31.818  1.00  0.00     0.167 C 
BRANCH  13  14
HETATM   14  C   UNL     1      -3.708   4.527 -33.170  1.00  0.00     0.009 A 
HETATM   15  C   UNL     1      -2.617   5.200 -33.698  1.00  0.00     0.034 A 
HETATM   16  C   UNL     1      -1.277   5.498 -33.142  1.00  0.00     0.070 C 
HETATM   17  N   UNL     1      -2.981   5.579 -34.959  1.00  0.00    -0.282 N 
HETATM   18  H   UNL     1      -2.433   6.094 -35.639  1.00  0.00     0.189 HD
HETATM   19  N   UNL     1      -4.220   5.204 -35.299  1.00  0.00    -0.179 NA
HETATM   20  C   UNL     1      -4.675   4.562 -34.217  1.00  0.00     0.060 A 
HETATM   21  C   UNL     1      -6.043   3.987 -34.221  1.00  0.00     0.073 C 
ENDBRANCH  13  14
ENDBRANCH   9  13
ENDBRANCH   1   7
BRANCH   3  22
HETATM   22  N   UNL     1      -7.307  -1.180 -33.416  1.00  0.00    -0.327 N 
HETATM   23  C   UNL     1      -6.657  -1.167 -34.642  1.00  0.00     0.226 C 
HETATM   24  O   UNL     1      -6.741  -0.251 -35.459  1.00  0.00    -0.273 OA
HETATM   25  H   UNL     1      -7.590  -2.075 -33.042  1.00  0.00     0.169 HD
BRANCH  23  26
HETATM   26  C   UNL     1      -5.715  -2.338 -34.883  1.00  0.00     0.078 C 
HETATM   27  C   UNL     1      -4.608  -2.586 -33.867  1.00  0.00     0.014 C 
HETATM   28  C   UNL     1      -4.137  -3.987 -34.221  1.00  0.00     0.001 C 
HETATM   29  C   UNL     1      -5.403  -4.740 -34.617  1.00  0.00     0.001 C 
HETATM   30  C   UNL     1      -6.462  -3.674 -34.896  1.00  0.00     0.014 C 
ENDBRANCH  23  26
ENDBRANCH   3  22
TORSDOF 5
ENDMDL
