MODEL 1
REMARK VINA RESULT:      -9.4      0.000      0.000
REMARK  3 active torsions:
REMARK  status: ('A' for Active; 'I' for Inactive)
REMARK    1  A    between atoms: C_5  and  C_6 
REMARK       I    between atoms: C_6  and  N_7 
REMARK    2  A    between atoms: N_7  and  C_8 
REMARK    3  A    between atoms: C_15  and  C_16 
REMARK       I    between atoms: C_16  and  N_17 
ROOT
HETATM    1  C   UNL     1      -8.933   1.046 -33.313  1.00  0.00     0.036 A 
HETATM    2  C   UNL     1     -10.229   0.528 -33.440  1.00  0.00     0.046 A 
HETATM    3  C   UNL     1     -11.333   1.410 -33.467  1.00  0.00     0.030 A 
HETATM    4  C   UNL     1     -11.104   2.776 -33.364  1.00  0.00     0.063 A 
HETATM    5  N   UNL     1     -12.340   3.357 -33.419  1.00  0.00    -0.277 N 
HETATM    6  H   UNL     1     -12.556   4.346 -33.373  1.00  0.00     0.189 HD
HETATM    7  N   UNL     1     -13.357   2.491 -33.549  1.00  0.00    -0.168 NA
HETATM    8  C   UNL     1     -12.752   1.282 -33.580  1.00  0.00     0.156 A 
HETATM    9  C   UNL     1      -9.829   3.327 -33.235  1.00  0.00     0.034 A 
HETATM   10  C   UNL     1      -8.751   2.433 -33.213  1.00  0.00     0.032 A 
ENDROOT
BRANCH   1  11
HETATM   11  N   UNL     1      -7.762   0.255 -33.279  1.00  0.00    -0.322 N 
HETATM   12  C   UNL     1      -6.927  -0.094 -34.325  1.00  0.00     0.276 C 
HETATM   13  O   UNL     1      -7.109   0.265 -35.483  1.00  0.00    -0.266 OA
HETATM   14  H   UNL     1      -7.511  -0.099 -32.365  1.00  0.00     0.169 HD
BRANCH  12  15
HETATM   15  C   UNL     1      -5.789  -0.920 -33.958  1.00  0.00     0.150 A 
HETATM   16  N   UNL     1      -5.680  -2.282 -34.223  1.00  0.00    -0.299 N 
HETATM   17  C   UNL     1      -4.452  -2.700 -33.709  1.00  0.00     0.136 A 
HETATM   18  C   UNL     1      -6.546  -3.168 -34.878  1.00  0.00     0.099 A 
HETATM   19  C   UNL     1      -4.097  -4.070 -33.858  1.00  0.00     0.051 A 
HETATM   20  N   UNL     1      -3.799  -1.711 -33.150  1.00  0.00    -0.216 NA
HETATM   21  C   UNL     1      -4.935  -4.917 -34.484  1.00  0.00     0.005 A 
HETATM   22  C   UNL     1      -6.205  -4.461 -35.018  1.00  0.00     0.018 A 
HETATM   23  C   UNL     1      -4.610  -0.618 -33.290  1.00  0.00     0.161 A 
HETATM   24 CL   UNL     1      -4.105   0.890 -32.661  1.00  0.00    -0.060 Cl
ENDBRANCH  12  15
ENDBRANCH   1  11
BRANCH   8  25
HETATM   25  C   UNL     1     -13.532   0.044 -33.716  1.00  0.00     0.270 C 
HETATM   26  N   UNL     1     -14.748   0.215 -34.319  1.00  0.00    -0.365 N 
HETATM   27  H   UNL     1     -15.016   1.146 -34.616  1.00  0.00     0.159 HD
HETATM   28  H   UNL     1     -15.355  -0.578 -34.454  1.00  0.00     0.159 HD
HETATM   29  O   UNL     1     -13.161  -1.062 -33.336  1.00  0.00    -0.266 OA
ENDBRANCH   8  25
TORSDOF 3
ENDMDL
MODEL 2
REMARK VINA RESULT:      -8.8      2.759      7.996
REMARK  3 active torsions:
REMARK  status: ('A' for Active; 'I' for Inactive)
REMARK    1  A    between atoms: C_5  and  C_6 
REMARK       I    between atoms: C_6  and  N_7 
REMARK    2  A    between atoms: N_7  and  C_8 
REMARK    3  A    between atoms: C_15  and  C_16 
REMARK       I    between atoms: C_16  and  N_17 
ROOT
HETATM    1  C   UNL     1      -7.562  -0.177 -34.072  1.00  0.00     0.036 A 
HETATM    2  C   UNL     1      -7.267  -1.511 -34.384  1.00  0.00     0.046 A 
HETATM    3  C   UNL     1      -5.967  -2.012 -34.146  1.00  0.00     0.030 A 
HETATM    4  C   UNL     1      -5.008  -1.164 -33.609  1.00  0.00     0.063 A 
HETATM    5  N   UNL     1      -3.875  -1.920 -33.498  1.00  0.00    -0.277 N 
HETATM    6  H   UNL     1      -2.973  -1.626 -33.142  1.00  0.00     0.189 HD
HETATM    7  N   UNL     1      -4.009  -3.189 -33.915  1.00  0.00    -0.168 NA
HETATM    8  C   UNL     1      -5.297  -3.262 -34.321  1.00  0.00     0.156 A 
HETATM    9  C   UNL     1      -5.264   0.169 -33.287  1.00  0.00     0.034 A 
HETATM   10  C   UNL     1      -6.560   0.642 -33.530  1.00  0.00     0.032 A 
ENDROOT
BRANCH   1  11
HETATM   11  N   UNL     1      -8.826   0.424 -34.266  1.00  0.00    -0.322 N 
HETATM   12  C   UNL     1      -9.816   0.668 -33.331  1.00  0.00     0.276 C 
HETATM   13  O   UNL     1      -9.711   0.379 -32.144  1.00  0.00    -0.266 OA
HETATM   14  H   UNL     1      -9.024   0.706 -35.217  1.00  0.00     0.169 HD
BRANCH  12  15
HETATM   15  C   UNL     1     -11.010   1.313 -33.851  1.00  0.00     0.150 A 
HETATM   16  N   UNL     1     -11.058   2.614 -34.344  1.00  0.00    -0.299 N 
HETATM   17  C   UNL     1     -12.375   2.852 -34.737  1.00  0.00     0.136 A 
HETATM   18  C   UNL     1     -10.058   3.584 -34.487  1.00  0.00     0.099 A 
HETATM   19  C   UNL     1     -12.688   4.128 -35.286  1.00  0.00     0.051 A 
HETATM   20  N   UNL     1     -13.140   1.809 -34.525  1.00  0.00    -0.216 NA
HETATM   21  C   UNL     1     -11.724   5.057 -35.417  1.00  0.00     0.005 A 
HETATM   22  C   UNL     1     -10.358   4.786 -35.009  1.00  0.00     0.018 A 
HETATM   23  C   UNL     1     -12.318   0.863 -33.977  1.00  0.00     0.161 A 
HETATM   24 CL   UNL     1     -12.962  -0.658 -33.539  1.00  0.00    -0.060 Cl
ENDBRANCH  12  15
ENDBRANCH   1  11
BRANCH   8  25
HETATM   25  C   UNL     1      -5.855  -4.511 -34.858  1.00  0.00     0.270 C 
HETATM   26  N   UNL     1      -7.143  -4.398 -35.308  1.00  0.00    -0.365 N 
HETATM   27  H   UNL     1      -7.603  -3.499 -35.240  1.00  0.00     0.159 HD
HETATM   28  H   UNL     1      -7.610  -5.204 -35.692  1.00  0.00     0.159 HD
HETATM   29  O   UNL     1      -5.253  -5.578 -34.917  1.00  0.00    -0.266 OA
ENDBRANCH   8  25
TORSDOF 3
ENDMDL
MODEL 3
REMARK VINA RESULT:      -8.7      1.564      2.635
REMARK  3 active torsions:
REMARK  status: ('A' for Active; 'I' for Inactive)
REMARK    1  A    between atoms: C_5  and  C_6 
REMARK       I    between atoms: C_6  and  N_7 
REMARK    2  A    between atoms: N_7  and  C_8 
REMARK    3  A    between atoms: C_15  and  C_16 
REMARK       I    between atoms: C_16  and  N_17 
ROOT
HETATM    1  C   UNL     1      -9.031   1.143 -33.636  1.00  0.00     0.036 A 
HETATM    2  C   UNL     1     -10.329   0.614 -33.659  1.00  0.00     0.046 A 
HETATM    3  C   UNL     1     -11.430   1.477 -33.858  1.00  0.00     0.030 A 
HETATM    4  C   UNL     1     -11.197   2.836 -34.024  1.00  0.00     0.063 A 
HETATM    5  N   UNL     1     -12.433   3.398 -34.191  1.00  0.00    -0.277 N 
HETATM    6  H   UNL     1     -12.646   4.378 -34.339  1.00  0.00     0.189 HD
HETATM    7  N   UNL     1     -13.452   2.526 -34.149  1.00  0.00    -0.168 NA
HETATM    8  C   UNL     1     -12.849   1.332 -33.943  1.00  0.00     0.156 A 
HETATM    9  C   UNL     1      -9.922   3.398 -34.006  1.00  0.00     0.034 A 
HETATM   10  C   UNL     1      -8.846   2.523 -33.809  1.00  0.00     0.032 A 
ENDROOT
BRANCH   1  11
HETATM   11  N   UNL     1      -7.862   0.372 -33.448  1.00  0.00    -0.322 N 
HETATM   12  C   UNL     1      -6.929  -0.023 -34.391  1.00  0.00     0.276 C 
HETATM   13  O   UNL     1      -7.005   0.269 -35.579  1.00  0.00    -0.266 OA
HETATM   14  H   UNL     1      -7.695   0.072 -32.496  1.00  0.00     0.169 HD
BRANCH  12  15
HETATM   15  C   UNL     1      -5.824  -0.811 -33.873  1.00  0.00     0.150 A 
HETATM   16  N   UNL     1      -4.877  -0.349 -32.963  1.00  0.00    -0.299 N 
HETATM   17  C   UNL     1      -3.992  -1.401 -32.727  1.00  0.00     0.136 A 
HETATM   18  C   UNL     1      -4.736   0.891 -32.327  1.00  0.00     0.099 A 
HETATM   19  C   UNL     1      -2.919  -1.179 -31.817  1.00  0.00     0.051 A 
HETATM   20  N   UNL     1      -4.314  -2.469 -33.414  1.00  0.00    -0.216 NA
HETATM   21  C   UNL     1      -2.787   0.016 -31.213  1.00  0.00     0.005 A 
HETATM   22  C   UNL     1      -3.723   1.094 -31.468  1.00  0.00     0.018 A 
HETATM   23  C   UNL     1      -5.430  -2.119 -34.124  1.00  0.00     0.161 A 
HETATM   24 CL   UNL     1      -6.152  -3.261 -35.172  1.00  0.00    -0.060 Cl
ENDBRANCH  12  15
ENDBRANCH   1  11
BRANCH   8  25
HETATM   25  C   UNL     1     -13.632   0.094 -33.834  1.00  0.00     0.270 C 
HETATM   26  N   UNL     1     -14.896   0.186 -34.352  1.00  0.00    -0.365 N 
HETATM   27  H   UNL     1     -15.192   1.067 -34.756  1.00  0.00     0.159 HD
HETATM   28  H   UNL     1     -15.508  -0.613 -34.321  1.00  0.00     0.159 HD
HETATM   29  O   UNL     1     -13.227  -0.949 -33.333  1.00  0.00    -0.266 OA
ENDBRANCH   8  25
TORSDOF 3
ENDMDL
MODEL 4
REMARK VINA RESULT:      -8.6      1.736      3.023
REMARK  3 active torsions:
REMARK  status: ('A' for Active; 'I' for Inactive)
REMARK    1  A    between atoms: C_5  and  C_6 
REMARK       I    between atoms: C_6  and  N_7 
REMARK    2  A    between atoms: N_7  and  C_8 
REMARK    3  A    between atoms: C_15  and  C_16 
REMARK       I    between atoms: C_16  and  N_17 
ROOT
HETATM    1  C   UNL     1      -8.863   0.958 -33.603  1.00  0.00     0.036 A 
HETATM    2  C   UNL     1      -8.871   2.310 -33.973  1.00  0.00     0.046 A 
HETATM    3  C   UNL     1     -10.098   3.008 -34.039  1.00  0.00     0.030 A 
HETATM    4  C   UNL     1     -11.272   2.331 -33.738  1.00  0.00     0.063 A 
HETATM    5  N   UNL     1     -12.272   3.253 -33.890  1.00  0.00    -0.277 N 
HETATM    6  H   UNL     1     -13.265   3.108 -33.751  1.00  0.00     0.189 HD
HETATM    7  N   UNL     1     -11.853   4.472 -34.263  1.00  0.00    -0.168 NA
HETATM    8  C   UNL     1     -10.510   4.338 -34.361  1.00  0.00     0.156 A 
HETATM    9  C   UNL     1     -11.304   0.987 -33.368  1.00  0.00     0.034 A 
HETATM   10  C   UNL     1     -10.075   0.317 -33.307  1.00  0.00     0.032 A 
ENDROOT
BRANCH   1  11
HETATM   11  N   UNL     1      -7.695   0.169 -33.502  1.00  0.00    -0.322 N 
HETATM   12  C   UNL     1      -6.769  -0.128 -34.486  1.00  0.00     0.276 C 
HETATM   13  O   UNL     1      -6.850   0.284 -35.637  1.00  0.00    -0.266 OA
HETATM   14  H   UNL     1      -7.525  -0.228 -32.587  1.00  0.00     0.169 HD
BRANCH  12  15
HETATM   15  C   UNL     1      -5.664  -0.969 -34.058  1.00  0.00     0.150 A 
HETATM   16  N   UNL     1      -5.569  -2.338 -34.298  1.00  0.00    -0.299 N 
HETATM   17  C   UNL     1      -4.371  -2.769 -33.726  1.00  0.00     0.136 A 
HETATM   18  C   UNL     1      -6.423  -3.218 -34.975  1.00  0.00     0.099 A 
HETATM   19  C   UNL     1      -4.036  -4.148 -33.839  1.00  0.00     0.051 A 
HETATM   20  N   UNL     1      -3.724  -1.783 -33.155  1.00  0.00    -0.216 NA
HETATM   21  C   UNL     1      -4.863  -4.989 -34.487  1.00  0.00     0.005 A 
HETATM   22  C   UNL     1      -6.100  -4.518 -35.080  1.00  0.00     0.018 A 
HETATM   23  C   UNL     1      -4.507  -0.678 -33.345  1.00  0.00     0.161 A 
HETATM   24 CL   UNL     1      -4.002   0.830 -32.718  1.00  0.00    -0.060 Cl
ENDBRANCH  12  15
ENDBRANCH   1  11
BRANCH   8  25
HETATM   25  C   UNL     1      -9.660   5.470 -34.755  1.00  0.00     0.270 C 
HETATM   26  N   UNL     1      -8.729   5.820 -33.815  1.00  0.00    -0.365 N 
HETATM   27  H   UNL     1      -8.694   5.298 -32.948  1.00  0.00     0.159 HD
HETATM   28  H   UNL     1      -8.101   6.587 -33.995  1.00  0.00     0.159 HD
HETATM   29  O   UNL     1      -9.745   6.072 -35.820  1.00  0.00    -0.266 OA
ENDBRANCH   8  25
TORSDOF 3
ENDMDL
MODEL 5
REMARK VINA RESULT:      -8.5      2.201      7.747
REMARK  3 active torsions:
REMARK  status: ('A' for Active; 'I' for Inactive)
REMARK    1  A    between atoms: C_5  and  C_6 
REMARK       I    between atoms: C_6  and  N_7 
REMARK    2  A    between atoms: N_7  and  C_8 
REMARK    3  A    between atoms: C_15  and  C_16 
REMARK       I    between atoms: C_16  and  N_17 
ROOT
HETATM    1  C   UNL     1      -7.271  -0.076 -33.926  1.00  0.00     0.036 A 
HETATM    2  C   UNL     1      -7.016  -1.407 -34.286  1.00  0.00     0.046 A 
HETATM    3  C   UNL     1      -5.735  -1.958 -34.057  1.00  0.00     0.030 A 
HETATM    4  C   UNL     1      -4.754  -1.162 -33.481  1.00  0.00     0.063 A 
HETATM    5  N   UNL     1      -3.646  -1.958 -33.391  1.00  0.00    -0.277 N 
HETATM    6  H   UNL     1      -2.739  -1.706 -33.018  1.00  0.00     0.189 HD
HETATM    7  N   UNL     1      -3.818  -3.205 -33.856  1.00  0.00    -0.168 NA
HETATM    8  C   UNL     1      -5.105  -3.222 -34.274  1.00  0.00     0.156 A 
HETATM    9  C   UNL     1      -4.970   0.165 -33.112  1.00  0.00     0.034 A 
HETATM   10  C   UNL     1      -6.248   0.689 -33.346  1.00  0.00     0.032 A 
ENDROOT
BRANCH   1  11
HETATM   11  N   UNL     1      -8.514   0.572 -34.106  1.00  0.00    -0.322 N 
HETATM   12  C   UNL     1      -9.519   0.780 -33.179  1.00  0.00     0.276 C 
HETATM   13  O   UNL     1      -9.450   0.409 -32.012  1.00  0.00    -0.266 OA
HETATM   14  H   UNL     1      -8.682   0.923 -35.040  1.00  0.00     0.169 HD
BRANCH  12  15
HETATM   15  C   UNL     1     -10.682   1.492 -33.680  1.00  0.00     0.150 A 
HETATM   16  N   UNL     1     -11.963   0.953 -33.773  1.00  0.00    -0.299 N 
HETATM   17  C   UNL     1     -12.785   1.947 -34.303  1.00  0.00     0.136 A 
HETATM   18  C   UNL     1     -12.460  -0.310 -33.427  1.00  0.00     0.099 A 
HETATM   19  C   UNL     1     -14.163   1.642 -34.496  1.00  0.00     0.051 A 
HETATM   20  N   UNL     1     -12.120   3.050 -34.544  1.00  0.00    -0.216 NA
HETATM   21  C   UNL     1     -14.634   0.426 -34.166  1.00  0.00     0.005 A 
HETATM   22  C   UNL     1     -13.762  -0.592 -33.609  1.00  0.00     0.018 A 
HETATM   23  C   UNL     1     -10.830   2.782 -34.173  1.00  0.00     0.161 A 
HETATM   24 CL   UNL     1      -9.635   3.990 -34.355  1.00  0.00    -0.060 Cl
ENDBRANCH  12  15
ENDBRANCH   1  11
BRANCH   8  25
HETATM   25  C   UNL     1      -5.697  -4.431 -34.862  1.00  0.00     0.270 C 
HETATM   26  N   UNL     1      -4.938  -5.558 -34.703  1.00  0.00    -0.365 N 
HETATM   27  H   UNL     1      -4.055  -5.483 -34.213  1.00  0.00     0.159 HD
HETATM   28  H   UNL     1      -5.263  -6.436 -35.075  1.00  0.00     0.159 HD
HETATM   29  O   UNL     1      -6.774  -4.468 -35.449  1.00  0.00    -0.266 OA
ENDBRANCH   8  25
TORSDOF 3
ENDMDL
MODEL 6
REMARK VINA RESULT:      -8.4      5.995      9.078
REMARK  3 active torsions:
REMARK  status: ('A' for Active; 'I' for Inactive)
REMARK    1  A    between atoms: C_5  and  C_6 
REMARK       I    between atoms: C_6  and  N_7 
REMARK    2  A    between atoms: N_7  and  C_8 
REMARK    3  A    between atoms: C_15  and  C_16 
REMARK       I    between atoms: C_16  and  N_17 
ROOT
HETATM    1  C   UNL     1      -2.900   3.849 -32.291  1.00  0.00     0.036 A 
HETATM    2  C   UNL     1      -1.988   4.145 -31.269  1.00  0.00     0.046 A 
HETATM    3  C   UNL     1      -1.121   5.253 -31.407  1.00  0.00     0.030 A 
HETATM    4  C   UNL     1      -1.195   6.022 -32.560  1.00  0.00     0.063 A 
HETATM    5  N   UNL     1      -0.251   7.000 -32.405  1.00  0.00    -0.277 N 
HETATM    6  H   UNL     1      -0.025   7.743 -33.056  1.00  0.00     0.189 HD
HETATM    7  N   UNL     1       0.432   6.936 -31.252  1.00  0.00    -0.168 NA
HETATM    8  C   UNL     1      -0.093   5.860 -30.622  1.00  0.00     0.156 A 
HETATM    9  C   UNL     1      -2.087   5.758 -33.598  1.00  0.00     0.034 A 
HETATM   10  C   UNL     1      -2.938   4.655 -33.437  1.00  0.00     0.032 A 
ENDROOT
BRANCH   1  11
HETATM   11  N   UNL     1      -3.812   2.769 -32.253  1.00  0.00    -0.322 N 
HETATM   12  C   UNL     1      -5.158   2.789 -31.931  1.00  0.00     0.276 C 
HETATM   13  O   UNL     1      -5.763   3.809 -31.621  1.00  0.00    -0.266 OA
HETATM   14  H   UNL     1      -3.419   1.869 -32.493  1.00  0.00     0.169 HD
BRANCH  12  15
HETATM   15  C   UNL     1      -5.826   1.500 -31.993  1.00  0.00     0.150 A 
HETATM   16  N   UNL     1      -6.392   0.955 -33.143  1.00  0.00    -0.299 N 
HETATM   17  C   UNL     1      -6.933  -0.280 -32.783  1.00  0.00     0.136 A 
HETATM   18  C   UNL     1      -6.459   1.437 -34.456  1.00  0.00     0.099 A 
HETATM   19  C   UNL     1      -7.574  -1.048 -33.796  1.00  0.00     0.051 A 
HETATM   20  N   UNL     1      -6.748  -0.539 -31.512  1.00  0.00    -0.216 NA
HETATM   21  C   UNL     1      -7.640  -0.577 -35.055  1.00  0.00     0.005 A 
HETATM   22  C   UNL     1      -7.064   0.707 -35.409  1.00  0.00     0.018 A 
HETATM   23  C   UNL     1      -6.078   0.546 -31.016  1.00  0.00     0.161 A 
HETATM   24 CL   UNL     1      -5.664   0.592 -29.358  1.00  0.00    -0.060 Cl
ENDBRANCH  12  15
ENDBRANCH   1  11
BRANCH   8  25
HETATM   25  C   UNL     1       0.391   5.442 -29.300  1.00  0.00     0.270 C 
HETATM   26  N   UNL     1       1.141   4.298 -29.317  1.00  0.00    -0.365 N 
HETATM   27  H   UNL     1       1.303   3.837 -30.205  1.00  0.00     0.159 HD
HETATM   28  H   UNL     1       1.516   3.932 -28.457  1.00  0.00     0.159 HD
HETATM   29  O   UNL     1       0.166   6.037 -28.251  1.00  0.00    -0.266 OA
ENDBRANCH   8  25
TORSDOF 3
ENDMDL
MODEL 7
REMARK VINA RESULT:      -8.4      2.258      8.094
REMARK  3 active torsions:
REMARK  status: ('A' for Active; 'I' for Inactive)
REMARK    1  A    between atoms: C_5  and  C_6 
REMARK       I    between atoms: C_6  and  N_7 
REMARK    2  A    between atoms: N_7  and  C_8 
REMARK    3  A    between atoms: C_15  and  C_16 
REMARK       I    between atoms: C_16  and  N_17 
ROOT
HETATM    1  C   UNL     1      -7.300  -0.624 -33.935  1.00  0.00     0.036 A 
HETATM    2  C   UNL     1      -6.243  -0.371 -33.050  1.00  0.00     0.046 A 
HETATM    3  C   UNL     1      -5.149  -1.263 -32.997  1.00  0.00     0.030 A 
HETATM    4  C   UNL     1      -5.150  -2.377 -33.826  1.00  0.00     0.063 A 
HETATM    5  N   UNL     1      -3.984  -3.037 -33.551  1.00  0.00    -0.277 N 
HETATM    6  H   UNL     1      -3.651  -3.896 -33.972  1.00  0.00     0.189 HD
HETATM    7  N   UNL     1      -3.221  -2.451 -32.614  1.00  0.00    -0.168 NA
HETATM    8  C   UNL     1      -3.928  -1.353 -32.260  1.00  0.00     0.156 A 
HETATM    9  C   UNL     1      -6.183  -2.662 -34.718  1.00  0.00     0.034 A 
HETATM   10  C   UNL     1      -7.256  -1.762 -34.754  1.00  0.00     0.032 A 
ENDROOT
BRANCH   1  11
HETATM   11  N   UNL     1      -8.438   0.203 -34.071  1.00  0.00    -0.322 N 
HETATM   12  C   UNL     1      -9.357   0.569 -33.103  1.00  0.00     0.276 C 
HETATM   13  O   UNL     1      -9.292   0.200 -31.936  1.00  0.00    -0.266 OA
HETATM   14  H   UNL     1      -8.593   0.569 -35.001  1.00  0.00     0.169 HD
BRANCH  12  15
HETATM   15  C   UNL     1     -10.421   1.445 -33.563  1.00  0.00     0.150 A 
HETATM   16  N   UNL     1     -11.753   1.066 -33.707  1.00  0.00    -0.299 N 
HETATM   17  C   UNL     1     -12.446   2.184 -34.173  1.00  0.00     0.136 A 
HETATM   18  C   UNL     1     -12.400  -0.151 -33.456  1.00  0.00     0.099 A 
HETATM   19  C   UNL     1     -13.846   2.056 -34.400  1.00  0.00     0.051 A 
HETATM   20  N   UNL     1     -11.653   3.216 -34.328  1.00  0.00    -0.216 NA
HETATM   21  C   UNL     1     -14.460   0.883 -34.161  1.00  0.00     0.005 A 
HETATM   22  C   UNL     1     -13.722  -0.266 -33.670  1.00  0.00     0.018 A 
HETATM   23  C   UNL     1     -10.410   2.774 -33.965  1.00  0.00     0.161 A 
HETATM   24 CL   UNL     1      -9.079   3.844 -34.049  1.00  0.00    -0.060 Cl
ENDBRANCH  12  15
ENDBRANCH   1  11
BRANCH   8  25
HETATM   25  C   UNL     1      -3.426  -0.424 -31.239  1.00  0.00     0.270 C 
HETATM   26  N   UNL     1      -2.080  -0.516 -31.013  1.00  0.00    -0.365 N 
HETATM   27  H   UNL     1      -1.544  -1.194 -31.543  1.00  0.00     0.159 HD
HETATM   28  H   UNL     1      -1.645   0.081 -30.328  1.00  0.00     0.159 HD
HETATM   29  O   UNL     1      -4.119   0.379 -30.623  1.00  0.00    -0.266 OA
ENDBRANCH   8  25
TORSDOF 3
ENDMDL
MODEL 8
REMARK VINA RESULT:      -8.3      2.725      8.260
REMARK  3 active torsions:
REMARK  status: ('A' for Active; 'I' for Inactive)
REMARK    1  A    between atoms: C_5  and  C_6 
REMARK       I    between atoms: C_6  and  N_7 
REMARK    2  A    between atoms: N_7  and  C_8 
REMARK    3  A    between atoms: C_15  and  C_16 
REMARK       I    between atoms: C_16  and  N_17 
ROOT
HETATM    1  C   UNL     1      -7.590  -0.424 -33.986  1.00  0.00     0.036 A 
HETATM    2  C   UNL     1      -6.616  -0.155 -33.015  1.00  0.00     0.046 A 
HETATM    3  C   UNL     1      -5.465  -0.971 -32.937  1.00  0.00     0.030 A 
HETATM    4  C   UNL     1      -5.329  -2.027 -33.828  1.00  0.00     0.063 A 
HETATM    5  N   UNL     1      -4.138  -2.620 -33.509  1.00  0.00    -0.277 N 
HETATM    6  H   UNL     1      -3.716  -3.426 -33.955  1.00  0.00     0.189 HD
HETATM    7  N   UNL     1      -3.485  -2.043 -32.489  1.00  0.00    -0.168 NA
HETATM    8  C   UNL     1      -4.292  -1.022 -32.122  1.00  0.00     0.156 A 
HETATM    9  C   UNL     1      -6.277  -2.326 -34.805  1.00  0.00     0.034 A 
HETATM   10  C   UNL     1      -7.408  -1.502 -34.865  1.00  0.00     0.032 A 
ENDROOT
BRANCH   1  11
HETATM   11  N   UNL     1      -8.774   0.328 -34.153  1.00  0.00    -0.322 N 
HETATM   12  C   UNL     1      -9.853   0.439 -33.294  1.00  0.00     0.276 C 
HETATM   13  O   UNL     1      -9.917  -0.135 -32.213  1.00  0.00    -0.266 OA
HETATM   14  H   UNL     1      -8.832   0.849 -35.019  1.00  0.00     0.169 HD
BRANCH  12  15
HETATM   15  C   UNL     1     -10.924   1.306 -33.756  1.00  0.00     0.150 A 
HETATM   16  N   UNL     1     -10.762   2.638 -34.129  1.00  0.00    -0.299 N 
HETATM   17  C   UNL     1     -12.019   3.112 -34.502  1.00  0.00     0.136 A 
HETATM   18  C   UNL     1      -9.621   3.450 -34.179  1.00  0.00     0.099 A 
HETATM   19  C   UNL     1     -12.122   4.465 -34.933  1.00  0.00     0.051 A 
HETATM   20  N   UNL     1     -12.940   2.186 -34.389  1.00  0.00    -0.216 NA
HETATM   21  C   UNL     1     -11.023   5.241 -34.975  1.00  0.00     0.005 A 
HETATM   22  C   UNL     1      -9.723   4.726 -34.589  1.00  0.00     0.018 A 
HETATM   23  C   UNL     1     -12.283   1.078 -33.928  1.00  0.00     0.161 A 
HETATM   24 CL   UNL     1     -13.162  -0.358 -33.632  1.00  0.00    -0.060 Cl
ENDBRANCH  12  15
ENDBRANCH   1  11
BRANCH   8  25
HETATM   25  C   UNL     1      -3.930  -0.126 -31.015  1.00  0.00     0.270 C 
HETATM   26  N   UNL     1      -2.582   0.067 -30.873  1.00  0.00    -0.365 N 
HETATM   27  H   UNL     1      -1.954  -0.403 -31.513  1.00  0.00     0.159 HD
HETATM   28  H   UNL     1      -2.238   0.665 -30.139  1.00  0.00     0.159 HD
HETATM   29  O   UNL     1      -4.732   0.420 -30.265  1.00  0.00    -0.266 OA
ENDBRANCH   8  25
TORSDOF 3
ENDMDL
MODEL 9
REMARK VINA RESULT:      -8.3      1.694      2.025
REMARK  3 active torsions:
REMARK  status: ('A' for Active; 'I' for Inactive)
REMARK    1  A    between atoms: C_5  and  C_6 
REMARK       I    between atoms: C_6  and  N_7 
REMARK    2  A    between atoms: N_7  and  C_8 
REMARK    3  A    between atoms: C_15  and  C_16 
REMARK       I    between atoms: C_16  and  N_17 
ROOT
HETATM    1  C   UNL     1      -7.618   1.865 -33.889  1.00  0.00     0.036 A 
HETATM    2  C   UNL     1      -8.999   1.701 -34.065  1.00  0.00     0.046 A 
HETATM    3  C   UNL     1      -9.829   2.839 -34.171  1.00  0.00     0.030 A 
HETATM    4  C   UNL     1      -9.252   4.100 -34.094  1.00  0.00     0.063 A 
HETATM    5  N   UNL     1     -10.289   4.982 -34.226  1.00  0.00    -0.277 N 
HETATM    6  H   UNL     1     -10.237   5.995 -34.217  1.00  0.00     0.189 HD
HETATM    7  N   UNL     1     -11.492   4.409 -34.382  1.00  0.00    -0.168 NA
HETATM    8  C   UNL     1     -11.225   3.083 -34.350  1.00  0.00     0.156 A 
HETATM    9  C   UNL     1      -7.884   4.303 -33.918  1.00  0.00     0.034 A 
HETATM   10  C   UNL     1      -7.081   3.159 -33.817  1.00  0.00     0.032 A 
ENDROOT
BRANCH   1  11
HETATM   11  N   UNL     1      -6.699   0.798 -33.775  1.00  0.00    -0.322 N 
HETATM   12  C   UNL     1      -6.424   0.012 -32.669  1.00  0.00     0.276 C 
HETATM   13  O   UNL     1      -6.981   0.151 -31.586  1.00  0.00    -0.266 OA
HETATM   14  H   UNL     1      -6.177   0.590 -34.616  1.00  0.00     0.169 HD
BRANCH  12  15
HETATM   15  C   UNL     1      -5.422  -1.019 -32.879  1.00  0.00     0.150 A 
HETATM   16  N   UNL     1      -5.619  -2.177 -33.626  1.00  0.00    -0.299 N 
HETATM   17  C   UNL     1      -4.427  -2.900 -33.578  1.00  0.00     0.136 A 
HETATM   18  C   UNL     1      -6.732  -2.636 -34.342  1.00  0.00     0.099 A 
HETATM   19  C   UNL     1      -4.369  -4.140 -34.276  1.00  0.00     0.051 A 
HETATM   20  N   UNL     1      -3.515  -2.286 -32.865  1.00  0.00    -0.216 NA
HETATM   21  C   UNL     1      -5.443  -4.577 -34.958  1.00  0.00     0.005 A 
HETATM   22  C   UNL     1      -6.671  -3.806 -35.001  1.00  0.00     0.018 A 
HETATM   23  C   UNL     1      -4.114  -1.136 -32.426  1.00  0.00     0.161 A 
HETATM   24 CL   UNL     1      -3.236  -0.057 -31.433  1.00  0.00    -0.060 Cl
ENDBRANCH  12  15
ENDBRANCH   1  11
BRANCH   8  25
HETATM   25  C   UNL     1     -12.298   2.088 -34.491  1.00  0.00     0.270 C 
HETATM   26  N   UNL     1     -12.540   1.365 -33.354  1.00  0.00    -0.365 N 
HETATM   27  H   UNL     1     -11.984   1.556 -32.530  1.00  0.00     0.159 HD
HETATM   28  H   UNL     1     -13.257   0.657 -33.356  1.00  0.00     0.159 HD
HETATM   29  O   UNL     1     -12.942   1.894 -35.516  1.00  0.00    -0.266 OA
ENDBRANCH   8  25
TORSDOF 3
ENDMDL
MODEL 10
REMARK VINA RESULT:      -8.1      4.765      7.993
REMARK  3 active torsions:
REMARK  status: ('A' for Active; 'I' for Inactive)
REMARK    1  A    between atoms: C_5  and  C_6 
REMARK       I    between atoms: C_6  and  N_7 
REMARK    2  A    between atoms: N_7  and  C_8 
REMARK    3  A    between atoms: C_15  and  C_16 
REMARK       I    between atoms: C_16  and  N_17 
ROOT
HETATM    1  C   UNL     1      -5.516   0.465 -33.546  1.00  0.00     0.036 A 
HETATM    2  C   UNL     1      -4.805  -0.726 -33.344  1.00  0.00     0.046 A 
HETATM    3  C   UNL     1      -5.267  -1.923 -33.937  1.00  0.00     0.030 A 
HETATM    4  C   UNL     1      -6.422  -1.889 -34.707  1.00  0.00     0.063 A 
HETATM    5  N   UNL     1      -6.611  -3.173 -35.135  1.00  0.00    -0.277 N 
HETATM    6  H   UNL     1      -7.361  -3.520 -35.722  1.00  0.00     0.189 HD
HETATM    7  N   UNL     1      -5.681  -4.044 -34.713  1.00  0.00    -0.168 NA
HETATM    8  C   UNL     1      -4.842  -3.287 -33.969  1.00  0.00     0.156 A 
HETATM    9  C   UNL     1      -7.155  -0.724 -34.929  1.00  0.00     0.034 A 
HETATM   10  C   UNL     1      -6.677   0.450 -34.332  1.00  0.00     0.032 A 
ENDROOT
BRANCH   1  11
HETATM   11  N   UNL     1      -5.141   1.715 -33.003  1.00  0.00    -0.322 N 
HETATM   12  C   UNL     1      -3.973   2.052 -32.342  1.00  0.00     0.276 C 
HETATM   13  O   UNL     1      -3.061   1.259 -32.136  1.00  0.00    -0.266 OA
HETATM   14  H   UNL     1      -5.824   2.453 -33.116  1.00  0.00     0.169 HD
BRANCH  12  15
HETATM   15  C   UNL     1      -3.888   3.436 -31.908  1.00  0.00     0.150 A 
HETATM   16  N   UNL     1      -3.076   4.403 -32.496  1.00  0.00    -0.299 N 
HETATM   17  C   UNL     1      -3.278   5.588 -31.789  1.00  0.00     0.136 A 
HETATM   18  C   UNL     1      -2.200   4.334 -33.588  1.00  0.00     0.099 A 
HETATM   19  C   UNL     1      -2.555   6.744 -32.203  1.00  0.00     0.051 A 
HETATM   20  N   UNL     1      -4.143   5.432 -30.817  1.00  0.00    -0.216 NA
HETATM   21  C   UNL     1      -1.713   6.670 -33.249  1.00  0.00     0.005 A 
HETATM   22  C   UNL     1      -1.522   5.428 -33.975  1.00  0.00     0.018 A 
HETATM   23  C   UNL     1      -4.518   4.118 -30.876  1.00  0.00     0.161 A 
HETATM   24 CL   UNL     1      -5.642   3.513 -29.739  1.00  0.00    -0.060 Cl
ENDBRANCH  12  15
ENDBRANCH   1  11
BRANCH   8  25
HETATM   25  C   UNL     1      -3.666  -3.875 -33.315  1.00  0.00     0.270 C 
HETATM   26  N   UNL     1      -3.183  -4.994 -33.937  1.00  0.00    -0.365 N 
HETATM   27  H   UNL     1      -3.652  -5.327 -34.771  1.00  0.00     0.159 HD
HETATM   28  H   UNL     1      -2.378  -5.469 -33.559  1.00  0.00     0.159 HD
HETATM   29  O   UNL     1      -3.134  -3.433 -32.302  1.00  0.00    -0.266 OA
ENDBRANCH   8  25
TORSDOF 3
ENDMDL
