MODEL 1
REMARK VINA RESULT:      -7.5      0.000      0.000
REMARK  5 active torsions:
REMARK  status: ('A' for Active; 'I' for Inactive)
REMARK    1  A    between atoms: C_8  and  O_9 
REMARK    2  A    between atoms: O_9  and  C_10 
REMARK    3  A    between atoms: C_17  and  C_18 
REMARK       I    between atoms: C_18  and  N_19 
REMARK    4  A    between atoms: N_19  and  C_20 
REMARK    5  A    between atoms: C_20  and  C_21 
ROOT
HETATM    1  C   UNL     1      -2.952  -2.207 -31.805  1.00  0.00     0.051 C 
HETATM    2  C   UNL     1      -4.068  -1.945 -32.786  1.00  0.00    -0.018 A 
HETATM    3  C   UNL     1      -4.442  -2.906 -33.746  1.00  0.00     0.065 A 
HETATM    4 CL   UNL     1      -3.613  -4.424 -33.855  1.00  0.00    -0.082 Cl
HETATM    5  C   UNL     1      -5.492  -2.621 -34.630  1.00  0.00     0.056 A 
HETATM    6  C   UNL     1      -5.953  -3.606 -35.667  1.00  0.00     0.072 C 
HETATM    7  N   UNL     1      -6.156  -1.439 -34.619  1.00  0.00    -0.227 NA
HETATM    8  C   UNL     1      -5.753  -0.497 -33.735  1.00  0.00     0.186 A 
HETATM    9  C   UNL     1      -4.741  -0.702 -32.798  1.00  0.00     0.092 A 
ENDROOT
BRANCH   8  10
HETATM   10  O   UNL     1      -6.428   0.716 -33.731  1.00  0.00    -0.291 OA
BRANCH  10  11
HETATM   11  C   UNL     1      -7.797   0.655 -33.637  1.00  0.00     0.078 A 
HETATM   12  C   UNL     1      -8.345   0.078 -32.490  1.00  0.00     0.040 A 
HETATM   13  C   UNL     1      -9.731   0.043 -32.330  1.00  0.00     0.045 A 
HETATM   14  C   UNL     1     -10.548   0.600 -33.308  1.00  0.00     0.116 A 
HETATM   15  F   UNL     1     -11.878   0.568 -33.152  1.00  0.00    -0.206 F 
HETATM   16  C   UNL     1     -10.007   1.199 -34.443  1.00  0.00     0.045 A 
HETATM   17  C   UNL     1      -8.622   1.236 -34.606  1.00  0.00     0.040 A 
ENDBRANCH  10  11
ENDBRANCH   8  10
BRANCH   9  18
HETATM   18  C   UNL     1      -4.333   0.399 -31.891  1.00  0.00     0.256 C 
HETATM   19  N   UNL     1      -3.710   1.480 -32.477  1.00  0.00    -0.353 N 
HETATM   20  H   UNL     1      -3.348   1.379 -33.417  1.00  0.00     0.163 HD
HETATM   21  O   UNL     1      -4.563   0.315 -30.691  1.00  0.00    -0.267 OA
BRANCH  19  22
HETATM   22  C   UNL     1      -3.141   2.518 -31.655  1.00  0.00     0.149 C 
BRANCH  22  23
HETATM   23  C   UNL     1      -3.148   3.841 -32.361  1.00  0.00    -0.018 C 
HETATM   24  C   UNL     1      -2.189   4.379 -33.129  1.00  0.00     0.008 C 
ENDBRANCH  22  23
ENDBRANCH  19  22
ENDBRANCH   9  18
TORSDOF 5
ENDMDL
MODEL 2
REMARK VINA RESULT:      -7.5      1.324      1.679
REMARK  5 active torsions:
REMARK  status: ('A' for Active; 'I' for Inactive)
REMARK    1  A    between atoms: C_8  and  O_9 
REMARK    2  A    between atoms: O_9  and  C_10 
REMARK    3  A    between atoms: C_17  and  C_18 
REMARK       I    between atoms: C_18  and  N_19 
REMARK    4  A    between atoms: N_19  and  C_20 
REMARK    5  A    between atoms: C_20  and  C_21 
ROOT
HETATM    1  C   UNL     1      -2.996  -2.953 -32.036  1.00  0.00     0.051 C 
HETATM    2  C   UNL     1      -4.108  -2.661 -33.012  1.00  0.00    -0.018 A 
HETATM    3  C   UNL     1      -4.662  -3.674 -33.819  1.00  0.00     0.065 A 
HETATM    4 CL   UNL     1      -4.066  -5.300 -33.740  1.00  0.00    -0.082 Cl
HETATM    5  C   UNL     1      -5.701  -3.357 -34.705  1.00  0.00     0.056 A 
HETATM    6  C   UNL     1      -6.349  -4.391 -35.582  1.00  0.00     0.072 C 
HETATM    7  N   UNL     1      -6.187  -2.098 -34.839  1.00  0.00    -0.227 NA
HETATM    8  C   UNL     1      -5.611  -1.117 -34.105  1.00  0.00     0.186 A 
HETATM    9  C   UNL     1      -4.596  -1.344 -33.178  1.00  0.00     0.092 A 
ENDROOT
BRANCH   8  10
HETATM   10  O   UNL     1      -6.103   0.173 -34.252  1.00  0.00    -0.291 OA
BRANCH  10  11
HETATM   11  C   UNL     1      -7.420   0.368 -33.913  1.00  0.00     0.078 A 
HETATM   12  C   UNL     1      -8.267   0.911 -34.881  1.00  0.00     0.040 A 
HETATM   13  C   UNL     1      -9.623   1.078 -34.596  1.00  0.00     0.045 A 
HETATM   14  C   UNL     1     -10.116   0.683 -33.357  1.00  0.00     0.116 A 
HETATM   15  F   UNL     1     -11.419   0.840 -33.087  1.00  0.00    -0.206 F 
HETATM   16  C   UNL     1      -9.282   0.117 -32.397  1.00  0.00     0.045 A 
HETATM   17  C   UNL     1      -7.926  -0.050 -32.678  1.00  0.00     0.040 A 
ENDBRANCH  10  11
ENDBRANCH   8  10
BRANCH   9  18
HETATM   18  C   UNL     1      -3.990  -0.206 -32.444  1.00  0.00     0.256 C 
HETATM   19  N   UNL     1      -4.727   0.319 -31.404  1.00  0.00    -0.353 N 
HETATM   20  H   UNL     1      -5.710   0.085 -31.342  1.00  0.00     0.163 HD
HETATM   21  O   UNL     1      -2.887   0.212 -32.774  1.00  0.00    -0.267 OA
BRANCH  19  22
HETATM   22  C   UNL     1      -4.288   1.522 -30.743  1.00  0.00     0.149 C 
BRANCH  22  23
HETATM   23  C   UNL     1      -5.100   2.709 -31.170  1.00  0.00    -0.018 C 
HETATM   24  C   UNL     1      -5.361   3.132 -32.415  1.00  0.00     0.008 C 
ENDBRANCH  22  23
ENDBRANCH  19  22
ENDBRANCH   9  18
TORSDOF 5
ENDMDL
MODEL 3
REMARK VINA RESULT:      -6.9      3.217      6.254
REMARK  5 active torsions:
REMARK  status: ('A' for Active; 'I' for Inactive)
REMARK    1  A    between atoms: C_8  and  O_9 
REMARK    2  A    between atoms: O_9  and  C_10 
REMARK    3  A    between atoms: C_17  and  C_18 
REMARK       I    between atoms: C_18  and  N_19 
REMARK    4  A    between atoms: N_19  and  C_20 
REMARK    5  A    between atoms: C_20  and  C_21 
ROOT
HETATM    1  C   UNL     1      -6.710  -0.708 -34.359  1.00  0.00     0.051 C 
HETATM    2  C   UNL     1      -5.575  -0.147 -33.541  1.00  0.00    -0.018 A 
HETATM    3  C   UNL     1      -4.482  -0.948 -33.154  1.00  0.00     0.065 A 
HETATM    4 CL   UNL     1      -4.413  -2.626 -33.584  1.00  0.00    -0.082 Cl
HETATM    5  C   UNL     1      -3.444  -0.380 -32.402  1.00  0.00     0.056 A 
HETATM    6  C   UNL     1      -2.242  -1.172 -31.970  1.00  0.00     0.072 C 
HETATM    7  N   UNL     1      -3.456   0.917 -32.004  1.00  0.00    -0.227 NA
HETATM    8  C   UNL     1      -4.536   1.666 -32.328  1.00  0.00     0.186 A 
HETATM    9  C   UNL     1      -5.598   1.196 -33.098  1.00  0.00     0.092 A 
ENDROOT
BRANCH   8  10
HETATM   10  O   UNL     1      -4.550   2.991 -31.911  1.00  0.00    -0.291 OA
BRANCH  10  11
HETATM   11  C   UNL     1      -3.583   3.810 -32.440  1.00  0.00     0.078 A 
HETATM   12  C   UNL     1      -3.839   4.404 -33.677  1.00  0.00     0.040 A 
HETATM   13  C   UNL     1      -2.905   5.283 -34.226  1.00  0.00     0.045 A 
HETATM   14  C   UNL     1      -1.739   5.571 -33.524  1.00  0.00     0.116 A 
HETATM   15  F   UNL     1      -0.845   6.418 -34.051  1.00  0.00    -0.206 F 
HETATM   16  C   UNL     1      -1.489   5.001 -32.279  1.00  0.00     0.045 A 
HETATM   17  C   UNL     1      -2.420   4.120 -31.727  1.00  0.00     0.040 A 
ENDBRANCH  10  11
ENDBRANCH   8  10
BRANCH   9  18
HETATM   18  C   UNL     1      -6.764   2.072 -33.371  1.00  0.00     0.256 C 
HETATM   19  N   UNL     1      -7.758   2.089 -32.418  1.00  0.00    -0.353 N 
HETATM   20  H   UNL     1      -7.775   1.354 -31.723  1.00  0.00     0.163 HD
HETATM   21  O   UNL     1      -6.797   2.735 -34.401  1.00  0.00    -0.267 OA
BRANCH  19  22
HETATM   22  C   UNL     1      -8.993   2.786 -32.675  1.00  0.00     0.149 C 
BRANCH  22  23
HETATM   23  C   UNL     1     -10.041   1.862 -33.219  1.00  0.00    -0.018 C 
HETATM   24  C   UNL     1     -10.119   0.528 -33.094  1.00  0.00     0.008 C 
ENDBRANCH  22  23
ENDBRANCH  19  22
ENDBRANCH   9  18
TORSDOF 5
ENDMDL
MODEL 4
REMARK VINA RESULT:      -6.9      1.538      1.748
REMARK  5 active torsions:
REMARK  status: ('A' for Active; 'I' for Inactive)
REMARK    1  A    between atoms: C_8  and  O_9 
REMARK    2  A    between atoms: O_9  and  C_10 
REMARK    3  A    between atoms: C_17  and  C_18 
REMARK       I    between atoms: C_18  and  N_19 
REMARK    4  A    between atoms: N_19  and  C_20 
REMARK    5  A    between atoms: C_20  and  C_21 
ROOT
HETATM    1  C   UNL     1      -3.235  -0.265 -32.990  1.00  0.00     0.051 C 
HETATM    2  C   UNL     1      -4.692  -0.628 -33.129  1.00  0.00    -0.018 A 
HETATM    3  C   UNL     1      -5.101  -1.747 -33.880  1.00  0.00     0.065 A 
HETATM    4 CL   UNL     1      -3.941  -2.741 -34.701  1.00  0.00    -0.082 Cl
HETATM    5  C   UNL     1      -6.466  -2.052 -33.973  1.00  0.00     0.056 A 
HETATM    6  C   UNL     1      -6.971  -3.239 -34.744  1.00  0.00     0.072 C 
HETATM    7  N   UNL     1      -7.425  -1.295 -33.384  1.00  0.00    -0.227 NA
HETATM    8  C   UNL     1      -7.030  -0.187 -32.713  1.00  0.00     0.186 A 
HETATM    9  C   UNL     1      -5.696   0.176 -32.543  1.00  0.00     0.092 A 
ENDROOT
BRANCH   8  10
HETATM   10  O   UNL     1      -8.015   0.592 -32.119  1.00  0.00    -0.291 OA
BRANCH  10  11
HETATM   11  C   UNL     1      -9.017   1.045 -32.942  1.00  0.00     0.078 A 
HETATM   12  C   UNL     1     -10.258   0.409 -32.864  1.00  0.00     0.040 A 
HETATM   13  C   UNL     1     -11.319   0.871 -33.645  1.00  0.00     0.045 A 
HETATM   14  C   UNL     1     -11.130   1.970 -34.477  1.00  0.00     0.116 A 
HETATM   15  F   UNL     1     -12.150   2.414 -35.223  1.00  0.00    -0.206 F 
HETATM   16  C   UNL     1      -9.902   2.623 -34.540  1.00  0.00     0.045 A 
HETATM   17  C   UNL     1      -8.839   2.164 -33.761  1.00  0.00     0.040 A 
ENDBRANCH  10  11
ENDBRANCH   8  10
BRANCH   9  18
HETATM   18  C   UNL     1      -5.352   1.430 -31.828  1.00  0.00     0.256 C 
HETATM   19  N   UNL     1      -5.498   2.603 -32.537  1.00  0.00    -0.353 N 
HETATM   20  H   UNL     1      -5.588   2.551 -33.544  1.00  0.00     0.163 HD
HETATM   21  O   UNL     1      -4.969   1.381 -30.665  1.00  0.00    -0.267 OA
BRANCH  19  22
HETATM   22  C   UNL     1      -5.037   3.848 -31.976  1.00  0.00     0.149 C 
BRANCH  22  23
HETATM   23  C   UNL     1      -3.821   4.355 -32.692  1.00  0.00    -0.018 C 
HETATM   24  C   UNL     1      -2.584   3.837 -32.700  1.00  0.00     0.008 C 
ENDBRANCH  22  23
ENDBRANCH  19  22
ENDBRANCH   9  18
TORSDOF 5
ENDMDL
MODEL 5
REMARK VINA RESULT:      -6.8      3.987      7.107
REMARK  5 active torsions:
REMARK  status: ('A' for Active; 'I' for Inactive)
REMARK    1  A    between atoms: C_8  and  O_9 
REMARK    2  A    between atoms: O_9  and  C_10 
REMARK    3  A    between atoms: C_17  and  C_18 
REMARK       I    between atoms: C_18  and  N_19 
REMARK    4  A    between atoms: N_19  and  C_20 
REMARK    5  A    between atoms: C_20  and  C_21 
ROOT
HETATM    1  C   UNL     1      -9.439   1.097 -32.412  1.00  0.00     0.051 C 
HETATM    2  C   UNL     1      -8.301   1.916 -31.856  1.00  0.00    -0.018 A 
HETATM    3  C   UNL     1      -8.518   2.905 -30.876  1.00  0.00     0.065 A 
HETATM    4 CL   UNL     1     -10.113   3.238 -30.285  1.00  0.00    -0.082 Cl
HETATM    5  C   UNL     1      -7.427   3.634 -30.382  1.00  0.00     0.056 A 
HETATM    6  C   UNL     1      -7.584   4.691 -29.325  1.00  0.00     0.072 C 
HETATM    7  N   UNL     1      -6.160   3.446 -30.828  1.00  0.00    -0.227 NA
HETATM    8  C   UNL     1      -5.967   2.538 -31.813  1.00  0.00     0.186 A 
HETATM    9  C   UNL     1      -6.984   1.745 -32.341  1.00  0.00     0.092 A 
ENDROOT
BRANCH   8  10
HETATM   10  O   UNL     1      -4.670   2.353 -32.275  1.00  0.00    -0.291 OA
BRANCH  10  11
HETATM   11  C   UNL     1      -4.066   3.442 -32.855  1.00  0.00     0.078 A 
HETATM   12  C   UNL     1      -2.735   3.702 -32.523  1.00  0.00     0.040 A 
HETATM   13  C   UNL     1      -2.069   4.767 -33.129  1.00  0.00     0.045 A 
HETATM   14  C   UNL     1      -2.734   5.546 -34.070  1.00  0.00     0.116 A 
HETATM   15  F   UNL     1      -2.091   6.566 -34.654  1.00  0.00    -0.206 F 
HETATM   16  C   UNL     1      -4.054   5.277 -34.424  1.00  0.00     0.045 A 
HETATM   17  C   UNL     1      -4.723   4.213 -33.820  1.00  0.00     0.040 A 
ENDBRANCH  10  11
ENDBRANCH   8  10
BRANCH   9  18
HETATM   18  C   UNL     1      -6.692   0.802 -33.448  1.00  0.00     0.256 C 
HETATM   19  N   UNL     1      -6.286  -0.465 -33.088  1.00  0.00    -0.353 N 
HETATM   20  H   UNL     1      -5.976  -0.621 -32.137  1.00  0.00     0.163 HD
HETATM   21  O   UNL     1      -6.826   1.168 -34.610  1.00  0.00    -0.267 OA
BRANCH  19  22
HETATM   22  C   UNL     1      -5.832  -1.392 -34.094  1.00  0.00     0.149 C 
BRANCH  22  23
HETATM   23  C   UNL     1      -6.854  -2.456 -34.361  1.00  0.00    -0.018 C 
HETATM   24  C   UNL     1      -6.660  -3.695 -34.834  1.00  0.00     0.008 C 
ENDBRANCH  22  23
ENDBRANCH  19  22
ENDBRANCH   9  18
TORSDOF 5
ENDMDL
MODEL 6
REMARK VINA RESULT:      -6.8      3.549      5.454
REMARK  5 active torsions:
REMARK  status: ('A' for Active; 'I' for Inactive)
REMARK    1  A    between atoms: C_8  and  O_9 
REMARK    2  A    between atoms: O_9  and  C_10 
REMARK    3  A    between atoms: C_17  and  C_18 
REMARK       I    between atoms: C_18  and  N_19 
REMARK    4  A    between atoms: N_19  and  C_20 
REMARK    5  A    between atoms: C_20  and  C_21 
ROOT
HETATM    1  C   UNL     1      -7.850   4.906 -33.811  1.00  0.00     0.051 C 
HETATM    2  C   UNL     1      -8.399   3.510 -33.655  1.00  0.00    -0.018 A 
HETATM    3  C   UNL     1      -9.660   3.155 -34.175  1.00  0.00     0.065 A 
HETATM    4 CL   UNL     1     -10.645   4.322 -34.996  1.00  0.00    -0.082 Cl
HETATM    5  C   UNL     1     -10.125   1.842 -34.015  1.00  0.00     0.056 A 
HETATM    6  C   UNL     1     -11.451   1.391 -34.558  1.00  0.00     0.072 C 
HETATM    7  N   UNL     1      -9.418   0.893 -33.352  1.00  0.00    -0.227 NA
HETATM    8  C   UNL     1      -8.236   1.256 -32.803  1.00  0.00     0.186 A 
HETATM    9  C   UNL     1      -7.680   2.527 -32.938  1.00  0.00     0.092 A 
ENDROOT
BRANCH   8  10
HETATM   10  O   UNL     1      -7.518   0.285 -32.116  1.00  0.00    -0.291 OA
BRANCH  10  11
HETATM   11  C   UNL     1      -6.727  -0.544 -32.875  1.00  0.00     0.078 A 
HETATM   12  C   UNL     1      -5.422  -0.778 -32.437  1.00  0.00     0.040 A 
HETATM   13  C   UNL     1      -4.603  -1.654 -33.150  1.00  0.00     0.045 A 
HETATM   14  C   UNL     1      -5.103  -2.296 -34.278  1.00  0.00     0.116 A 
HETATM   15  F   UNL     1      -4.316  -3.139 -34.959  1.00  0.00    -0.206 F 
HETATM   16  C   UNL     1      -6.412  -2.085 -34.706  1.00  0.00     0.045 A 
HETATM   17  C   UNL     1      -7.234  -1.210 -33.996  1.00  0.00     0.040 A 
ENDBRANCH  10  11
ENDBRANCH   8  10
BRANCH   9  18
HETATM   18  C   UNL     1      -6.397   2.853 -32.268  1.00  0.00     0.256 C 
HETATM   19  N   UNL     1      -5.250   2.660 -33.007  1.00  0.00    -0.353 N 
HETATM   20  H   UNL     1      -5.304   2.096 -33.846  1.00  0.00     0.163 HD
HETATM   21  O   UNL     1      -6.402   3.276 -31.119  1.00  0.00    -0.267 OA
BRANCH  19  22
HETATM   22  C   UNL     1      -3.958   2.799 -32.385  1.00  0.00     0.149 C 
BRANCH  22  23
HETATM   23  C   UNL     1      -3.331   4.122 -32.713  1.00  0.00    -0.018 C 
HETATM   24  C   UNL     1      -2.227   4.363 -33.435  1.00  0.00     0.008 C 
ENDBRANCH  22  23
ENDBRANCH  19  22
ENDBRANCH   9  18
TORSDOF 5
ENDMDL
MODEL 7
REMARK VINA RESULT:      -6.8      3.305      5.091
REMARK  5 active torsions:
REMARK  status: ('A' for Active; 'I' for Inactive)
REMARK    1  A    between atoms: C_8  and  O_9 
REMARK    2  A    between atoms: O_9  and  C_10 
REMARK    3  A    between atoms: C_17  and  C_18 
REMARK       I    between atoms: C_18  and  N_19 
REMARK    4  A    between atoms: N_19  and  C_20 
REMARK    5  A    between atoms: C_20  and  C_21 
ROOT
HETATM    1  C   UNL     1      -6.714   1.301 -30.530  1.00  0.00     0.051 C 
HETATM    2  C   UNL     1      -7.235   1.033 -31.920  1.00  0.00    -0.018 A 
HETATM    3  C   UNL     1      -6.699   0.004 -32.719  1.00  0.00     0.065 A 
HETATM    4 CL   UNL     1      -5.395  -0.982 -32.144  1.00  0.00    -0.082 Cl
HETATM    5  C   UNL     1      -7.223  -0.214 -34.001  1.00  0.00     0.056 A 
HETATM    6  C   UNL     1      -6.711  -1.304 -34.900  1.00  0.00     0.072 C 
HETATM    7  N   UNL     1      -8.219   0.545 -34.522  1.00  0.00    -0.227 NA
HETATM    8  C   UNL     1      -8.689   1.569 -33.773  1.00  0.00     0.186 A 
HETATM    9  C   UNL     1      -8.251   1.842 -32.478  1.00  0.00     0.092 A 
ENDROOT
BRANCH   8  10
HETATM   10  O   UNL     1      -9.702   2.352 -34.313  1.00  0.00    -0.291 OA
BRANCH  10  11
HETATM   11  C   UNL     1     -10.971   1.827 -34.268  1.00  0.00     0.078 A 
HETATM   12  C   UNL     1     -11.958   2.446 -35.038  1.00  0.00     0.040 A 
HETATM   13  C   UNL     1     -13.247   1.914 -35.061  1.00  0.00     0.045 A 
HETATM   14  C   UNL     1     -13.528   0.764 -34.331  1.00  0.00     0.116 A 
HETATM   15  F   UNL     1     -14.766   0.253 -34.358  1.00  0.00    -0.206 F 
HETATM   16  C   UNL     1     -12.542   0.128 -33.581  1.00  0.00     0.045 A 
HETATM   17  C   UNL     1     -11.251   0.658 -33.555  1.00  0.00     0.040 A 
ENDBRANCH  10  11
ENDBRANCH   8  10
BRANCH   9  18
HETATM   18  C   UNL     1      -8.790   3.011 -31.742  1.00  0.00     0.256 C 
HETATM   19  N   UNL     1      -9.963   2.814 -31.046  1.00  0.00    -0.353 N 
HETATM   20  H   UNL     1     -10.517   1.993 -31.255  1.00  0.00     0.163 HD
HETATM   21  O   UNL     1      -8.189   4.078 -31.771  1.00  0.00    -0.267 OA
BRANCH  19  22
HETATM   22  C   UNL     1     -10.638   3.931 -30.436  1.00  0.00     0.149 C 
BRANCH  22  23
HETATM   23  C   UNL     1     -11.720   4.470 -31.324  1.00  0.00    -0.018 C 
HETATM   24  C   UNL     1     -12.883   3.893 -31.661  1.00  0.00     0.008 C 
ENDBRANCH  22  23
ENDBRANCH  19  22
ENDBRANCH   9  18
TORSDOF 5
ENDMDL
MODEL 8
REMARK VINA RESULT:      -6.8     14.013     14.938
REMARK  5 active torsions:
REMARK  status: ('A' for Active; 'I' for Inactive)
REMARK    1  A    between atoms: C_8  and  O_9 
REMARK    2  A    between atoms: O_9  and  C_10 
REMARK    3  A    between atoms: C_17  and  C_18 
REMARK       I    between atoms: C_18  and  N_19 
REMARK    4  A    between atoms: N_19  and  C_20 
REMARK    5  A    between atoms: C_20  and  C_21 
ROOT
HETATM    1  C   UNL     1      -1.870 -15.079 -38.939  1.00  0.00     0.051 C 
HETATM    2  C   UNL     1      -2.983 -14.482 -39.763  1.00  0.00    -0.018 A 
HETATM    3  C   UNL     1      -3.138 -14.800 -41.127  1.00  0.00     0.065 A 
HETATM    4 CL   UNL     1      -2.034 -15.874 -41.922  1.00  0.00    -0.082 Cl
HETATM    5  C   UNL     1      -4.194 -14.228 -41.851  1.00  0.00     0.056 A 
HETATM    6  C   UNL     1      -4.427 -14.535 -43.303  1.00  0.00     0.072 C 
HETATM    7  N   UNL     1      -5.070 -13.354 -41.296  1.00  0.00    -0.227 NA
HETATM    8  C   UNL     1      -4.881 -13.006 -40.002  1.00  0.00     0.186 A 
HETATM    9  C   UNL     1      -3.879 -13.547 -39.197  1.00  0.00     0.092 A 
ENDROOT
BRANCH   8  10
HETATM   10  O   UNL     1      -5.773 -12.103 -39.438  1.00  0.00    -0.291 OA
BRANCH  10  11
HETATM   11  C   UNL     1      -7.099 -12.464 -39.450  1.00  0.00     0.078 A 
HETATM   12  C   UNL     1      -7.584 -13.192 -38.362  1.00  0.00     0.040 A 
HETATM   13  C   UNL     1      -8.936 -13.534 -38.310  1.00  0.00     0.045 A 
HETATM   14  C   UNL     1      -9.786 -13.128 -39.334  1.00  0.00     0.116 A 
HETATM   15  F   UNL     1     -11.084 -13.454 -39.280  1.00  0.00    -0.206 F 
HETATM   16  C   UNL     1      -9.312 -12.381 -40.409  1.00  0.00     0.045 A 
HETATM   17  C   UNL     1      -7.961 -12.038 -40.465  1.00  0.00     0.040 A 
ENDBRANCH  10  11
ENDBRANCH   8  10
BRANCH   9  18
HETATM   18  C   UNL     1      -3.716 -13.080 -37.798  1.00  0.00     0.256 C 
HETATM   19  N   UNL     1      -4.452 -13.740 -36.839  1.00  0.00    -0.353 N 
HETATM   20  H   UNL     1      -5.224 -14.322 -37.137  1.00  0.00     0.163 HD
HETATM   21  O   UNL     1      -2.950 -12.156 -37.552  1.00  0.00    -0.267 OA
BRANCH  19  22
HETATM   22  C   UNL     1      -4.475 -13.251 -35.483  1.00  0.00     0.149 C 
BRANCH  22  23
HETATM   23  C   UNL     1      -5.526 -13.945 -34.668  1.00  0.00    -0.018 C 
HETATM   24  C   UNL     1      -6.858 -13.902 -34.820  1.00  0.00     0.008 C 
ENDBRANCH  22  23
ENDBRANCH  19  22
ENDBRANCH   9  18
TORSDOF 5
ENDMDL
MODEL 9
REMARK VINA RESULT:      -6.8      2.323      2.598
REMARK  5 active torsions:
REMARK  status: ('A' for Active; 'I' for Inactive)
REMARK    1  A    between atoms: C_8  and  O_9 
REMARK    2  A    between atoms: O_9  and  C_10 
REMARK    3  A    between atoms: C_17  and  C_18 
REMARK       I    between atoms: C_18  and  N_19 
REMARK    4  A    between atoms: N_19  and  C_20 
REMARK    5  A    between atoms: C_20  and  C_21 
ROOT
HETATM    1  C   UNL     1      -2.792  -0.293 -32.039  1.00  0.00     0.051 C 
HETATM    2  C   UNL     1      -4.125   0.012 -32.676  1.00  0.00    -0.018 A 
HETATM    3  C   UNL     1      -4.850  -0.976 -33.371  1.00  0.00     0.065 A 
HETATM    4 CL   UNL     1      -4.223  -2.583 -33.545  1.00  0.00    -0.082 Cl
HETATM    5  C   UNL     1      -6.090  -0.648 -33.938  1.00  0.00     0.056 A 
HETATM    6  C   UNL     1      -6.923  -1.656 -34.678  1.00  0.00     0.072 C 
HETATM    7  N   UNL     1      -6.618   0.599 -33.867  1.00  0.00    -0.227 NA
HETATM    8  C   UNL     1      -5.890   1.558 -33.250  1.00  0.00     0.186 A 
HETATM    9  C   UNL     1      -4.665   1.318 -32.631  1.00  0.00     0.092 A 
ENDROOT
BRANCH   8  10
HETATM   10  O   UNL     1      -6.428   2.837 -33.187  1.00  0.00    -0.291 OA
BRANCH  10  11
HETATM   11  C   UNL     1      -7.564   2.987 -32.429  1.00  0.00     0.078 A 
HETATM   12  C   UNL     1      -7.418   3.038 -31.041  1.00  0.00     0.040 A 
HETATM   13  C   UNL     1      -8.540   3.241 -30.237  1.00  0.00     0.045 A 
HETATM   14  C   UNL     1      -9.787   3.408 -30.830  1.00  0.00     0.116 A 
HETATM   15  F   UNL     1     -10.862   3.606 -30.056  1.00  0.00    -0.206 F 
HETATM   16  C   UNL     1      -9.936   3.384 -32.214  1.00  0.00     0.045 A 
HETATM   17  C   UNL     1      -8.816   3.180 -33.021  1.00  0.00     0.040 A 
ENDBRANCH  10  11
ENDBRANCH   8  10
BRANCH   9  18
HETATM   18  C   UNL     1      -3.911   2.436 -32.013  1.00  0.00     0.256 C 
HETATM   19  N   UNL     1      -3.229   3.269 -32.873  1.00  0.00    -0.353 N 
HETATM   20  H   UNL     1      -3.068   2.957 -33.822  1.00  0.00     0.163 HD
HETATM   21  O   UNL     1      -3.927   2.581 -30.796  1.00  0.00    -0.267 OA
BRANCH  19  22
HETATM   22  C   UNL     1      -2.346   4.281 -32.350  1.00  0.00     0.149 C 
BRANCH  22  23
HETATM   23  C   UNL     1      -1.579   4.959 -33.446  1.00  0.00    -0.018 C 
HETATM   24  C   UNL     1      -1.906   5.073 -34.741  1.00  0.00     0.008 C 
ENDBRANCH  22  23
ENDBRANCH  19  22
ENDBRANCH   9  18
TORSDOF 5
ENDMDL
MODEL 10
REMARK VINA RESULT:      -6.7      3.538      5.660
REMARK  5 active torsions:
REMARK  status: ('A' for Active; 'I' for Inactive)
REMARK    1  A    between atoms: C_8  and  O_9 
REMARK    2  A    between atoms: O_9  and  C_10 
REMARK    3  A    between atoms: C_17  and  C_18 
REMARK       I    between atoms: C_18  and  N_19 
REMARK    4  A    between atoms: N_19  and  C_20 
REMARK    5  A    between atoms: C_20  and  C_21 
ROOT
HETATM    1  C   UNL     1      -8.983  -0.084 -33.514  1.00  0.00     0.051 C 
HETATM    2  C   UNL     1      -7.513   0.141 -33.260  1.00  0.00    -0.018 A 
HETATM    3  C   UNL     1      -6.557  -0.850 -33.558  1.00  0.00     0.065 A 
HETATM    4 CL   UNL     1      -7.037  -2.384 -34.208  1.00  0.00    -0.082 Cl
HETATM    5  C   UNL     1      -5.201  -0.592 -33.315  1.00  0.00     0.056 A 
HETATM    6  C   UNL     1      -4.127  -1.597 -33.624  1.00  0.00     0.072 C 
HETATM    7  N   UNL     1      -4.764   0.573 -32.776  1.00  0.00    -0.227 NA
HETATM    8  C   UNL     1      -5.692   1.498 -32.436  1.00  0.00     0.186 A 
HETATM    9  C   UNL     1      -7.057   1.342 -32.670  1.00  0.00     0.092 A 
ENDROOT
BRANCH   8  10
HETATM   10  O   UNL     1      -5.244   2.687 -31.875  1.00  0.00    -0.291 OA
BRANCH  10  11
HETATM   11  C   UNL     1      -4.490   3.500 -32.685  1.00  0.00     0.078 A 
HETATM   12  C   UNL     1      -3.106   3.495 -32.505  1.00  0.00     0.040 A 
HETATM   13  C   UNL     1      -2.299   4.267 -33.342  1.00  0.00     0.045 A 
HETATM   14  C   UNL     1      -2.883   5.019 -34.355  1.00  0.00     0.116 A 
HETATM   15  F   UNL     1      -2.107   5.757 -35.159  1.00  0.00    -0.206 F 
HETATM   16  C   UNL     1      -4.261   5.010 -34.556  1.00  0.00     0.045 A 
HETATM   17  C   UNL     1      -5.071   4.239 -33.721  1.00  0.00     0.040 A 
ENDBRANCH  10  11
ENDBRANCH   8  10
BRANCH   9  18
HETATM   18  C   UNL     1      -8.012   2.388 -32.228  1.00  0.00     0.256 C 
HETATM   19  N   UNL     1      -8.339   2.397 -30.890  1.00  0.00    -0.353 N 
HETATM   20  H   UNL     1      -8.124   1.579 -30.333  1.00  0.00     0.163 HD
HETATM   21  O   UNL     1      -8.457   3.187 -33.043  1.00  0.00    -0.267 OA
BRANCH  19  22
HETATM   22  C   UNL     1      -9.376   3.274 -30.405  1.00  0.00     0.149 C 
BRANCH  22  23
HETATM   23  C   UNL     1      -8.805   4.549 -29.860  1.00  0.00    -0.018 C 
HETATM   24  C   UNL     1      -7.519   4.851 -29.628  1.00  0.00     0.008 C 
ENDBRANCH  22  23
ENDBRANCH  19  22
ENDBRANCH   9  18
TORSDOF 5
ENDMDL
