MODEL 1
REMARK VINA RESULT:      -8.7      0.000      0.000
REMARK  4 active torsions:
REMARK  status: ('A' for Active; 'I' for Inactive)
REMARK       I    between atoms: C_2  and  N_3 
REMARK    1  A    between atoms: N_3  and  C_4 
REMARK    2  A    between atoms: C_10  and  C_11 
REMARK    3  A    between atoms: C_14  and  C_15 
REMARK    4  A    between atoms: C_22  and  N_23 
REMARK       I    between atoms: N_23  and  C_24 
ROOT
HETATM    1  C   UNL     1       1.057   8.379 -26.652  1.00  0.00     0.010 A 
HETATM    2  C   UNL     1      -0.188   7.795 -26.376  1.00  0.00     0.016 A 
HETATM    3  C   UNL     1      -0.955   7.215 -27.391  1.00  0.00     0.017 A 
HETATM    4  C   UNL     1      -0.502   7.209 -28.716  1.00  0.00     0.017 A 
HETATM    5  C   UNL     1       0.736   7.805 -28.996  1.00  0.00     0.017 A 
HETATM    6  C   UNL     1       1.508   8.384 -27.977  1.00  0.00     0.016 A 
ENDROOT
BRANCH   1   7
HETATM    7  C   UNL     1       1.826   8.959 -25.546  1.00  0.00     0.139 A 
HETATM    8  N   UNL     1       1.712  10.259 -25.107  1.00  0.00    -0.338 N 
HETATM    9  C   UNL     1       2.606  10.464 -24.088  1.00  0.00     0.063 A 
HETATM   10  H   UNL     1       1.096  10.955 -25.495  1.00  0.00     0.167 HD
HETATM   11  C   UNL     1       3.241   9.240 -23.941  1.00  0.00     0.088 A 
HETATM   12  C   UNL     1       2.910  11.580 -23.310  1.00  0.00     0.034 A 
HETATM   13  C   UNL     1       4.238   9.088 -22.962  1.00  0.00     0.063 A 
HETATM   14  N   UNL     1       2.753   8.330 -24.844  1.00  0.00    -0.228 NA
HETATM   15  C   UNL     1       4.574  10.184 -22.158  1.00  0.00     0.037 A 
HETATM   16  C   UNL     1       3.910  11.409 -22.341  1.00  0.00     0.032 A 
BRANCH  15  17
HETATM   17  N   UNL     1       5.560  10.139 -21.147  1.00  0.00    -0.327 N 
HETATM   18  C   UNL     1       5.696   9.197 -20.144  1.00  0.00     0.218 C 
HETATM   19  C   UNL     1       6.873   9.472 -19.240  1.00  0.00     0.117 C 
HETATM   20  O   UNL     1       4.995   8.208 -19.961  1.00  0.00    -0.274 OA
HETATM   21  H   UNL     1       6.246  10.883 -21.169  1.00  0.00     0.169 HD
ENDBRANCH  15  17
ENDBRANCH   1   7
BRANCH   4  22
HETATM   22  C   UNL     1      -1.281   6.605 -29.795  1.00  0.00     0.180 A 
HETATM   23  O   UNL     1      -0.588   6.264 -30.932  1.00  0.00    -0.289 OA
HETATM   24  C   UNL     1      -1.539   5.746 -31.756  1.00  0.00     0.107 A 
HETATM   25  C   UNL     1      -2.750   5.793 -31.091  1.00  0.00     0.095 A 
HETATM   26  C   UNL     1      -1.364   5.252 -33.039  1.00  0.00     0.042 A 
HETATM   27  N   UNL     1      -2.577   6.344 -29.845  1.00  0.00    -0.221 NA
HETATM   28  C   UNL     1      -3.898   5.311 -31.736  1.00  0.00     0.064 A 
HETATM   29  C   UNL     1      -3.777   4.796 -33.042  1.00  0.00     0.037 A 
HETATM   30  C   UNL     1      -2.522   4.774 -33.672  1.00  0.00     0.032 A 
BRANCH  29  31
HETATM   31  N   UNL     1      -4.962   4.320 -33.646  1.00  0.00    -0.327 N 
HETATM   32  C   UNL     1      -5.615   3.126 -33.400  1.00  0.00     0.218 C 
HETATM   33  C   UNL     1      -6.861   2.953 -34.234  1.00  0.00     0.117 C 
HETATM   34  O   UNL     1      -5.271   2.249 -32.617  1.00  0.00    -0.274 OA
HETATM   35  H   UNL     1      -5.373   4.928 -34.344  1.00  0.00     0.169 HD
ENDBRANCH  29  31
ENDBRANCH   4  22
TORSDOF 4
ENDMDL
MODEL 2
REMARK VINA RESULT:      -8.7      3.444     13.401
REMARK  4 active torsions:
REMARK  status: ('A' for Active; 'I' for Inactive)
REMARK       I    between atoms: C_2  and  N_3 
REMARK    1  A    between atoms: N_3  and  C_4 
REMARK    2  A    between atoms: C_10  and  C_11 
REMARK    3  A    between atoms: C_14  and  C_15 
REMARK    4  A    between atoms: C_22  and  N_23 
REMARK       I    between atoms: N_23  and  C_24 
ROOT
HETATM    1  C   UNL     1      -4.341   3.948 -31.813  1.00  0.00     0.010 A 
HETATM    2  C   UNL     1      -2.957   4.147 -31.927  1.00  0.00     0.016 A 
HETATM    3  C   UNL     1      -2.315   5.178 -31.234  1.00  0.00     0.017 A 
HETATM    4  C   UNL     1      -3.041   6.047 -30.410  1.00  0.00     0.017 A 
HETATM    5  C   UNL     1      -4.427   5.858 -30.306  1.00  0.00     0.017 A 
HETATM    6  C   UNL     1      -5.071   4.822 -30.998  1.00  0.00     0.016 A 
ENDROOT
BRANCH   1   7
HETATM    7  C   UNL     1      -4.959   2.842 -32.550  1.00  0.00     0.139 A 
HETATM    8  N   UNL     1      -5.909   2.990 -33.536  1.00  0.00    -0.338 N 
HETATM    9  C   UNL     1      -6.290   1.748 -33.977  1.00  0.00     0.063 A 
HETATM   10  H   UNL     1      -6.287   3.867 -33.858  1.00  0.00     0.167 HD
HETATM   11  C   UNL     1      -5.526   0.871 -33.221  1.00  0.00     0.088 A 
HETATM   12  C   UNL     1      -7.210   1.328 -34.935  1.00  0.00     0.034 A 
HETATM   13  C   UNL     1      -5.663  -0.514 -33.416  1.00  0.00     0.063 A 
HETATM   14  N   UNL     1      -4.719   1.558 -32.350  1.00  0.00    -0.228 NA
HETATM   15  C   UNL     1      -6.576  -0.979 -34.370  1.00  0.00     0.037 A 
HETATM   16  C   UNL     1      -7.334  -0.057 -35.113  1.00  0.00     0.032 A 
BRANCH  15  17
HETATM   17  N   UNL     1      -6.792  -2.348 -34.645  1.00  0.00    -0.327 N 
HETATM   18  C   UNL     1      -5.842  -3.305 -34.956  1.00  0.00     0.218 C 
HETATM   19  C   UNL     1      -6.443  -4.670 -35.189  1.00  0.00     0.117 C 
HETATM   20  O   UNL     1      -4.629  -3.144 -35.027  1.00  0.00    -0.274 OA
HETATM   21  H   UNL     1      -7.754  -2.659 -34.602  1.00  0.00     0.169 HD
ENDBRANCH  15  17
ENDBRANCH   1   7
BRANCH   4  22
HETATM   22  C   UNL     1      -2.394   7.129 -29.670  1.00  0.00     0.180 A 
HETATM   23  O   UNL     1      -3.003   8.359 -29.730  1.00  0.00    -0.289 OA
HETATM   24  C   UNL     1      -2.201   9.162 -28.979  1.00  0.00     0.107 A 
HETATM   25  C   UNL     1      -1.156   8.393 -28.502  1.00  0.00     0.095 A 
HETATM   26  C   UNL     1      -2.368  10.513 -28.719  1.00  0.00     0.042 A 
HETATM   27  N   UNL     1      -1.285   7.101 -28.949  1.00  0.00    -0.221 NA
HETATM   28  C   UNL     1      -0.183   8.998 -27.693  1.00  0.00     0.064 A 
HETATM   29  C   UNL     1      -0.304  10.369 -27.395  1.00  0.00     0.037 A 
HETATM   30  C   UNL     1      -1.385  11.103 -27.908  1.00  0.00     0.032 A 
BRANCH  29  31
HETATM   31  N   UNL     1       0.700  10.929 -26.574  1.00  0.00    -0.327 N 
HETATM   32  C   UNL     1       0.796  10.865 -25.195  1.00  0.00     0.218 C 
HETATM   33  C   UNL     1       2.011  11.580 -24.656  1.00  0.00     0.117 C 
HETATM   34  O   UNL     1       0.011  10.319 -24.428  1.00  0.00    -0.274 OA
HETATM   35  H   UNL     1       1.428  11.440 -27.058  1.00  0.00     0.169 HD
ENDBRANCH  29  31
ENDBRANCH   4  22
TORSDOF 4
ENDMDL
MODEL 3
REMARK VINA RESULT:      -8.6      3.375      6.572
REMARK  4 active torsions:
REMARK  status: ('A' for Active; 'I' for Inactive)
REMARK       I    between atoms: C_2  and  N_3 
REMARK    1  A    between atoms: N_3  and  C_4 
REMARK    2  A    between atoms: C_10  and  C_11 
REMARK    3  A    between atoms: C_14  and  C_15 
REMARK    4  A    between atoms: C_22  and  N_23 
REMARK       I    between atoms: N_23  and  C_24 
ROOT
HETATM    1  C   UNL     1      -3.028   5.987 -30.368  1.00  0.00     0.010 A 
HETATM    2  C   UNL     1      -4.399   5.728 -30.234  1.00  0.00     0.016 A 
HETATM    3  C   UNL     1      -4.998   4.644 -30.884  1.00  0.00     0.017 A 
HETATM    4  C   UNL     1      -4.241   3.789 -31.695  1.00  0.00     0.017 A 
HETATM    5  C   UNL     1      -2.871   4.055 -31.842  1.00  0.00     0.017 A 
HETATM    6  C   UNL     1      -2.270   5.140 -31.187  1.00  0.00     0.016 A 
ENDROOT
BRANCH   1   7
HETATM    7  C   UNL     1      -2.451   7.129 -29.652  1.00  0.00     0.139 A 
HETATM    8  N   UNL     1      -2.947   8.413 -29.691  1.00  0.00    -0.338 N 
HETATM    9  C   UNL     1      -2.139   9.225 -28.938  1.00  0.00     0.063 A 
HETATM   10  H   UNL     1      -3.754   8.712 -30.215  1.00  0.00     0.167 HD
HETATM   11  C   UNL     1      -1.158   8.373 -28.452  1.00  0.00     0.088 A 
HETATM   12  C   UNL     1      -2.174  10.588 -28.652  1.00  0.00     0.034 A 
HETATM   13  C   UNL     1      -0.143   8.883 -27.625  1.00  0.00     0.063 A 
HETATM   14  N   UNL     1      -1.363   7.093 -28.902  1.00  0.00    -0.228 NA
HETATM   15  C   UNL     1      -0.141  10.247 -27.313  1.00  0.00     0.037 A 
HETATM   16  C   UNL     1      -1.151  11.078 -27.828  1.00  0.00     0.032 A 
BRANCH  15  17
HETATM   17  N   UNL     1       0.831  10.861 -26.492  1.00  0.00    -0.327 N 
HETATM   18  C   UNL     1       0.937  10.789 -25.115  1.00  0.00     0.218 C 
HETATM   19  C   UNL     1       2.107  11.577 -24.578  1.00  0.00     0.117 C 
HETATM   20  O   UNL     1       0.217  10.158 -24.351  1.00  0.00    -0.274 OA
HETATM   21  H   UNL     1       1.531  11.410 -26.974  1.00  0.00     0.169 HD
ENDBRANCH  15  17
ENDBRANCH   1   7
BRANCH   4  22
HETATM   22  C   UNL     1      -4.839   2.646 -32.381  1.00  0.00     0.180 A 
HETATM   23  O   UNL     1      -5.747   2.935 -33.371  1.00  0.00    -0.289 OA
HETATM   24  C   UNL     1      -6.145   1.714 -33.821  1.00  0.00     0.107 A 
HETATM   25  C   UNL     1      -5.470   0.751 -33.094  1.00  0.00     0.095 A 
HETATM   26  C   UNL     1      -7.062   1.444 -34.825  1.00  0.00     0.042 A 
HETATM   27  N   UNL     1      -4.643   1.353 -32.178  1.00  0.00    -0.221 NA
HETATM   28  C   UNL     1      -5.709  -0.602 -33.374  1.00  0.00     0.064 A 
HETATM   29  C   UNL     1      -6.632  -0.934 -34.385  1.00  0.00     0.037 A 
HETATM   30  C   UNL     1      -7.292   0.084 -35.091  1.00  0.00     0.032 A 
BRANCH  29  31
HETATM   31  N   UNL     1      -6.835  -2.311 -34.628  1.00  0.00    -0.327 N 
HETATM   32  C   UNL     1      -5.880  -3.264 -34.930  1.00  0.00     0.218 C 
HETATM   33  C   UNL     1      -6.464  -4.643 -35.124  1.00  0.00     0.117 C 
HETATM   34  O   UNL     1      -4.674  -3.083 -35.057  1.00  0.00    -0.274 OA
HETATM   35  H   UNL     1      -7.795  -2.627 -34.580  1.00  0.00     0.169 HD
ENDBRANCH  29  31
ENDBRANCH   4  22
TORSDOF 4
ENDMDL
MODEL 4
REMARK VINA RESULT:      -8.4      3.566      7.185
REMARK  4 active torsions:
REMARK  status: ('A' for Active; 'I' for Inactive)
REMARK       I    between atoms: C_2  and  N_3 
REMARK    1  A    between atoms: N_3  and  C_4 
REMARK    2  A    between atoms: C_10  and  C_11 
REMARK    3  A    between atoms: C_14  and  C_15 
REMARK    4  A    between atoms: C_22  and  N_23 
REMARK       I    between atoms: N_23  and  C_24 
ROOT
HETATM    1  C   UNL     1      -3.882   5.945 -30.223  1.00  0.00     0.010 A 
HETATM    2  C   UNL     1      -5.171   6.192 -29.730  1.00  0.00     0.016 A 
HETATM    3  C   UNL     1      -6.282   5.512 -30.237  1.00  0.00     0.017 A 
HETATM    4  C   UNL     1      -6.137   4.567 -31.261  1.00  0.00     0.017 A 
HETATM    5  C   UNL     1      -4.850   4.329 -31.765  1.00  0.00     0.017 A 
HETATM    6  C   UNL     1      -3.734   5.008 -31.254  1.00  0.00     0.016 A 
ENDROOT
BRANCH   1   7
HETATM    7  C   UNL     1      -2.751   6.676 -29.643  1.00  0.00     0.139 A 
HETATM    8  N   UNL     1      -1.431   6.297 -29.754  1.00  0.00    -0.338 N 
HETATM    9  C   UNL     1      -0.653   7.187 -29.059  1.00  0.00     0.063 A 
HETATM   10  H   UNL     1      -1.096   5.480 -30.238  1.00  0.00     0.167 HD
HETATM   11  C   UNL     1      -1.561   8.103 -28.545  1.00  0.00     0.088 A 
HETATM   12  C   UNL     1       0.720   7.268 -28.838  1.00  0.00     0.034 A 
HETATM   13  C   UNL     1      -1.097   9.175 -27.765  1.00  0.00     0.063 A 
HETATM   14  N   UNL     1      -2.841   7.771 -28.909  1.00  0.00    -0.228 NA
HETATM   15  C   UNL     1       0.276   9.294 -27.518  1.00  0.00     0.037 A 
HETATM   16  C   UNL     1       1.162   8.344 -28.054  1.00  0.00     0.032 A 
BRANCH  15  17
HETATM   17  N   UNL     1       0.846  10.332 -26.748  1.00  0.00    -0.327 N 
HETATM   18  C   UNL     1       1.278  10.268 -25.436  1.00  0.00     0.218 C 
HETATM   19  C   UNL     1       1.834  11.580 -24.939  1.00  0.00     0.117 C 
HETATM   20  O   UNL     1       1.266   9.285 -24.703  1.00  0.00    -0.274 OA
HETATM   21  H   UNL     1       0.953  11.222 -27.219  1.00  0.00     0.169 HD
ENDBRANCH  15  17
ENDBRANCH   1   7
BRANCH   4  22
HETATM   22  C   UNL     1      -7.281   3.838 -31.805  1.00  0.00     0.180 A 
HETATM   23  O   UNL     1      -7.014   2.959 -32.827  1.00  0.00    -0.289 OA
HETATM   24  C   UNL     1      -8.232   2.439 -33.143  1.00  0.00     0.107 A 
HETATM   25  C   UNL     1      -9.170   3.017 -32.309  1.00  0.00     0.095 A 
HETATM   26  C   UNL     1      -8.519   1.499 -34.120  1.00  0.00     0.042 A 
HETATM   27  N   UNL     1      -8.557   3.908 -31.462  1.00  0.00    -0.221 NA
HETATM   28  C   UNL     1     -10.515   2.642 -32.437  1.00  0.00     0.064 A 
HETATM   29  C   UNL     1     -10.864   1.689 -33.415  1.00  0.00     0.037 A 
HETATM   30  C   UNL     1      -9.870   1.135 -34.237  1.00  0.00     0.032 A 
BRANCH  29  31
HETATM   31  N   UNL     1     -12.231   1.344 -33.502  1.00  0.00    -0.327 N 
HETATM   32  C   UNL     1     -13.042   1.385 -34.621  1.00  0.00     0.218 C 
HETATM   33  C   UNL     1     -14.457   0.940 -34.339  1.00  0.00     0.117 C 
HETATM   34  O   UNL     1     -12.723   1.746 -35.747  1.00  0.00    -0.274 OA
HETATM   35  H   UNL     1     -12.661   1.037 -32.638  1.00  0.00     0.169 HD
ENDBRANCH  29  31
ENDBRANCH   4  22
TORSDOF 4
ENDMDL
MODEL 5
REMARK VINA RESULT:      -8.2      1.811     12.600
REMARK  4 active torsions:
REMARK  status: ('A' for Active; 'I' for Inactive)
REMARK       I    between atoms: C_2  and  N_3 
REMARK    1  A    between atoms: N_3  and  C_4 
REMARK    2  A    between atoms: C_10  and  C_11 
REMARK    3  A    between atoms: C_14  and  C_15 
REMARK    4  A    between atoms: C_22  and  N_23 
REMARK       I    between atoms: N_23  and  C_24 
ROOT
HETATM    1  C   UNL     1      -1.503   7.119 -29.298  1.00  0.00     0.010 A 
HETATM    2  C   UNL     1      -2.055   7.536 -28.079  1.00  0.00     0.016 A 
HETATM    3  C   UNL     1      -1.242   7.985 -27.033  1.00  0.00     0.017 A 
HETATM    4  C   UNL     1       0.151   8.023 -27.175  1.00  0.00     0.017 A 
HETATM    5  C   UNL     1       0.705   7.592 -28.389  1.00  0.00     0.017 A 
HETATM    6  C   UNL     1      -0.110   7.145 -29.440  1.00  0.00     0.016 A 
ENDROOT
BRANCH   1   7
HETATM    7  C   UNL     1      -2.404   6.672 -30.366  1.00  0.00     0.139 A 
HETATM    8  N   UNL     1      -1.994   6.200 -31.593  1.00  0.00    -0.338 N 
HETATM    9  C   UNL     1      -3.099   5.912 -32.351  1.00  0.00     0.063 A 
HETATM   10  H   UNL     1      -1.036   6.111 -31.895  1.00  0.00     0.167 HD
HETATM   11  C   UNL     1      -4.169   6.226 -31.525  1.00  0.00     0.088 A 
HETATM   12  C   UNL     1      -3.254   5.427 -33.648  1.00  0.00     0.034 A 
HETATM   13  C   UNL     1      -5.482   6.048 -31.992  1.00  0.00     0.063 A 
HETATM   14  N   UNL     1      -3.724   6.693 -30.315  1.00  0.00    -0.228 NA
HETATM   15  C   UNL     1      -5.682   5.562 -33.289  1.00  0.00     0.037 A 
HETATM   16  C   UNL     1      -4.572   5.259 -34.096  1.00  0.00     0.032 A 
BRANCH  15  17
HETATM   17  N   UNL     1      -6.958   5.347 -33.857  1.00  0.00    -0.327 N 
HETATM   18  C   UNL     1      -7.903   4.412 -33.474  1.00  0.00     0.218 C 
HETATM   19  C   UNL     1      -9.157   4.473 -34.313  1.00  0.00     0.117 C 
HETATM   20  O   UNL     1      -7.816   3.609 -32.553  1.00  0.00    -0.274 OA
HETATM   21  H   UNL     1      -7.205   5.955 -34.627  1.00  0.00     0.169 HD
ENDBRANCH  15  17
ENDBRANCH   1   7
BRANCH   4  22
HETATM   22  C   UNL     1       1.022   8.493 -26.100  1.00  0.00     0.180 A 
HETATM   23  O   UNL     1       0.520   9.488 -25.297  1.00  0.00    -0.289 OA
HETATM   24  C   UNL     1       1.522   9.736 -24.410  1.00  0.00     0.107 A 
HETATM   25  C   UNL     1       2.574   8.890 -24.710  1.00  0.00     0.095 A 
HETATM   26  C   UNL     1       1.525  10.662 -23.380  1.00  0.00     0.042 A 
HETATM   27  N   UNL     1       2.248   8.104 -25.789  1.00  0.00    -0.221 NA
HETATM   28  C   UNL     1       3.737   8.951 -23.930  1.00  0.00     0.064 A 
HETATM   29  C   UNL     1       3.795   9.875 -22.868  1.00  0.00     0.037 A 
HETATM   30  C   UNL     1       2.698  10.712 -22.609  1.00  0.00     0.032 A 
BRANCH  29  31
HETATM   31  N   UNL     1       4.988   9.895 -22.112  1.00  0.00    -0.327 N 
HETATM   32  C   UNL     1       5.328   9.079 -21.048  1.00  0.00     0.218 C 
HETATM   33  C   UNL     1       6.693   9.387 -20.481  1.00  0.00     0.117 C 
HETATM   34  O   UNL     1       4.641   8.192 -20.554  1.00  0.00    -0.274 OA
HETATM   35  H   UNL     1       5.667  10.596 -22.383  1.00  0.00     0.169 HD
ENDBRANCH  29  31
ENDBRANCH   4  22
TORSDOF 4
ENDMDL
MODEL 6
REMARK VINA RESULT:      -8.1      4.173     14.551
REMARK  4 active torsions:
REMARK  status: ('A' for Active; 'I' for Inactive)
REMARK       I    between atoms: C_2  and  N_3 
REMARK    1  A    between atoms: N_3  and  C_4 
REMARK    2  A    between atoms: C_10  and  C_11 
REMARK    3  A    between atoms: C_14  and  C_15 
REMARK    4  A    between atoms: C_22  and  N_23 
REMARK       I    between atoms: N_23  and  C_24 
ROOT
HETATM    1  C   UNL     1      -7.183   4.908 -32.688  1.00  0.00     0.010 A 
HETATM    2  C   UNL     1      -6.146   5.382 -33.503  1.00  0.00     0.016 A 
HETATM    3  C   UNL     1      -4.935   5.817 -32.953  1.00  0.00     0.017 A 
HETATM    4  C   UNL     1      -4.731   5.798 -31.568  1.00  0.00     0.017 A 
HETATM    5  C   UNL     1      -5.773   5.338 -30.751  1.00  0.00     0.017 A 
HETATM    6  C   UNL     1      -6.986   4.898 -31.302  1.00  0.00     0.016 A 
ENDROOT
BRANCH   1   7
HETATM    7  C   UNL     1      -8.425   4.450 -33.319  1.00  0.00     0.139 A 
HETATM    8  N   UNL     1      -9.085   5.116 -34.328  1.00  0.00    -0.338 N 
HETATM    9  C   UNL     1     -10.224   4.423 -34.647  1.00  0.00     0.063 A 
HETATM   10  H   UNL     1      -8.795   5.988 -34.741  1.00  0.00     0.167 HD
HETATM   11  C   UNL     1     -10.205   3.326 -33.797  1.00  0.00     0.088 A 
HETATM   12  C   UNL     1     -11.242   4.653 -35.571  1.00  0.00     0.034 A 
HETATM   13  C   UNL     1     -11.246   2.385 -33.855  1.00  0.00     0.063 A 
HETATM   14  N   UNL     1      -9.097   3.361 -32.989  1.00  0.00    -0.228 NA
HETATM   15  C   UNL     1     -12.288   2.578 -34.770  1.00  0.00     0.037 A 
HETATM   16  C   UNL     1     -12.273   3.703 -35.611  1.00  0.00     0.032 A 
BRANCH  15  17
HETATM   17  N   UNL     1     -13.381   1.694 -34.909  1.00  0.00    -0.327 N 
HETATM   18  C   UNL     1     -14.405   1.471 -34.006  1.00  0.00     0.218 C 
HETATM   19  C   UNL     1     -15.404   0.451 -34.495  1.00  0.00     0.117 C 
HETATM   20  O   UNL     1     -14.565   2.021 -32.922  1.00  0.00    -0.274 OA
HETATM   21  H   UNL     1     -13.416   1.170 -35.774  1.00  0.00     0.169 HD
ENDBRANCH  15  17
ENDBRANCH   1   7
BRANCH   4  22
HETATM   22  C   UNL     1      -3.474   6.241 -30.968  1.00  0.00     0.180 A 
HETATM   23  O   UNL     1      -2.324   5.907 -31.642  1.00  0.00    -0.289 OA
HETATM   24  C   UNL     1      -1.327   6.423 -30.872  1.00  0.00     0.107 A 
HETATM   25  C   UNL     1      -1.910   7.040 -29.780  1.00  0.00     0.095 A 
HETATM   26  C   UNL     1       0.037   6.360 -31.106  1.00  0.00     0.042 A 
HETATM   27  N   UNL     1      -3.276   6.917 -29.848  1.00  0.00    -0.221 NA
HETATM   28  C   UNL     1      -1.084   7.656 -28.829  1.00  0.00     0.064 A 
HETATM   29  C   UNL     1       0.312   7.623 -29.018  1.00  0.00     0.037 A 
HETATM   30  C   UNL     1       0.850   6.980 -30.144  1.00  0.00     0.032 A 
BRANCH  29  31
HETATM   31  N   UNL     1       1.098   8.259 -28.032  1.00  0.00    -0.327 N 
HETATM   32  C   UNL     1       1.281   7.871 -26.717  1.00  0.00     0.218 C 
HETATM   33  C   UNL     1       2.196   8.796 -25.952  1.00  0.00     0.117 C 
HETATM   34  O   UNL     1       0.776   6.903 -26.160  1.00  0.00    -0.274 OA
HETATM   35  H   UNL     1       1.577   9.101 -28.329  1.00  0.00     0.169 HD
ENDBRANCH  29  31
ENDBRANCH   4  22
TORSDOF 4
ENDMDL
MODEL 7
REMARK VINA RESULT:      -8.1      2.580      5.220
REMARK  4 active torsions:
REMARK  status: ('A' for Active; 'I' for Inactive)
REMARK       I    between atoms: C_2  and  N_3 
REMARK    1  A    between atoms: N_3  and  C_4 
REMARK    2  A    between atoms: C_10  and  C_11 
REMARK    3  A    between atoms: C_14  and  C_15 
REMARK    4  A    between atoms: C_22  and  N_23 
REMARK       I    between atoms: N_23  and  C_24 
ROOT
HETATM    1  C   UNL     1      -2.602   6.707 -29.511  1.00  0.00     0.010 A 
HETATM    2  C   UNL     1      -3.948   6.726 -29.119  1.00  0.00     0.016 A 
HETATM    3  C   UNL     1      -4.923   6.038 -29.847  1.00  0.00     0.017 A 
HETATM    4  C   UNL     1      -4.581   5.316 -30.997  1.00  0.00     0.017 A 
HETATM    5  C   UNL     1      -3.237   5.308 -31.399  1.00  0.00     0.017 A 
HETATM    6  C   UNL     1      -2.257   5.995 -30.666  1.00  0.00     0.016 A 
ENDROOT
BRANCH   1   7
HETATM    7  C   UNL     1      -1.619   7.434 -28.700  1.00  0.00     0.139 A 
HETATM    8  N   UNL     1      -1.695   8.772 -28.387  1.00  0.00    -0.338 N 
HETATM    9  C   UNL     1      -0.592   9.121 -27.651  1.00  0.00     0.063 A 
HETATM   10  H   UNL     1      -2.427   9.401 -28.679  1.00  0.00     0.167 HD
HETATM   11  C   UNL     1       0.128   7.940 -27.539  1.00  0.00     0.088 A 
HETATM   12  C   UNL     1      -0.170  10.327 -27.095  1.00  0.00     0.034 A 
HETATM   13  C   UNL     1       1.342   7.932 -26.831  1.00  0.00     0.063 A 
HETATM   14  N   UNL     1      -0.514   6.918 -28.191  1.00  0.00    -0.228 NA
HETATM   15  C   UNL     1       1.802   9.123 -26.257  1.00  0.00     0.037 A 
HETATM   16  C   UNL     1       1.045  10.299 -26.396  1.00  0.00     0.032 A 
BRANCH  15  17
HETATM   17  N   UNL     1       3.007   9.225 -25.526  1.00  0.00    -0.327 N 
HETATM   18  C   UNL     1       3.162   9.212 -24.152  1.00  0.00     0.218 C 
HETATM   19  C   UNL     1       4.605   9.344 -23.726  1.00  0.00     0.117 C 
HETATM   20  O   UNL     1       2.280   9.087 -23.311  1.00  0.00    -0.274 OA
HETATM   21  H   UNL     1       3.850   9.311 -26.079  1.00  0.00     0.169 HD
ENDBRANCH  15  17
ENDBRANCH   1   7
BRANCH   4  22
HETATM   22  C   UNL     1      -5.579   4.584 -31.774  1.00  0.00     0.180 A 
HETATM   23  O   UNL     1      -5.157   3.417 -32.365  1.00  0.00    -0.289 OA
HETATM   24  C   UNL     1      -6.260   2.960 -33.019  1.00  0.00     0.107 A 
HETATM   25  C   UNL     1      -7.289   3.857 -32.796  1.00  0.00     0.095 A 
HETATM   26  C   UNL     1      -6.371   1.809 -33.781  1.00  0.00     0.042 A 
HETATM   27  N   UNL     1      -6.846   4.889 -32.006  1.00  0.00    -0.221 NA
HETATM   28  C   UNL     1      -8.543   3.606 -33.369  1.00  0.00     0.064 A 
HETATM   29  C   UNL     1      -8.712   2.448 -34.154  1.00  0.00     0.037 A 
HETATM   30  C   UNL     1      -7.633   1.572 -34.349  1.00  0.00     0.032 A 
BRANCH  29  31
HETATM   31  N   UNL     1      -9.996   2.241 -34.706  1.00  0.00    -0.327 N 
HETATM   32  C   UNL     1     -11.006   1.433 -34.215  1.00  0.00     0.218 C 
HETATM   33  C   UNL     1     -12.249   1.459 -35.071  1.00  0.00     0.117 C 
HETATM   34  O   UNL     1     -10.964   0.733 -33.210  1.00  0.00    -0.274 OA
HETATM   35  H   UNL     1     -10.190   2.740 -35.565  1.00  0.00     0.169 HD
ENDBRANCH  29  31
ENDBRANCH   4  22
TORSDOF 4
ENDMDL
MODEL 8
REMARK VINA RESULT:      -7.9      3.712     14.158
REMARK  4 active torsions:
REMARK  status: ('A' for Active; 'I' for Inactive)
REMARK       I    between atoms: C_2  and  N_3 
REMARK    1  A    between atoms: N_3  and  C_4 
REMARK    2  A    between atoms: C_10  and  C_11 
REMARK    3  A    between atoms: C_14  and  C_15 
REMARK    4  A    between atoms: C_22  and  N_23 
REMARK       I    between atoms: N_23  and  C_24 
ROOT
HETATM    1  C   UNL     1      -6.200   4.425 -31.433  1.00  0.00     0.010 A 
HETATM    2  C   UNL     1      -5.994   4.382 -30.047  1.00  0.00     0.016 A 
HETATM    3  C   UNL     1      -4.971   5.122 -29.444  1.00  0.00     0.017 A 
HETATM    4  C   UNL     1      -4.119   5.924 -30.213  1.00  0.00     0.017 A 
HETATM    5  C   UNL     1      -4.316   5.958 -31.602  1.00  0.00     0.017 A 
HETATM    6  C   UNL     1      -5.343   5.218 -32.206  1.00  0.00     0.016 A 
ENDROOT
BRANCH   1   7
HETATM    7  C   UNL     1      -7.297   3.641 -32.009  1.00  0.00     0.139 A 
HETATM    8  N   UNL     1      -7.165   2.763 -33.062  1.00  0.00    -0.338 N 
HETATM    9  C   UNL     1      -8.396   2.239 -33.360  1.00  0.00     0.063 A 
HETATM   10  H   UNL     1      -6.309   2.565 -33.554  1.00  0.00     0.167 HD
HETATM   11  C   UNL     1      -9.251   2.833 -32.442  1.00  0.00     0.088 A 
HETATM   12  C   UNL     1      -8.827   1.329 -34.324  1.00  0.00     0.034 A 
HETATM   13  C   UNL     1     -10.619   2.515 -32.461  1.00  0.00     0.063 A 
HETATM   14  N   UNL     1      -8.560   3.692 -31.625  1.00  0.00    -0.228 NA
HETATM   15  C   UNL     1     -11.093   1.606 -33.414  1.00  0.00     0.037 A 
HETATM   16  C   UNL     1     -10.196   1.028 -34.328  1.00  0.00     0.032 A 
BRANCH  15  17
HETATM   17  N   UNL     1     -12.448   1.218 -33.519  1.00  0.00    -0.327 N 
HETATM   18  C   UNL     1     -13.351   1.572 -34.505  1.00  0.00     0.218 C 
HETATM   19  C   UNL     1     -14.717   0.967 -34.291  1.00  0.00     0.117 C 
HETATM   20  O   UNL     1     -13.134   2.273 -35.487  1.00  0.00    -0.274 OA
HETATM   21  H   UNL     1     -12.788   0.605 -32.789  1.00  0.00     0.169 HD
ENDBRANCH  15  17
ENDBRANCH   1   7
BRANCH   4  22
HETATM   22  C   UNL     1      -3.048   6.712 -29.609  1.00  0.00     0.180 A 
HETATM   23  O   UNL     1      -1.763   6.308 -29.884  1.00  0.00    -0.289 OA
HETATM   24  C   UNL     1      -0.985   7.191 -29.200  1.00  0.00     0.107 A 
HETATM   25  C   UNL     1      -1.821   8.080 -28.550  1.00  0.00     0.095 A 
HETATM   26  C   UNL     1       0.399   7.224 -29.140  1.00  0.00     0.042 A 
HETATM   27  N   UNL     1      -3.132   7.766 -28.813  1.00  0.00    -0.221 NA
HETATM   28  C   UNL     1      -1.254   9.098 -27.770  1.00  0.00     0.064 A 
HETATM   29  C   UNL     1       0.149   9.179 -27.675  1.00  0.00     0.037 A 
HETATM   30  C   UNL     1       0.951   8.249 -28.355  1.00  0.00     0.032 A 
BRANCH  29  31
HETATM   31  N   UNL     1       0.669  10.224 -26.879  1.00  0.00    -0.327 N 
HETATM   32  C   UNL     1       1.154  10.140 -25.587  1.00  0.00     0.218 C 
HETATM   33  C   UNL     1       1.634  11.467 -25.049  1.00  0.00     0.117 C 
HETATM   34  O   UNL     1       1.206   9.136 -24.885  1.00  0.00    -0.274 OA
HETATM   35  H   UNL     1       0.680  11.140 -27.311  1.00  0.00     0.169 HD
ENDBRANCH  29  31
ENDBRANCH   4  22
TORSDOF 4
ENDMDL
MODEL 9
REMARK VINA RESULT:      -7.9      3.425     13.842
REMARK  4 active torsions:
REMARK  status: ('A' for Active; 'I' for Inactive)
REMARK       I    between atoms: C_2  and  N_3 
REMARK    1  A    between atoms: N_3  and  C_4 
REMARK    2  A    between atoms: C_10  and  C_11 
REMARK    3  A    between atoms: C_14  and  C_15 
REMARK    4  A    between atoms: C_22  and  N_23 
REMARK       I    between atoms: N_23  and  C_24 
ROOT
HETATM    1  C   UNL     1      -5.954   5.913 -31.611  1.00  0.00     0.010 A 
HETATM    2  C   UNL     1      -5.050   6.751 -32.279  1.00  0.00     0.016 A 
HETATM    3  C   UNL     1      -3.964   7.324 -31.610  1.00  0.00     0.017 A 
HETATM    4  C   UNL     1      -3.755   7.082 -30.246  1.00  0.00     0.017 A 
HETATM    5  C   UNL     1      -4.667   6.256 -29.573  1.00  0.00     0.017 A 
HETATM    6  C   UNL     1      -5.754   5.677 -30.244  1.00  0.00     0.016 A 
ENDROOT
BRANCH   1   7
HETATM    7  C   UNL     1      -7.066   5.326 -32.366  1.00  0.00     0.139 A 
HETATM    8  N   UNL     1      -7.728   5.950 -33.400  1.00  0.00    -0.338 N 
HETATM    9  C   UNL     1      -8.731   5.128 -33.845  1.00  0.00     0.063 A 
HETATM   10  H   UNL     1      -7.528   6.873 -33.750  1.00  0.00     0.167 HD
HETATM   11  C   UNL     1      -8.630   4.002 -33.042  1.00  0.00     0.088 A 
HETATM   12  C   UNL     1      -9.692   5.268 -34.845  1.00  0.00     0.034 A 
HETATM   13  C   UNL     1      -9.524   2.934 -33.229  1.00  0.00     0.063 A 
HETATM   14  N   UNL     1      -7.607   4.142 -32.139  1.00  0.00    -0.228 NA
HETATM   15  C   UNL     1     -10.504   3.033 -34.222  1.00  0.00     0.037 A 
HETATM   16  C   UNL     1     -10.576   4.193 -35.013  1.00  0.00     0.032 A 
BRANCH  15  17
HETATM   17  N   UNL     1     -11.451   2.019 -34.492  1.00  0.00    -0.327 N 
HETATM   18  C   UNL     1     -12.669   1.817 -33.869  1.00  0.00     0.218 C 
HETATM   19  C   UNL     1     -13.417   0.628 -34.422  1.00  0.00     0.117 C 
HETATM   20  O   UNL     1     -13.164   2.498 -32.979  1.00  0.00    -0.274 OA
HETATM   21  H   UNL     1     -11.205   1.374 -35.232  1.00  0.00     0.169 HD
ENDBRANCH  15  17
ENDBRANCH   1   7
BRANCH   4  22
HETATM   22  C   UNL     1      -2.626   7.663 -29.524  1.00  0.00     0.180 A 
HETATM   23  O   UNL     1      -1.409   7.049 -29.696  1.00  0.00    -0.289 OA
HETATM   24  C   UNL     1      -0.560   7.773 -28.918  1.00  0.00     0.107 A 
HETATM   25  C   UNL     1      -1.289   8.783 -28.317  1.00  0.00     0.095 A 
HETATM   26  C   UNL     1       0.798   7.566 -28.734  1.00  0.00     0.042 A 
HETATM   27  N   UNL     1      -2.604   8.704 -28.706  1.00  0.00    -0.221 NA
HETATM   28  C   UNL     1      -0.632   9.676 -27.458  1.00  0.00     0.064 A 
HETATM   29  C   UNL     1       0.749   9.512 -27.236  1.00  0.00     0.037 A 
HETATM   30  C   UNL     1       1.441   8.468 -27.870  1.00  0.00     0.032 A 
BRANCH  29  31
HETATM   31  N   UNL     1       1.363  10.439 -26.364  1.00  0.00    -0.327 N 
HETATM   32  C   UNL     1       1.677  10.262 -25.029  1.00  0.00     0.218 C 
HETATM   33  C   UNL     1       2.332  11.474 -24.412  1.00  0.00     0.117 C 
HETATM   34  O   UNL     1       1.464   9.264 -24.350  1.00  0.00    -0.274 OA
HETATM   35  H   UNL     1       1.591  11.338 -26.770  1.00  0.00     0.169 HD
ENDBRANCH  29  31
ENDBRANCH   4  22
TORSDOF 4
ENDMDL
MODEL 10
REMARK VINA RESULT:      -7.8      5.228     14.986
REMARK  4 active torsions:
REMARK  status: ('A' for Active; 'I' for Inactive)
REMARK       I    between atoms: C_2  and  N_3 
REMARK    1  A    between atoms: N_3  and  C_4 
REMARK    2  A    between atoms: C_10  and  C_11 
REMARK    3  A    between atoms: C_14  and  C_15 
REMARK    4  A    between atoms: C_22  and  N_23 
REMARK       I    between atoms: N_23  and  C_24 
ROOT
HETATM    1  C   UNL     1      -8.571   3.981 -32.225  1.00  0.00     0.010 A 
HETATM    2  C   UNL     1      -7.584   3.070 -31.825  1.00  0.00     0.016 A 
HETATM    3  C   UNL     1      -6.295   3.500 -31.492  1.00  0.00     0.017 A 
HETATM    4  C   UNL     1      -5.954   4.857 -31.558  1.00  0.00     0.017 A 
HETATM    5  C   UNL     1      -6.937   5.768 -31.972  1.00  0.00     0.017 A 
HETATM    6  C   UNL     1      -8.231   5.338 -32.302  1.00  0.00     0.016 A 
ENDROOT
BRANCH   1   7
HETATM    7  C   UNL     1      -9.910   3.477 -32.547  1.00  0.00     0.139 A 
HETATM    8  N   UNL     1     -10.199   2.631 -33.595  1.00  0.00    -0.338 N 
HETATM    9  C   UNL     1     -11.550   2.399 -33.619  1.00  0.00     0.063 A 
HETATM   10  H   UNL     1      -9.531   2.270 -34.256  1.00  0.00     0.167 HD
HETATM   11  C   UNL     1     -12.040   3.131 -32.546  1.00  0.00     0.088 A 
HETATM   12  C   UNL     1     -12.363   1.642 -34.460  1.00  0.00     0.034 A 
HETATM   13  C   UNL     1     -13.418   3.120 -32.270  1.00  0.00     0.063 A 
HETATM   14  N   UNL     1     -11.022   3.787 -31.904  1.00  0.00    -0.228 NA
HETATM   15  C   UNL     1     -14.270   2.371 -33.091  1.00  0.00     0.037 A 
HETATM   16  C   UNL     1     -13.735   1.647 -34.170  1.00  0.00     0.032 A 
BRANCH  15  17
HETATM   17  N   UNL     1     -15.668   2.292 -32.902  1.00  0.00    -0.327 N 
HETATM   18  C   UNL     1     -16.485   3.208 -32.264  1.00  0.00     0.218 C 
HETATM   19  C   UNL     1     -17.935   2.789 -32.252  1.00  0.00     0.117 C 
HETATM   20  O   UNL     1     -16.147   4.274 -31.763  1.00  0.00    -0.274 OA
HETATM   21  H   UNL     1     -16.118   1.471 -33.285  1.00  0.00     0.169 HD
ENDBRANCH  15  17
ENDBRANCH   1   7
BRANCH   4  22
HETATM   22  C   UNL     1      -4.617   5.333 -31.211  1.00  0.00     0.180 A 
HETATM   23  O   UNL     1      -3.564   4.696 -31.821  1.00  0.00    -0.289 OA
HETATM   24  C   UNL     1      -2.463   5.319 -31.318  1.00  0.00     0.107 A 
HETATM   25  C   UNL     1      -2.892   6.295 -30.438  1.00  0.00     0.095 A 
HETATM   26  C   UNL     1      -1.136   5.051 -31.611  1.00  0.00     0.042 A 
HETATM   27  N   UNL     1      -4.264   6.295 -30.373  1.00  0.00    -0.221 NA
HETATM   28  C   UNL     1      -1.936   7.085 -29.783  1.00  0.00     0.064 A 
HETATM   29  C   UNL     1      -0.571   6.856 -30.044  1.00  0.00     0.037 A 
HETATM   30  C   UNL     1      -0.191   5.850 -30.946  1.00  0.00     0.032 A 
BRANCH  29  31
HETATM   31  N   UNL     1       0.350   7.680 -29.360  1.00  0.00    -0.327 N 
HETATM   32  C   UNL     1       0.751   7.583 -28.040  1.00  0.00     0.218 C 
HETATM   33  C   UNL     1       1.758   8.639 -27.651  1.00  0.00     0.117 C 
HETATM   34  O   UNL     1       0.365   6.766 -27.213  1.00  0.00    -0.274 OA
HETATM   35  H   UNL     1       0.755   8.431 -29.905  1.00  0.00     0.169 HD
ENDBRANCH  29  31
ENDBRANCH   4  22
TORSDOF 4
ENDMDL
