MODEL 1
REMARK VINA RESULT:      -9.2      0.000      0.000
REMARK  7 active torsions:
REMARK  status: ('A' for Active; 'I' for Inactive)
REMARK    1  A    between atoms: C_8  and  C_9 
REMARK    2  A    between atoms: C_9  and  C_10 
REMARK       I    between atoms: C_10  and  N_11 
REMARK    3  A    between atoms: N_11  and  C_27 
REMARK    4  A    between atoms: N_11  and  C_12 
REMARK    5  A    between atoms: C_12  and  C_13 
REMARK    6  A    between atoms: C_12  and  C_22 
REMARK       I    between atoms: C_13  and  N_14 
REMARK    7  A    between atoms: N_14  and  C_15 
ROOT
HETATM    1  C   UNL     1      -5.602   2.362 -30.898  1.00  0.00     0.229 C 
HETATM    2  N   UNL     1      -6.384   3.258 -31.629  1.00  0.00    -0.299 N 
HETATM    3  O   UNL     1      -4.490   2.694 -30.467  1.00  0.00    -0.273 OA
ENDROOT
BRANCH   2   4
HETATM    4  C   UNL     1      -7.782   3.107 -31.859  1.00  0.00     0.041 A 
HETATM    5  C   UNL     1      -8.242   2.755 -33.138  1.00  0.00     0.069 A 
HETATM    6  C   UNL     1      -9.604   2.710 -33.349  1.00  0.00     0.107 A 
HETATM    7  C   UNL     1     -10.504   2.996 -32.351  1.00  0.00     0.105 A 
HETATM    8  O   UNL     1     -10.215   2.404 -34.526  1.00  0.00    -0.323 OA
HETATM    9  O   UNL     1     -11.794   2.906 -32.773  1.00  0.00    -0.323 OA
HETATM   10  C   UNL     1     -10.092   3.342 -31.084  1.00  0.00     0.042 A 
HETATM   11  C   UNL     1     -11.602   2.561 -34.161  1.00  0.00     0.352 A 
HETATM   12  C   UNL     1      -8.714   3.407 -30.841  1.00  0.00     0.032 A 
ENDBRANCH   2   4
BRANCH   2  13
HETATM   13  C   UNL     1      -5.812   4.583 -31.982  1.00  0.00     0.225 C 
BRANCH  13  14
HETATM   14  C   UNL     1      -4.443   4.444 -32.689  1.00  0.00     0.246 C 
HETATM   15  N   UNL     1      -3.335   4.939 -32.035  1.00  0.00    -0.354 N 
HETATM   16  H   UNL     1      -3.474   4.928 -31.024  1.00  0.00     0.162 HD
HETATM   17  O   UNL     1      -4.359   3.788 -33.730  1.00  0.00    -0.271 OA
BRANCH  15  18
HETATM   18  C   UNL     1      -1.955   4.635 -32.423  1.00  0.00     0.084 C 
HETATM   19  C   UNL     1      -1.390   5.482 -33.577  1.00  0.00     0.025 C 
HETATM   20  C   UNL     1      -1.204   6.948 -33.194  1.00  0.00     0.002 C 
HETATM   21  C   UNL     1      -0.321   7.089 -31.961  1.00  0.00     0.000 C 
HETATM   22  C   UNL     1      -0.842   6.253 -30.796  1.00  0.00     0.002 C 
HETATM   23  C   UNL     1      -1.044   4.787 -31.191  1.00  0.00     0.025 C 
ENDBRANCH  15  18
ENDBRANCH  13  14
BRANCH  13  24
HETATM   24  C   UNL     1      -5.925   5.581 -30.833  1.00  0.00     0.015 A 
HETATM   25  S   UNL     1      -6.183   7.248 -31.239  1.00  0.00    -0.104 SA
HETATM   26  C   UNL     1      -6.300   7.717 -29.604  1.00  0.00     0.050 A 
HETATM   27  C   UNL     1      -6.141   6.652 -28.752  1.00  0.00     0.008 A 
HETATM   28  C   UNL     1      -5.917   5.432 -29.455  1.00  0.00     0.017 A 
ENDBRANCH  13  24
ENDBRANCH   2  13
BRANCH   1  29
HETATM   29  C   UNL     1      -6.076   0.921 -30.707  1.00  0.00     0.144 C 
BRANCH  29  30
HETATM   30  C   UNL     1      -5.263  -0.073 -31.489  1.00  0.00    -0.021 A 
HETATM   31  C   UNL     1      -5.645  -0.815 -32.659  1.00  0.00    -0.001 A 
HETATM   32  C   UNL     1      -6.823  -0.912 -33.430  1.00  0.00     0.014 A 
HETATM   33  C   UNL     1      -4.543  -1.576 -33.052  1.00  0.00     0.042 A 
HETATM   34  C   UNL     1      -6.866  -1.769 -34.536  1.00  0.00     0.001 A 
HETATM   35  C   UNL     1      -5.748  -2.515 -34.897  1.00  0.00     0.002 A 
HETATM   36  C   UNL     1      -4.562  -2.429 -34.164  1.00  0.00     0.030 A 
HETATM   37  N   UNL     1      -3.527  -1.307 -32.168  1.00  0.00    -0.365 N 
HETATM   38  H   UNL     1      -2.603  -1.712 -32.217  1.00  0.00     0.165 HD
HETATM   39  C   UNL     1      -3.945  -0.407 -31.227  1.00  0.00     0.097 A 
ENDBRANCH  29  30
ENDBRANCH   1  29
TORSDOF 7
ENDMDL
MODEL 2
REMARK VINA RESULT:      -9.1      2.769      4.612
REMARK  7 active torsions:
REMARK  status: ('A' for Active; 'I' for Inactive)
REMARK    1  A    between atoms: C_8  and  C_9 
REMARK    2  A    between atoms: C_9  and  C_10 
REMARK       I    between atoms: C_10  and  N_11 
REMARK    3  A    between atoms: N_11  and  C_27 
REMARK    4  A    between atoms: N_11  and  C_12 
REMARK    5  A    between atoms: C_12  and  C_13 
REMARK    6  A    between atoms: C_12  and  C_22 
REMARK       I    between atoms: C_13  and  N_14 
REMARK    7  A    between atoms: N_14  and  C_15 
ROOT
HETATM    1  C   UNL     1      -4.838   3.099 -30.907  1.00  0.00     0.229 C 
HETATM    2  N   UNL     1      -4.795   4.490 -31.009  1.00  0.00    -0.299 N 
HETATM    3  O   UNL     1      -3.800   2.427 -30.953  1.00  0.00    -0.273 OA
ENDROOT
BRANCH   2   4
HETATM    4  C   UNL     1      -5.854   5.362 -30.623  1.00  0.00     0.041 A 
HETATM    5  C   UNL     1      -6.169   5.513 -29.263  1.00  0.00     0.069 A 
HETATM    6  C   UNL     1      -7.259   6.290 -28.930  1.00  0.00     0.107 A 
HETATM    7  C   UNL     1      -8.029   6.908 -29.886  1.00  0.00     0.105 A 
HETATM    8  O   UNL     1      -7.709   6.527 -27.669  1.00  0.00    -0.323 OA
HETATM    9  O   UNL     1      -9.060   7.612 -29.346  1.00  0.00    -0.323 OA
HETATM   10  C   UNL     1      -7.751   6.786 -31.229  1.00  0.00     0.042 A 
HETATM   11  C   UNL     1      -8.869   7.340 -27.942  1.00  0.00     0.352 A 
HETATM   12  C   UNL     1      -6.656   5.995 -31.599  1.00  0.00     0.032 A 
ENDBRANCH   2   4
BRANCH   2  13
HETATM   13  C   UNL     1      -3.492   5.147 -31.291  1.00  0.00     0.225 C 
BRANCH  13  14
HETATM   14  C   UNL     1      -3.303   6.426 -30.442  1.00  0.00     0.246 C 
HETATM   15  N   UNL     1      -2.545   6.324 -29.296  1.00  0.00    -0.354 N 
HETATM   16  H   UNL     1      -1.861   5.571 -29.377  1.00  0.00     0.162 HD
HETATM   17  O   UNL     1      -3.708   7.509 -30.874  1.00  0.00    -0.271 OA
BRANCH  15  18
HETATM   18  C   UNL     1      -2.035   7.477 -28.548  1.00  0.00     0.084 C 
HETATM   19  C   UNL     1      -1.597   7.187 -27.102  1.00  0.00     0.025 C 
HETATM   20  C   UNL     1      -0.358   6.300 -27.030  1.00  0.00     0.002 C 
HETATM   21  C   UNL     1       0.800   6.904 -27.816  1.00  0.00     0.000 C 
HETATM   22  C   UNL     1       0.401   7.217 -29.255  1.00  0.00     0.002 C 
HETATM   23  C   UNL     1      -0.855   8.092 -29.322  1.00  0.00     0.025 C 
ENDBRANCH  15  18
ENDBRANCH  13  14
BRANCH  13  24
HETATM   24  C   UNL     1      -3.203   5.231 -32.787  1.00  0.00     0.015 A 
HETATM   25  S   UNL     1      -1.542   5.231 -33.286  1.00  0.00    -0.104 SA
HETATM   26  C   UNL     1      -1.950   5.243 -34.941  1.00  0.00     0.050 A 
HETATM   27  C   UNL     1      -3.309   5.257 -35.134  1.00  0.00     0.008 A 
HETATM   28  C   UNL     1      -4.026   5.259 -33.901  1.00  0.00     0.017 A 
ENDBRANCH  13  24
ENDBRANCH   2  13
BRANCH   1  29
HETATM   29  C   UNL     1      -6.188   2.385 -30.833  1.00  0.00     0.144 C 
BRANCH  29  30
HETATM   30  C   UNL     1      -6.718   1.991 -32.185  1.00  0.00    -0.021 A 
HETATM   31  C   UNL     1      -6.487   0.774 -32.913  1.00  0.00    -0.001 A 
HETATM   32  C   UNL     1      -5.727  -0.392 -32.679  1.00  0.00     0.014 A 
HETATM   33  C   UNL     1      -7.222   0.847 -34.097  1.00  0.00     0.042 A 
HETATM   34  C   UNL     1      -5.709  -1.417 -33.632  1.00  0.00     0.001 A 
HETATM   35  C   UNL     1      -6.453  -1.308 -34.803  1.00  0.00     0.002 A 
HETATM   36  C   UNL     1      -7.229  -0.175 -35.056  1.00  0.00     0.030 A 
HETATM   37  N   UNL     1      -7.881   2.053 -34.092  1.00  0.00    -0.365 N 
HETATM   38  H   UNL     1      -8.499   2.370 -34.825  1.00  0.00     0.165 HD
HETATM   39  C   UNL     1      -7.588   2.747 -32.951  1.00  0.00     0.097 A 
ENDBRANCH  29  30
ENDBRANCH   1  29
TORSDOF 7
ENDMDL
MODEL 3
REMARK VINA RESULT:      -9.1      2.036      5.640
REMARK  7 active torsions:
REMARK  status: ('A' for Active; 'I' for Inactive)
REMARK    1  A    between atoms: C_8  and  C_9 
REMARK    2  A    between atoms: C_9  and  C_10 
REMARK       I    between atoms: C_10  and  N_11 
REMARK    3  A    between atoms: N_11  and  C_27 
REMARK    4  A    between atoms: N_11  and  C_12 
REMARK    5  A    between atoms: C_12  and  C_13 
REMARK    6  A    between atoms: C_12  and  C_22 
REMARK       I    between atoms: C_13  and  N_14 
REMARK    7  A    between atoms: N_14  and  C_15 
ROOT
HETATM    1  C   UNL     1      -5.196   1.378 -30.609  1.00  0.00     0.229 C 
HETATM    2  N   UNL     1      -5.455   2.734 -30.816  1.00  0.00    -0.299 N 
HETATM    3  O   UNL     1      -5.878   0.715 -29.819  1.00  0.00    -0.273 OA
ENDROOT
BRANCH   2   4
HETATM    4  C   UNL     1      -4.981   3.486 -31.930  1.00  0.00     0.041 A 
HETATM    5  C   UNL     1      -3.776   4.199 -31.825  1.00  0.00     0.069 A 
HETATM    6  C   UNL     1      -3.394   4.990 -32.888  1.00  0.00     0.107 A 
HETATM    7  C   UNL     1      -4.154   5.092 -34.028  1.00  0.00     0.105 A 
HETATM    8  O   UNL     1      -2.270   5.755 -32.945  1.00  0.00    -0.323 OA
HETATM    9  O   UNL     1      -3.605   5.933 -34.945  1.00  0.00    -0.323 OA
HETATM   10  C   UNL     1      -5.340   4.407 -34.170  1.00  0.00     0.042 A 
HETATM   11  C   UNL     1      -2.426   6.374 -34.238  1.00  0.00     0.352 A 
HETATM   12  C   UNL     1      -5.760   3.603 -33.103  1.00  0.00     0.032 A 
ENDBRANCH   2   4
BRANCH   2  13
HETATM   13  C   UNL     1      -6.493   3.398 -29.986  1.00  0.00     0.225 C 
BRANCH  13  14
HETATM   14  C   UNL     1      -7.908   3.210 -30.583  1.00  0.00     0.246 C 
HETATM   15  N   UNL     1      -8.133   2.085 -31.347  1.00  0.00    -0.354 N 
HETATM   16  H   UNL     1      -7.510   1.325 -31.068  1.00  0.00     0.162 HD
HETATM   17  O   UNL     1      -8.815   3.980 -30.256  1.00  0.00    -0.271 OA
BRANCH  15  18
HETATM   18  C   UNL     1      -9.465   1.615 -31.736  1.00  0.00     0.084 C 
HETATM   19  C   UNL     1     -10.178   2.459 -32.807  1.00  0.00     0.025 C 
HETATM   20  C   UNL     1      -9.496   2.376 -34.170  1.00  0.00     0.002 C 
HETATM   21  C   UNL     1      -9.374   0.931 -34.639  1.00  0.00     0.000 C 
HETATM   22  C   UNL     1      -8.682   0.058 -33.597  1.00  0.00     0.002 C 
HETATM   23  C   UNL     1      -9.358   0.160 -32.227  1.00  0.00     0.025 C 
ENDBRANCH  15  18
ENDBRANCH  13  14
BRANCH  13  24
HETATM   24  C   UNL     1      -6.077   4.804 -29.563  1.00  0.00     0.015 A 
HETATM   25  S   UNL     1      -6.669   6.135 -30.506  1.00  0.00    -0.104 SA
HETATM   26  C   UNL     1      -5.948   7.291 -29.482  1.00  0.00     0.050 A 
HETATM   27  C   UNL     1      -5.260   6.705 -28.448  1.00  0.00     0.008 A 
HETATM   28  C   UNL     1      -5.327   5.281 -28.500  1.00  0.00     0.017 A 
ENDBRANCH  13  24
ENDBRANCH   2  13
BRANCH   1  29
HETATM   29  C   UNL     1      -3.994   0.723 -31.291  1.00  0.00     0.144 C 
BRANCH  29  30
HETATM   30  C   UNL     1      -4.388  -0.218 -32.396  1.00  0.00    -0.021 A 
HETATM   31  C   UNL     1      -4.022  -1.597 -32.565  1.00  0.00    -0.001 A 
HETATM   32  C   UNL     1      -3.207  -2.502 -31.850  1.00  0.00     0.014 A 
HETATM   33  C   UNL     1      -4.663  -2.064 -33.713  1.00  0.00     0.042 A 
HETATM   34  C   UNL     1      -3.048  -3.813 -32.312  1.00  0.00     0.001 A 
HETATM   35  C   UNL     1      -3.701  -4.244 -33.463  1.00  0.00     0.002 A 
HETATM   36  C   UNL     1      -4.528  -3.378 -34.183  1.00  0.00     0.030 A 
HETATM   37  N   UNL     1      -5.398  -1.020 -34.221  1.00  0.00    -0.365 N 
HETATM   38  H   UNL     1      -5.975  -1.076 -35.048  1.00  0.00     0.165 HD
HETATM   39  C   UNL     1      -5.242   0.092 -33.440  1.00  0.00     0.097 A 
ENDBRANCH  29  30
ENDBRANCH   1  29
TORSDOF 7
ENDMDL
MODEL 4
REMARK VINA RESULT:      -9.0      2.184      6.309
REMARK  7 active torsions:
REMARK  status: ('A' for Active; 'I' for Inactive)
REMARK    1  A    between atoms: C_8  and  C_9 
REMARK    2  A    between atoms: C_9  and  C_10 
REMARK       I    between atoms: C_10  and  N_11 
REMARK    3  A    between atoms: N_11  and  C_27 
REMARK    4  A    between atoms: N_11  and  C_12 
REMARK    5  A    between atoms: C_12  and  C_13 
REMARK    6  A    between atoms: C_12  and  C_22 
REMARK       I    between atoms: C_13  and  N_14 
REMARK    7  A    between atoms: N_14  and  C_15 
ROOT
HETATM    1  C   UNL     1      -5.867   4.867 -33.551  1.00  0.00     0.229 C 
HETATM    2  N   UNL     1      -4.914   4.855 -32.531  1.00  0.00    -0.299 N 
HETATM    3  O   UNL     1      -5.631   4.338 -34.644  1.00  0.00    -0.273 OA
ENDROOT
BRANCH   2   4
HETATM    4  C   UNL     1      -5.198   5.109 -31.157  1.00  0.00     0.041 A 
HETATM    5  C   UNL     1      -4.782   6.315 -30.573  1.00  0.00     0.069 A 
HETATM    6  C   UNL     1      -4.991   6.489 -29.221  1.00  0.00     0.107 A 
HETATM    7  C   UNL     1      -5.587   5.523 -28.448  1.00  0.00     0.105 A 
HETATM    8  O   UNL     1      -4.637   7.586 -28.497  1.00  0.00    -0.323 OA
HETATM    9  O   UNL     1      -5.684   5.889 -27.142  1.00  0.00    -0.323 OA
HETATM   10  C   UNL     1      -6.011   4.328 -28.984  1.00  0.00     0.042 A 
HETATM   11  C   UNL     1      -5.051   7.185 -27.175  1.00  0.00     0.352 A 
HETATM   12  C   UNL     1      -5.804   4.117 -30.354  1.00  0.00     0.032 A 
ENDBRANCH   2   4
BRANCH   2  13
HETATM   13  C   UNL     1      -3.566   4.297 -32.817  1.00  0.00     0.225 C 
BRANCH  13  14
HETATM   14  C   UNL     1      -3.332   2.961 -32.072  1.00  0.00     0.246 C 
HETATM   15  N   UNL     1      -3.979   1.842 -32.551  1.00  0.00    -0.354 N 
HETATM   16  H   UNL     1      -4.163   1.929 -33.552  1.00  0.00     0.162 HD
HETATM   17  O   UNL     1      -2.487   2.904 -31.175  1.00  0.00    -0.271 OA
BRANCH  15  18
HETATM   18  C   UNL     1      -3.646   0.473 -32.150  1.00  0.00     0.084 C 
HETATM   19  C   UNL     1      -4.464  -0.090 -30.974  1.00  0.00     0.025 C 
HETATM   20  C   UNL     1      -5.933  -0.303 -31.327  1.00  0.00     0.002 C 
HETATM   21  C   UNL     1      -6.081  -1.206 -32.546  1.00  0.00     0.000 C 
HETATM   22  C   UNL     1      -5.275  -0.688 -33.733  1.00  0.00     0.002 C 
HETATM   23  C   UNL     1      -3.805  -0.457 -33.367  1.00  0.00     0.025 C 
ENDBRANCH  15  18
ENDBRANCH  13  14
BRANCH  13  24
HETATM   24  C   UNL     1      -2.476   5.361 -32.737  1.00  0.00     0.015 A 
HETATM   25  S   UNL     1      -2.390   6.521 -34.023  1.00  0.00    -0.104 SA
HETATM   26  C   UNL     1      -1.118   7.379 -33.280  1.00  0.00     0.050 A 
HETATM   27  C   UNL     1      -0.744   6.811 -32.087  1.00  0.00     0.008 A 
HETATM   28  C   UNL     1      -1.515   5.650 -31.781  1.00  0.00     0.017 A 
ENDBRANCH  13  24
ENDBRANCH   2  13
BRANCH   1  29
HETATM   29  C   UNL     1      -7.180   5.624 -33.354  1.00  0.00     0.144 C 
BRANCH  29  30
HETATM   30  C   UNL     1      -8.379   4.855 -33.837  1.00  0.00    -0.021 A 
HETATM   31  C   UNL     1      -8.779   3.519 -33.492  1.00  0.00    -0.001 A 
HETATM   32  C   UNL     1      -8.240   2.502 -32.674  1.00  0.00     0.014 A 
HETATM   33  C   UNL     1      -9.979   3.256 -34.154  1.00  0.00     0.042 A 
HETATM   34  C   UNL     1      -8.896   1.271 -32.567  1.00  0.00     0.001 A 
HETATM   35  C   UNL     1     -10.090   1.043 -33.244  1.00  0.00     0.002 A 
HETATM   36  C   UNL     1     -10.659   2.035 -34.047  1.00  0.00     0.030 A 
HETATM   37  N   UNL     1     -10.306   4.385 -34.866  1.00  0.00    -0.365 N 
HETATM   38  H   UNL     1     -11.135   4.483 -35.434  1.00  0.00     0.165 HD
HETATM   39  C   UNL     1      -9.355   5.351 -34.684  1.00  0.00     0.097 A 
ENDBRANCH  29  30
ENDBRANCH   1  29
TORSDOF 7
ENDMDL
MODEL 5
REMARK VINA RESULT:      -8.9      2.186      5.567
REMARK  7 active torsions:
REMARK  status: ('A' for Active; 'I' for Inactive)
REMARK    1  A    between atoms: C_8  and  C_9 
REMARK    2  A    between atoms: C_9  and  C_10 
REMARK       I    between atoms: C_10  and  N_11 
REMARK    3  A    between atoms: N_11  and  C_27 
REMARK    4  A    between atoms: N_11  and  C_12 
REMARK    5  A    between atoms: C_12  and  C_13 
REMARK    6  A    between atoms: C_12  and  C_22 
REMARK       I    between atoms: C_13  and  N_14 
REMARK    7  A    between atoms: N_14  and  C_15 
ROOT
HETATM    1  C   UNL     1      -5.593   0.914 -30.643  1.00  0.00     0.229 C 
HETATM    2  N   UNL     1      -6.127   2.123 -31.095  1.00  0.00    -0.299 N 
HETATM    3  O   UNL     1      -6.233   0.188 -29.872  1.00  0.00    -0.273 OA
ENDROOT
BRANCH   2   4
HETATM    4  C   UNL     1      -5.647   2.844 -32.227  1.00  0.00     0.041 A 
HETATM    5  C   UNL     1      -4.457   3.582 -32.129  1.00  0.00     0.069 A 
HETATM    6  C   UNL     1      -4.071   4.342 -33.213  1.00  0.00     0.107 A 
HETATM    7  C   UNL     1      -4.815   4.390 -34.367  1.00  0.00     0.105 A 
HETATM    8  O   UNL     1      -2.960   5.124 -33.279  1.00  0.00    -0.323 OA
HETATM    9  O   UNL     1      -4.266   5.207 -35.305  1.00  0.00    -0.323 OA
HETATM   10  C   UNL     1      -5.986   3.678 -34.503  1.00  0.00     0.042 A 
HETATM   11  C   UNL     1      -3.107   5.694 -34.596  1.00  0.00     0.352 A 
HETATM   12  C   UNL     1      -6.409   2.905 -33.415  1.00  0.00     0.032 A 
ENDBRANCH   2   4
BRANCH   2  13
HETATM   13  C   UNL     1      -7.428   2.581 -30.544  1.00  0.00     0.225 C 
BRANCH  13  14
HETATM   14  C   UNL     1      -8.621   2.002 -31.342  1.00  0.00     0.246 C 
HETATM   15  N   UNL     1      -9.527   2.895 -31.871  1.00  0.00    -0.354 N 
HETATM   16  H   UNL     1      -9.086   3.797 -32.053  1.00  0.00     0.162 HD
HETATM   17  O   UNL     1      -8.655   0.795 -31.596  1.00  0.00    -0.271 OA
BRANCH  15  18
HETATM   18  C   UNL     1     -10.531   2.539 -32.878  1.00  0.00     0.084 C 
HETATM   19  C   UNL     1     -11.899   3.227 -32.721  1.00  0.00     0.025 C 
HETATM   20  C   UNL     1     -11.835   4.730 -32.979  1.00  0.00     0.002 C 
HETATM   21  C   UNL     1     -11.255   5.028 -34.357  1.00  0.00     0.000 C 
HETATM   22  C   UNL     1      -9.901   4.353 -34.557  1.00  0.00     0.002 C 
HETATM   23  C   UNL     1      -9.967   2.848 -34.277  1.00  0.00     0.025 C 
ENDBRANCH  15  18
ENDBRANCH  13  14
BRANCH  13  24
HETATM   24  C   UNL     1      -7.429   4.076 -30.241  1.00  0.00     0.015 A 
HETATM   25  S   UNL     1      -6.389   4.640 -28.973  1.00  0.00    -0.104 SA
HETATM   26  C   UNL     1      -6.802   6.272 -29.243  1.00  0.00     0.050 A 
HETATM   27  C   UNL     1      -7.714   6.409 -30.260  1.00  0.00     0.008 A 
HETATM   28  C   UNL     1      -8.080   5.151 -30.825  1.00  0.00     0.017 A 
ENDBRANCH  13  24
ENDBRANCH   2  13
BRANCH   1  29
HETATM   29  C   UNL     1      -4.165   0.525 -31.026  1.00  0.00     0.144 C 
BRANCH  29  30
HETATM   30  C   UNL     1      -4.100  -0.742 -31.834  1.00  0.00    -0.021 A 
HETATM   31  C   UNL     1      -4.964  -1.165 -32.901  1.00  0.00    -0.001 A 
HETATM   32  C   UNL     1      -6.112  -0.625 -33.520  1.00  0.00     0.014 A 
HETATM   33  C   UNL     1      -4.482  -2.387 -33.373  1.00  0.00     0.042 A 
HETATM   34  C   UNL     1      -6.742  -1.324 -34.556  1.00  0.00     0.001 A 
HETATM   35  C   UNL     1      -6.234  -2.542 -34.999  1.00  0.00     0.002 A 
HETATM   36  C   UNL     1      -5.090  -3.094 -34.419  1.00  0.00     0.030 A 
HETATM   37  N   UNL     1      -3.366  -2.696 -32.634  1.00  0.00    -0.365 N 
HETATM   38  H   UNL     1      -2.803  -3.524 -32.767  1.00  0.00     0.165 HD
HETATM   39  C   UNL     1      -3.126  -1.717 -31.709  1.00  0.00     0.097 A 
ENDBRANCH  29  30
ENDBRANCH   1  29
TORSDOF 7
ENDMDL
MODEL 6
REMARK VINA RESULT:      -8.8      1.820      6.121
REMARK  7 active torsions:
REMARK  status: ('A' for Active; 'I' for Inactive)
REMARK    1  A    between atoms: C_8  and  C_9 
REMARK    2  A    between atoms: C_9  and  C_10 
REMARK       I    between atoms: C_10  and  N_11 
REMARK    3  A    between atoms: N_11  and  C_27 
REMARK    4  A    between atoms: N_11  and  C_12 
REMARK    5  A    between atoms: C_12  and  C_13 
REMARK    6  A    between atoms: C_12  and  C_22 
REMARK       I    between atoms: C_13  and  N_14 
REMARK    7  A    between atoms: N_14  and  C_15 
ROOT
HETATM    1  C   UNL     1      -6.440   2.282 -30.703  1.00  0.00     0.229 C 
HETATM    2  N   UNL     1      -6.092   3.509 -31.271  1.00  0.00    -0.299 N 
HETATM    3  O   UNL     1      -7.624   1.928 -30.635  1.00  0.00    -0.273 OA
ENDROOT
BRANCH   2   4
HETATM    4  C   UNL     1      -4.781   3.851 -31.713  1.00  0.00     0.041 A 
HETATM    5  C   UNL     1      -3.932   4.583 -30.868  1.00  0.00     0.069 A 
HETATM    6  C   UNL     1      -2.706   4.978 -31.361  1.00  0.00     0.107 A 
HETATM    7  C   UNL     1      -2.306   4.673 -32.639  1.00  0.00     0.105 A 
HETATM    8  O   UNL     1      -1.774   5.702 -30.685  1.00  0.00    -0.323 OA
HETATM    9  O   UNL     1      -1.072   5.166 -32.929  1.00  0.00    -0.323 OA
HETATM   10  C   UNL     1      -3.108   3.954 -33.497  1.00  0.00     0.042 A 
HETATM   11  C   UNL     1      -0.755   5.845 -31.695  1.00  0.00     0.352 A 
HETATM   12  C   UNL     1      -4.364   3.548 -33.028  1.00  0.00     0.032 A 
ENDBRANCH   2   4
BRANCH   2  13
HETATM   13  C   UNL     1      -7.175   4.436 -31.690  1.00  0.00     0.225 C 
BRANCH  13  14
HETATM   14  C   UNL     1      -7.722   4.078 -33.092  1.00  0.00     0.246 C 
HETATM   15  N   UNL     1      -8.644   3.056 -33.175  1.00  0.00    -0.354 N 
HETATM   16  H   UNL     1      -9.168   2.967 -32.304  1.00  0.00     0.162 HD
HETATM   17  O   UNL     1      -7.432   4.787 -34.059  1.00  0.00    -0.271 OA
BRANCH  15  18
HETATM   18  C   UNL     1      -9.462   2.789 -34.361  1.00  0.00     0.084 C 
HETATM   19  C   UNL     1      -9.871   1.320 -34.566  1.00  0.00     0.025 C 
HETATM   20  C   UNL     1     -10.843   0.825 -33.499  1.00  0.00     0.002 C 
HETATM   21  C   UNL     1     -12.083   1.708 -33.431  1.00  0.00     0.000 C 
HETATM   22  C   UNL     1     -11.719   3.177 -33.239  1.00  0.00     0.002 C 
HETATM   23  C   UNL     1     -10.728   3.663 -34.301  1.00  0.00     0.025 C 
ENDBRANCH  15  18
ENDBRANCH  13  14
BRANCH  13  24
HETATM   24  C   UNL     1      -6.823   5.894 -31.411  1.00  0.00     0.015 A 
HETATM   25  S   UNL     1      -6.998   6.465 -29.782  1.00  0.00    -0.104 SA
HETATM   26  C   UNL     1      -6.383   8.008 -30.167  1.00  0.00     0.050 A 
HETATM   27  C   UNL     1      -6.056   8.114 -31.496  1.00  0.00     0.008 A 
HETATM   28  C   UNL     1      -6.316   6.906 -32.210  1.00  0.00     0.017 A 
ENDBRANCH  13  24
ENDBRANCH   2  13
BRANCH   1  29
HETATM   29  C   UNL     1      -5.360   1.405 -30.069  1.00  0.00     0.144 C 
BRANCH  29  30
HETATM   30  C   UNL     1      -4.699   0.483 -31.055  1.00  0.00    -0.021 A 
HETATM   31  C   UNL     1      -5.307  -0.269 -32.119  1.00  0.00    -0.001 A 
HETATM   32  C   UNL     1      -6.629  -0.439 -32.582  1.00  0.00     0.014 A 
HETATM   33  C   UNL     1      -4.288  -0.944 -32.792  1.00  0.00     0.042 A 
HETATM   34  C   UNL     1      -6.885  -1.282 -33.669  1.00  0.00     0.001 A 
HETATM   35  C   UNL     1      -5.844  -1.942 -34.315  1.00  0.00     0.002 A 
HETATM   36  C   UNL     1      -4.522  -1.780 -33.891  1.00  0.00     0.030 A 
HETATM   37  N   UNL     1      -3.105  -0.614 -32.174  1.00  0.00    -0.365 N 
HETATM   38  H   UNL     1      -2.197  -0.952 -32.459  1.00  0.00     0.165 HD
HETATM   39  C   UNL     1      -3.338   0.241 -31.132  1.00  0.00     0.097 A 
ENDBRANCH  29  30
ENDBRANCH   1  29
TORSDOF 7
ENDMDL
MODEL 7
REMARK VINA RESULT:      -8.7      1.356      1.815
REMARK  7 active torsions:
REMARK  status: ('A' for Active; 'I' for Inactive)
REMARK    1  A    between atoms: C_8  and  C_9 
REMARK    2  A    between atoms: C_9  and  C_10 
REMARK       I    between atoms: C_10  and  N_11 
REMARK    3  A    between atoms: N_11  and  C_27 
REMARK    4  A    between atoms: N_11  and  C_12 
REMARK    5  A    between atoms: C_12  and  C_13 
REMARK    6  A    between atoms: C_12  and  C_22 
REMARK       I    between atoms: C_13  and  N_14 
REMARK    7  A    between atoms: N_14  and  C_15 
ROOT
HETATM    1  C   UNL     1      -6.640   2.463 -31.552  1.00  0.00     0.229 C 
HETATM    2  N   UNL     1      -7.417   3.491 -32.089  1.00  0.00    -0.299 N 
HETATM    3  O   UNL     1      -5.436   2.631 -31.326  1.00  0.00    -0.273 OA
ENDROOT
BRANCH   2   4
HETATM    4  C   UNL     1      -8.842   3.527 -32.059  1.00  0.00     0.041 A 
HETATM    5  C   UNL     1      -9.567   3.374 -33.251  1.00  0.00     0.069 A 
HETATM    6  C   UNL     1     -10.938   3.506 -33.200  1.00  0.00     0.107 A 
HETATM    7  C   UNL     1     -11.598   3.780 -32.026  1.00  0.00     0.105 A 
HETATM    8  O   UNL     1     -11.786   3.404 -34.259  1.00  0.00    -0.323 OA
HETATM    9  O   UNL     1     -12.943   3.884 -32.199  1.00  0.00    -0.323 OA
HETATM   10  C   UNL     1     -10.923   3.934 -30.837  1.00  0.00     0.042 A 
HETATM   11  C   UNL     1     -13.052   3.676 -33.623  1.00  0.00     0.352 A 
HETATM   12  C   UNL     1      -9.528   3.815 -30.858  1.00  0.00     0.032 A 
ENDBRANCH   2   4
BRANCH   2  13
HETATM   13  C   UNL     1      -6.750   4.756 -32.493  1.00  0.00     0.225 C 
BRANCH  13  14
HETATM   14  C   UNL     1      -5.515   4.490 -33.385  1.00  0.00     0.246 C 
HETATM   15  N   UNL     1      -4.285   4.885 -32.904  1.00  0.00    -0.354 N 
HETATM   16  H   UNL     1      -4.277   4.891 -31.883  1.00  0.00     0.162 HD
HETATM   17  O   UNL     1      -5.640   3.825 -34.416  1.00  0.00    -0.271 OA
BRANCH  15  18
HETATM   18  C   UNL     1      -3.007   4.455 -33.479  1.00  0.00     0.084 C 
HETATM   19  C   UNL     1      -2.481   5.316 -34.641  1.00  0.00     0.025 C 
HETATM   20  C   UNL     1      -2.075   6.718 -34.198  1.00  0.00     0.002 C 
HETATM   21  C   UNL     1      -1.042   6.664 -33.078  1.00  0.00     0.000 C 
HETATM   22  C   UNL     1      -1.522   5.809 -31.910  1.00  0.00     0.002 C 
HETATM   23  C   UNL     1      -1.947   4.409 -32.364  1.00  0.00     0.025 C 
ENDBRANCH  15  18
ENDBRANCH  13  14
BRANCH  13  24
HETATM   24  C   UNL     1      -6.592   5.720 -31.321  1.00  0.00     0.015 A 
HETATM   25  S   UNL     1      -6.780   7.415 -31.643  1.00  0.00    -0.104 SA
HETATM   26  C   UNL     1      -6.587   7.835 -30.002  1.00  0.00     0.050 A 
HETATM   27  C   UNL     1      -6.373   6.734 -29.212  1.00  0.00     0.008 A 
HETATM   28  C   UNL     1      -6.367   5.524 -29.968  1.00  0.00     0.017 A 
ENDBRANCH  13  24
ENDBRANCH   2  13
BRANCH   1  29
HETATM   29  C   UNL     1      -7.257   1.082 -31.330  1.00  0.00     0.144 C 
BRANCH  29  30
HETATM   30  C   UNL     1      -7.133   0.185 -32.531  1.00  0.00    -0.021 A 
HETATM   31  C   UNL     1      -6.066  -0.718 -32.863  1.00  0.00    -0.001 A 
HETATM   32  C   UNL     1      -4.831  -1.055 -32.268  1.00  0.00     0.014 A 
HETATM   33  C   UNL     1      -6.417  -1.366 -34.048  1.00  0.00     0.042 A 
HETATM   34  C   UNL     1      -3.994  -1.995 -32.880  1.00  0.00     0.001 A 
HETATM   35  C   UNL     1      -4.376  -2.619 -34.063  1.00  0.00     0.002 A 
HETATM   36  C   UNL     1      -5.600  -2.320 -34.668  1.00  0.00     0.030 A 
HETATM   37  N   UNL     1      -7.650  -0.888 -34.422  1.00  0.00    -0.365 N 
HETATM   38  H   UNL     1      -8.156  -1.191 -35.242  1.00  0.00     0.165 HD
HETATM   39  C   UNL     1      -8.090   0.041 -33.521  1.00  0.00     0.097 A 
ENDBRANCH  29  30
ENDBRANCH   1  29
TORSDOF 7
ENDMDL
MODEL 8
REMARK VINA RESULT:      -8.6      2.466      6.486
REMARK  7 active torsions:
REMARK  status: ('A' for Active; 'I' for Inactive)
REMARK    1  A    between atoms: C_8  and  C_9 
REMARK    2  A    between atoms: C_9  and  C_10 
REMARK       I    between atoms: C_10  and  N_11 
REMARK    3  A    between atoms: N_11  and  C_27 
REMARK    4  A    between atoms: N_11  and  C_12 
REMARK    5  A    between atoms: C_12  and  C_13 
REMARK    6  A    between atoms: C_12  and  C_22 
REMARK       I    between atoms: C_13  and  N_14 
REMARK    7  A    between atoms: N_14  and  C_15 
ROOT
HETATM    1  C   UNL     1      -8.040   2.775 -31.093  1.00  0.00     0.229 C 
HETATM    2  N   UNL     1      -8.041   4.054 -31.655  1.00  0.00    -0.299 N 
HETATM    3  O   UNL     1      -9.099   2.166 -30.902  1.00  0.00    -0.273 OA
ENDROOT
BRANCH   2   4
HETATM    4  C   UNL     1      -6.900   4.683 -32.232  1.00  0.00     0.041 A 
HETATM    5  C   UNL     1      -6.490   4.327 -33.526  1.00  0.00     0.069 A 
HETATM    6  C   UNL     1      -5.329   4.886 -34.018  1.00  0.00     0.107 A 
HETATM    7  C   UNL     1      -4.580   5.770 -33.279  1.00  0.00     0.105 A 
HETATM    8  O   UNL     1      -4.784   4.639 -35.239  1.00  0.00    -0.323 OA
HETATM    9  O   UNL     1      -3.469   6.190 -33.943  1.00  0.00    -0.323 OA
HETATM   10  C   UNL     1      -4.950   6.145 -32.008  1.00  0.00     0.042 A 
HETATM   11  C   UNL     1      -3.589   5.444 -35.173  1.00  0.00     0.352 A 
HETATM   12  C   UNL     1      -6.119   5.587 -31.477  1.00  0.00     0.032 A 
ENDBRANCH   2   4
BRANCH   2  13
HETATM   13  C   UNL     1      -9.344   4.720 -31.914  1.00  0.00     0.225 C 
BRANCH  13  14
HETATM   14  C   UNL     1      -9.947   4.284 -33.270  1.00  0.00     0.246 C 
HETATM   15  N   UNL     1     -10.881   3.271 -33.256  1.00  0.00    -0.354 N 
HETATM   16  H   UNL     1     -11.373   3.241 -32.362  1.00  0.00     0.162 HD
HETATM   17  O   UNL     1      -9.687   4.931 -34.289  1.00  0.00    -0.271 OA
BRANCH  15  18
HETATM   18  C   UNL     1     -11.747   2.943 -34.393  1.00  0.00     0.084 C 
HETATM   19  C   UNL     1     -11.811   1.452 -34.767  1.00  0.00     0.025 C 
HETATM   20  C   UNL     1     -12.500   0.606 -33.700  1.00  0.00     0.002 C 
HETATM   21  C   UNL     1     -13.900   1.131 -33.400  1.00  0.00     0.000 C 
HETATM   22  C   UNL     1     -13.880   2.612 -33.035  1.00  0.00     0.002 C 
HETATM   23  C   UNL     1     -13.170   3.453 -34.100  1.00  0.00     0.025 C 
ENDBRANCH  15  18
ENDBRANCH  13  14
BRANCH  13  24
HETATM   24  C   UNL     1      -9.299   6.211 -31.597  1.00  0.00     0.015 A 
HETATM   25  S   UNL     1      -9.338   6.680 -29.927  1.00  0.00    -0.104 SA
HETATM   26  C   UNL     1      -9.169   8.335 -30.299  1.00  0.00     0.050 A 
HETATM   27  C   UNL     1      -9.092   8.552 -31.653  1.00  0.00     0.008 A 
HETATM   28  C   UNL     1      -9.177   7.337 -32.396  1.00  0.00     0.017 A 
ENDBRANCH  13  24
ENDBRANCH   2  13
BRANCH   1  29
HETATM   29  C   UNL     1      -6.725   2.157 -30.618  1.00  0.00     0.144 C 
BRANCH  29  30
HETATM   30  C   UNL     1      -6.359   0.907 -31.370  1.00  0.00    -0.021 A 
HETATM   31  C   UNL     1      -6.805   0.485 -32.669  1.00  0.00    -0.001 A 
HETATM   32  C   UNL     1      -7.694   1.012 -33.632  1.00  0.00     0.014 A 
HETATM   33  C   UNL     1      -6.162  -0.718 -32.965  1.00  0.00     0.042 A 
HETATM   34  C   UNL     1      -7.922   0.318 -34.826  1.00  0.00     0.001 A 
HETATM   35  C   UNL     1      -7.264  -0.880 -35.085  1.00  0.00     0.002 A 
HETATM   36  C   UNL     1      -6.366  -1.419 -34.161  1.00  0.00     0.030 A 
HETATM   37  N   UNL     1      -5.350  -1.016 -31.897  1.00  0.00    -0.365 N 
HETATM   38  H   UNL     1      -4.754  -1.830 -31.842  1.00  0.00     0.165 HD
HETATM   39  C   UNL     1      -5.459  -0.050 -30.936  1.00  0.00     0.097 A 
ENDBRANCH  29  30
ENDBRANCH   1  29
TORSDOF 7
ENDMDL
MODEL 9
REMARK VINA RESULT:      -8.5      2.417      6.670
REMARK  7 active torsions:
REMARK  status: ('A' for Active; 'I' for Inactive)
REMARK    1  A    between atoms: C_8  and  C_9 
REMARK    2  A    between atoms: C_9  and  C_10 
REMARK       I    between atoms: C_10  and  N_11 
REMARK    3  A    between atoms: N_11  and  C_27 
REMARK    4  A    between atoms: N_11  and  C_12 
REMARK    5  A    between atoms: C_12  and  C_13 
REMARK    6  A    between atoms: C_12  and  C_22 
REMARK       I    between atoms: C_13  and  N_14 
REMARK    7  A    between atoms: N_14  and  C_15 
ROOT
HETATM    1  C   UNL     1      -6.681   2.079 -33.531  1.00  0.00     0.229 C 
HETATM    2  N   UNL     1      -5.852   1.294 -32.728  1.00  0.00    -0.299 N 
HETATM    3  O   UNL     1      -6.723   3.308 -33.389  1.00  0.00    -0.273 OA
ENDROOT
BRANCH   2   4
HETATM    4  C   UNL     1      -5.466  -0.044 -33.031  1.00  0.00     0.041 A 
HETATM    5  C   UNL     1      -4.578  -0.721 -32.180  1.00  0.00     0.069 A 
HETATM    6  C   UNL     1      -4.152  -1.979 -32.552  1.00  0.00     0.107 A 
HETATM    7  C   UNL     1      -4.574  -2.573 -33.717  1.00  0.00     0.105 A 
HETATM    8  O   UNL     1      -3.285  -2.762 -31.855  1.00  0.00    -0.323 OA
HETATM    9  O   UNL     1      -4.026  -3.804 -33.900  1.00  0.00    -0.323 OA
HETATM   10  C   UNL     1      -5.446  -1.943 -34.576  1.00  0.00     0.042 A 
HETATM   11  C   UNL     1      -3.185  -3.904 -32.731  1.00  0.00     0.352 A 
HETATM   12  C   UNL     1      -5.888  -0.659 -34.230  1.00  0.00     0.032 A 
ENDBRANCH   2   4
BRANCH   2  13
HETATM   13  C   UNL     1      -5.104   1.945 -31.620  1.00  0.00     0.225 C 
BRANCH  13  14
HETATM   14  C   UNL     1      -6.036   2.309 -30.441  1.00  0.00     0.246 C 
HETATM   15  N   UNL     1      -6.860   3.404 -30.594  1.00  0.00    -0.354 N 
HETATM   16  H   UNL     1      -7.076   3.562 -31.579  1.00  0.00     0.162 HD
HETATM   17  O   UNL     1      -6.118   1.551 -29.471  1.00  0.00    -0.271 OA
BRANCH  15  18
HETATM   18  C   UNL     1      -7.988   3.707 -29.709  1.00  0.00     0.084 C 
HETATM   19  C   UNL     1      -8.084   5.168 -29.236  1.00  0.00     0.025 C 
HETATM   20  C   UNL     1      -8.415   6.133 -30.371  1.00  0.00     0.002 C 
HETATM   21  C   UNL     1      -9.701   5.728 -31.082  1.00  0.00     0.000 C 
HETATM   22  C   UNL     1      -9.650   4.280 -31.557  1.00  0.00     0.002 C 
HETATM   23  C   UNL     1      -9.298   3.318 -30.418  1.00  0.00     0.025 C 
ENDBRANCH  15  18
ENDBRANCH  13  14
BRANCH  13  24
HETATM   24  C   UNL     1      -4.142   3.014 -32.128  1.00  0.00     0.015 A 
HETATM   25  S   UNL     1      -4.111   4.531 -31.288  1.00  0.00    -0.104 SA
HETATM   26  C   UNL     1      -2.847   5.139 -32.257  1.00  0.00     0.050 A 
HETATM   27  C   UNL     1      -2.448   4.233 -33.208  1.00  0.00     0.008 A 
HETATM   28  C   UNL     1      -3.196   3.020 -33.140  1.00  0.00     0.017 A 
ENDBRANCH  13  24
ENDBRANCH   2  13
BRANCH   1  29
HETATM   29  C   UNL     1      -7.621   1.410 -34.533  1.00  0.00     0.144 C 
BRANCH  29  30
HETATM   30  C   UNL     1      -9.009   1.206 -33.990  1.00  0.00    -0.021 A 
HETATM   31  C   UNL     1     -10.182   2.004 -34.216  1.00  0.00    -0.001 A 
HETATM   32  C   UNL     1     -10.451   3.188 -34.937  1.00  0.00     0.014 A 
HETATM   33  C   UNL     1     -11.240   1.397 -33.539  1.00  0.00     0.042 A 
HETATM   34  C   UNL     1     -11.743   3.726 -34.938  1.00  0.00     0.001 A 
HETATM   35  C   UNL     1     -12.774   3.095 -34.250  1.00  0.00     0.002 A 
HETATM   36  C   UNL     1     -12.544   1.913 -33.541  1.00  0.00     0.030 A 
HETATM   37  N   UNL     1     -10.741   0.271 -32.932  1.00  0.00    -0.365 N 
HETATM   38  H   UNL     1     -11.290  -0.372 -32.379  1.00  0.00     0.165 HD
HETATM   39  C   UNL     1      -9.405   0.144 -33.195  1.00  0.00     0.097 A 
ENDBRANCH  29  30
ENDBRANCH   1  29
TORSDOF 7
ENDMDL
MODEL 10
REMARK VINA RESULT:      -8.5      2.069      4.117
REMARK  7 active torsions:
REMARK  status: ('A' for Active; 'I' for Inactive)
REMARK    1  A    between atoms: C_8  and  C_9 
REMARK    2  A    between atoms: C_9  and  C_10 
REMARK       I    between atoms: C_10  and  N_11 
REMARK    3  A    between atoms: N_11  and  C_27 
REMARK    4  A    between atoms: N_11  and  C_12 
REMARK    5  A    between atoms: C_12  and  C_13 
REMARK    6  A    between atoms: C_12  and  C_22 
REMARK       I    between atoms: C_13  and  N_14 
REMARK    7  A    between atoms: N_14  and  C_15 
ROOT
HETATM    1  C   UNL     1      -8.129   4.363 -31.750  1.00  0.00     0.229 C 
HETATM    2  N   UNL     1      -6.819   4.463 -31.278  1.00  0.00    -0.299 N 
HETATM    3  O   UNL     1      -8.719   5.354 -32.199  1.00  0.00    -0.273 OA
ENDROOT
BRANCH   2   4
HETATM    4  C   UNL     1      -5.946   3.354 -31.078  1.00  0.00     0.041 A 
HETATM    5  C   UNL     1      -5.090   2.947 -32.114  1.00  0.00     0.069 A 
HETATM    6  C   UNL     1      -4.327   1.815 -31.921  1.00  0.00     0.107 A 
HETATM    7  C   UNL     1      -4.386   1.091 -30.755  1.00  0.00     0.105 A 
HETATM    8  O   UNL     1      -3.463   1.277 -32.823  1.00  0.00    -0.323 OA
HETATM    9  O   UNL     1      -3.566   0.006 -30.776  1.00  0.00    -0.323 OA
HETATM   10  C   UNL     1      -5.210   1.459 -29.716  1.00  0.00     0.042 A 
HETATM   11  C   UNL     1      -3.008   0.113 -32.102  1.00  0.00     0.352 A 
HETATM   12  C   UNL     1      -6.006   2.599 -29.886  1.00  0.00     0.032 A 
ENDBRANCH   2   4
BRANCH   2  13
HETATM   13  C   UNL     1      -6.181   5.804 -31.217  1.00  0.00     0.225 C 
BRANCH  13  14
HETATM   14  C   UNL     1      -5.239   6.044 -32.420  1.00  0.00     0.246 C 
HETATM   15  N   UNL     1      -3.890   6.155 -32.161  1.00  0.00    -0.354 N 
HETATM   16  H   UNL     1      -3.638   5.642 -31.315  1.00  0.00     0.162 HD
HETATM   17  O   UNL     1      -5.691   5.993 -33.567  1.00  0.00    -0.271 OA
BRANCH  15  18
HETATM   18  C   UNL     1      -2.852   6.093 -33.194  1.00  0.00     0.084 C 
HETATM   19  C   UNL     1      -1.991   7.360 -33.343  1.00  0.00     0.025 C 
HETATM   20  C   UNL     1      -1.097   7.609 -32.132  1.00  0.00     0.002 C 
HETATM   21  C   UNL     1      -0.209   6.404 -31.845  1.00  0.00     0.000 C 
HETATM   22  C   UNL     1      -1.026   5.124 -31.701  1.00  0.00     0.002 C 
HETATM   23  C   UNL     1      -1.936   4.889 -32.910  1.00  0.00     0.025 C 
ENDBRANCH  15  18
ENDBRANCH  13  14
BRANCH  13  24
HETATM   24  C   UNL     1      -5.655   6.125 -29.821  1.00  0.00     0.015 A 
HETATM   25  S   UNL     1      -6.758   5.972 -28.491  1.00  0.00    -0.104 SA
HETATM   26  C   UNL     1      -5.559   6.356 -27.342  1.00  0.00     0.050 A 
HETATM   27  C   UNL     1      -4.345   6.608 -27.930  1.00  0.00     0.008 A 
HETATM   28  C   UNL     1      -4.402   6.486 -29.350  1.00  0.00     0.017 A 
ENDBRANCH  13  24
ENDBRANCH   2  13
BRANCH   1  29
HETATM   29  C   UNL     1      -8.882   3.038 -31.624  1.00  0.00     0.144 C 
BRANCH  29  30
HETATM   30  C   UNL     1      -8.872   2.235 -32.896  1.00  0.00    -0.021 A 
HETATM   31  C   UNL     1      -8.156   1.022 -33.179  1.00  0.00    -0.001 A 
HETATM   32  C   UNL     1      -7.251   0.214 -32.457  1.00  0.00     0.014 A 
HETATM   33  C   UNL     1      -8.496   0.626 -34.473  1.00  0.00     0.042 A 
HETATM   34  C   UNL     1      -6.709  -0.931 -33.053  1.00  0.00     0.001 A 
HETATM   35  C   UNL     1      -7.069  -1.294 -34.347  1.00  0.00     0.002 A 
HETATM   36  C   UNL     1      -7.975  -0.525 -35.081  1.00  0.00     0.030 A 
HETATM   37  N   UNL     1      -9.388   1.550 -34.960  1.00  0.00    -0.365 N 
HETATM   38  H   UNL     1      -9.813   1.508 -35.875  1.00  0.00     0.165 HD
HETATM   39  C   UNL     1      -9.623   2.519 -34.023  1.00  0.00     0.097 A 
ENDBRANCH  29  30
ENDBRANCH   1  29
TORSDOF 7
ENDMDL
