MODEL 1
REMARK VINA RESULT:      -8.2      0.000      0.000
REMARK  4 active torsions:
REMARK  status: ('A' for Active; 'I' for Inactive)
REMARK    1  A    between atoms: C_4  and  C_5 
REMARK    2  A    between atoms: C_7  and  N_8 
REMARK       I    between atoms: N_8  and  C_9 
REMARK    3  A    between atoms: C_9  and  C_10 
REMARK    4  A    between atoms: C_10  and  C_11 
ROOT
HETATM    1  C   UNL     1      -6.368  -0.344 -34.061  1.00  0.00     0.019 A 
HETATM    2  C   UNL     1      -7.679  -0.038 -34.468  1.00  0.00     0.045 A 
HETATM    3  C   UNL     1      -8.201   1.251 -34.311  1.00  0.00     0.035 A 
HETATM    4  C   UNL     1      -7.395   2.244 -33.737  1.00  0.00     0.029 A 
HETATM    5  C   UNL     1      -6.091   1.957 -33.333  1.00  0.00     0.003 A 
HETATM    6  C   UNL     1      -5.583   0.671 -33.493  1.00  0.00     0.016 A 
ENDROOT
BRANCH   3   7
HETATM    7  N   UNL     1      -9.505   1.634 -34.689  1.00  0.00    -0.327 N 
HETATM    8  C   UNL     1     -10.708   1.258 -34.104  1.00  0.00     0.227 C 
HETATM    9  O   UNL     1     -10.835   0.486 -33.156  1.00  0.00    -0.273 OA
HETATM   10  H   UNL     1      -9.563   2.246 -35.493  1.00  0.00     0.169 HD
BRANCH   8  11
HETATM   11  C   UNL     1     -11.913   1.870 -34.828  1.00  0.00     0.159 C 
BRANCH  11  12
HETATM   12  C   UNL     1     -13.188   1.832 -34.040  1.00  0.00     0.017 A 
HETATM   13  N   UNL     1     -13.335   2.451 -32.817  1.00  0.00    -0.369 N 
HETATM   14  H   UNL     1     -12.615   3.013 -32.371  1.00  0.00     0.165 HD
HETATM   15  C   UNL     1     -14.592   2.216 -32.328  1.00  0.00     0.088 A 
HETATM   16  C   UNL     1     -15.265   1.436 -33.238  1.00  0.00     0.019 A 
HETATM   17  C   UNL     1     -14.382   1.192 -34.317  1.00  0.00     0.027 A 
ENDBRANCH  11  12
ENDBRANCH   8  11
ENDBRANCH   3   7
BRANCH   1  18
HETATM   18  C   UNL     1      -5.802  -1.684 -34.205  1.00  0.00     0.180 A 
HETATM   19  N   UNL     1      -4.656  -2.156 -33.747  1.00  0.00    -0.226 NA
HETATM   20  C   UNL     1      -4.635  -3.465 -34.170  1.00  0.00     0.063 A 
HETATM   21  C   UNL     1      -3.502  -4.356 -33.846  1.00  0.00     0.073 C 
HETATM   22  C   UNL     1      -5.781  -3.735 -34.887  1.00  0.00     0.076 A 
HETATM   23  O   UNL     1      -6.537  -2.599 -34.911  1.00  0.00    -0.294 OA
HETATM   24  C   UNL     1      -6.319  -4.919 -35.576  1.00  0.00     0.079 C 
ENDBRANCH   1  18
TORSDOF 4
ENDMDL
MODEL 2
REMARK VINA RESULT:      -7.9      4.481      7.822
REMARK  4 active torsions:
REMARK  status: ('A' for Active; 'I' for Inactive)
REMARK    1  A    between atoms: C_4  and  C_5 
REMARK    2  A    between atoms: C_7  and  N_8 
REMARK       I    between atoms: N_8  and  C_9 
REMARK    3  A    between atoms: C_9  and  C_10 
REMARK    4  A    between atoms: C_10  and  C_11 
ROOT
HETATM    1  C   UNL     1      -5.657  -0.382 -32.901  1.00  0.00     0.019 A 
HETATM    2  C   UNL     1      -4.827   0.738 -33.090  1.00  0.00     0.045 A 
HETATM    3  C   UNL     1      -5.183   1.993 -32.586  1.00  0.00     0.035 A 
HETATM    4  C   UNL     1      -6.388   2.125 -31.883  1.00  0.00     0.029 A 
HETATM    5  C   UNL     1      -7.220   1.023 -31.683  1.00  0.00     0.003 A 
HETATM    6  C   UNL     1      -6.856  -0.221 -32.191  1.00  0.00     0.016 A 
ENDROOT
BRANCH   3   7
HETATM    7  N   UNL     1      -4.407   3.163 -32.739  1.00  0.00    -0.327 N 
HETATM    8  C   UNL     1      -3.201   3.473 -32.123  1.00  0.00     0.227 C 
HETATM    9  O   UNL     1      -2.615   2.773 -31.299  1.00  0.00    -0.273 OA
HETATM   10  H   UNL     1      -4.790   3.860 -33.365  1.00  0.00     0.169 HD
BRANCH   8  11
HETATM   11  C   UNL     1      -2.687   4.857 -32.534  1.00  0.00     0.159 C 
BRANCH  11  12
HETATM   12  C   UNL     1      -1.511   5.337 -31.739  1.00  0.00     0.017 A 
HETATM   13  N   UNL     1      -1.403   5.164 -30.376  1.00  0.00    -0.369 N 
HETATM   14  H   UNL     1      -2.084   4.667 -29.808  1.00  0.00     0.165 HD
HETATM   15  C   UNL     1      -0.241   5.730 -29.927  1.00  0.00     0.088 A 
HETATM   16  C   UNL     1       0.410   6.278 -31.007  1.00  0.00     0.019 A 
HETATM   17  C   UNL     1      -0.388   6.032 -32.149  1.00  0.00     0.027 A 
ENDBRANCH  11  12
ENDBRANCH   8  11
ENDBRANCH   3   7
BRANCH   1  18
HETATM   18  C   UNL     1      -5.313  -1.702 -33.425  1.00  0.00     0.180 A 
HETATM   19  N   UNL     1      -4.214  -2.411 -33.236  1.00  0.00    -0.226 NA
HETATM   20  C   UNL     1      -4.427  -3.566 -33.954  1.00  0.00     0.063 A 
HETATM   21  C   UNL     1      -3.415  -4.642 -33.990  1.00  0.00     0.073 C 
HETATM   22  C   UNL     1      -5.660  -3.505 -34.567  1.00  0.00     0.076 A 
HETATM   23  O   UNL     1      -6.237  -2.314 -34.230  1.00  0.00    -0.294 OA
HETATM   24  C   UNL     1      -6.428  -4.403 -35.444  1.00  0.00     0.079 C 
ENDBRANCH   1  18
TORSDOF 4
ENDMDL
MODEL 3
REMARK VINA RESULT:      -7.7      4.600      8.084
REMARK  4 active torsions:
REMARK  status: ('A' for Active; 'I' for Inactive)
REMARK    1  A    between atoms: C_4  and  C_5 
REMARK    2  A    between atoms: C_7  and  N_8 
REMARK       I    between atoms: N_8  and  C_9 
REMARK    3  A    between atoms: C_9  and  C_10 
REMARK    4  A    between atoms: C_10  and  C_11 
ROOT
HETATM    1  C   UNL     1      -4.027   3.683 -31.673  1.00  0.00     0.019 A 
HETATM    2  C   UNL     1      -4.391   2.695 -32.606  1.00  0.00     0.045 A 
HETATM    3  C   UNL     1      -5.598   1.999 -32.485  1.00  0.00     0.035 A 
HETATM    4  C   UNL     1      -6.450   2.299 -31.413  1.00  0.00     0.029 A 
HETATM    5  C   UNL     1      -6.105   3.278 -30.482  1.00  0.00     0.003 A 
HETATM    6  C   UNL     1      -4.900   3.963 -30.611  1.00  0.00     0.016 A 
ENDROOT
BRANCH   3   7
HETATM    7  N   UNL     1      -6.031   0.994 -33.377  1.00  0.00    -0.327 N 
HETATM    8  C   UNL     1      -6.020  -0.382 -33.182  1.00  0.00     0.227 C 
HETATM    9  O   UNL     1      -5.590  -0.962 -32.188  1.00  0.00    -0.273 OA
HETATM   10  H   UNL     1      -6.379   1.324 -34.269  1.00  0.00     0.169 HD
BRANCH   8  11
HETATM   11  C   UNL     1      -6.553  -1.137 -34.405  1.00  0.00     0.159 C 
BRANCH  11  12
HETATM   12  C   UNL     1      -6.080  -2.556 -34.504  1.00  0.00     0.017 A 
HETATM   13  N   UNL     1      -4.779  -2.935 -34.255  1.00  0.00    -0.369 N 
HETATM   14  H   UNL     1      -4.047  -2.299 -33.948  1.00  0.00     0.165 HD
HETATM   15  C   UNL     1      -4.642  -4.282 -34.454  1.00  0.00     0.088 A 
HETATM   16  C   UNL     1      -5.864  -4.782 -34.838  1.00  0.00     0.019 A 
HETATM   17  C   UNL     1      -6.771  -3.697 -34.870  1.00  0.00     0.027 A 
ENDBRANCH  11  12
ENDBRANCH   8  11
ENDBRANCH   3   7
BRANCH   1  18
HETATM   18  C   UNL     1      -2.767   4.418 -31.771  1.00  0.00     0.180 A 
HETATM   19  N   UNL     1      -1.643   4.234 -31.102  1.00  0.00    -0.226 NA
HETATM   20  C   UNL     1      -0.793   5.198 -31.594  1.00  0.00     0.063 A 
HETATM   21  C   UNL     1       0.593   5.321 -31.099  1.00  0.00     0.073 C 
HETATM   22  C   UNL     1      -1.449   5.946 -32.548  1.00  0.00     0.076 A 
HETATM   23  O   UNL     1      -2.716   5.450 -32.671  1.00  0.00    -0.294 OA
HETATM   24  C   UNL     1      -1.085   7.085 -33.405  1.00  0.00     0.079 C 
ENDBRANCH   1  18
TORSDOF 4
ENDMDL
MODEL 4
REMARK VINA RESULT:      -7.7      1.485      1.856
REMARK  4 active torsions:
REMARK  status: ('A' for Active; 'I' for Inactive)
REMARK    1  A    between atoms: C_4  and  C_5 
REMARK    2  A    between atoms: C_7  and  N_8 
REMARK       I    between atoms: N_8  and  C_9 
REMARK    3  A    between atoms: C_9  and  C_10 
REMARK    4  A    between atoms: C_10  and  C_11 
ROOT
HETATM    1  C   UNL     1      -5.244  -0.392 -33.225  1.00  0.00     0.019 A 
HETATM    2  C   UNL     1      -6.516   0.202 -33.313  1.00  0.00     0.045 A 
HETATM    3  C   UNL     1      -6.725   1.523 -32.906  1.00  0.00     0.035 A 
HETATM    4  C   UNL     1      -5.642   2.258 -32.404  1.00  0.00     0.029 A 
HETATM    5  C   UNL     1      -4.374   1.685 -32.314  1.00  0.00     0.003 A 
HETATM    6  C   UNL     1      -4.178   0.368 -32.721  1.00  0.00     0.016 A 
ENDROOT
BRANCH   3   7
HETATM    7  N   UNL     1      -7.970   2.186 -32.959  1.00  0.00    -0.327 N 
HETATM    8  C   UNL     1      -9.183   1.767 -32.426  1.00  0.00     0.227 C 
HETATM    9  O   UNL     1      -9.379   0.708 -31.835  1.00  0.00    -0.273 OA
HETATM   10  H   UNL     1      -7.974   3.066 -33.458  1.00  0.00     0.169 HD
BRANCH   8  11
HETATM   11  C   UNL     1     -10.312   2.761 -32.721  1.00  0.00     0.159 C 
BRANCH  11  12
HETATM   12  C   UNL     1     -11.490   2.161 -33.427  1.00  0.00     0.017 A 
HETATM   13  N   UNL     1     -11.901   0.859 -33.233  1.00  0.00    -0.369 N 
HETATM   14  H   UNL     1     -11.470   0.217 -32.573  1.00  0.00     0.165 HD
HETATM   15  C   UNL     1     -12.978   0.589 -34.033  1.00  0.00     0.088 A 
HETATM   16  C   UNL     1     -13.268   1.723 -34.755  1.00  0.00     0.019 A 
HETATM   17  C   UNL     1     -12.332   2.714 -34.375  1.00  0.00     0.027 A 
ENDBRANCH  11  12
ENDBRANCH   8  11
ENDBRANCH   3   7
BRANCH   1  18
HETATM   18  C   UNL     1      -5.000  -1.774 -33.635  1.00  0.00     0.180 A 
HETATM   19  N   UNL     1      -3.978  -2.558 -33.345  1.00  0.00    -0.226 NA
HETATM   20  C   UNL     1      -4.266  -3.742 -33.986  1.00  0.00     0.063 A 
HETATM   21  C   UNL     1      -3.355  -4.902 -33.898  1.00  0.00     0.073 C 
HETATM   22  C   UNL     1      -5.464  -3.622 -34.657  1.00  0.00     0.076 A 
HETATM   23  O   UNL     1      -5.944  -2.363 -34.434  1.00  0.00    -0.294 OA
HETATM   24  C   UNL     1      -6.276  -4.514 -35.499  1.00  0.00     0.079 C 
ENDBRANCH   1  18
TORSDOF 4
ENDMDL
MODEL 5
REMARK VINA RESULT:      -7.7      3.777      6.952
REMARK  4 active torsions:
REMARK  status: ('A' for Active; 'I' for Inactive)
REMARK    1  A    between atoms: C_4  and  C_5 
REMARK    2  A    between atoms: C_7  and  N_8 
REMARK       I    between atoms: N_8  and  C_9 
REMARK    3  A    between atoms: C_9  and  C_10 
REMARK    4  A    between atoms: C_10  and  C_11 
ROOT
HETATM    1  C   UNL     1      -6.482  -0.085 -34.069  1.00  0.00     0.019 A 
HETATM    2  C   UNL     1      -5.751   0.987 -33.524  1.00  0.00     0.045 A 
HETATM    3  C   UNL     1      -6.310   2.266 -33.428  1.00  0.00     0.035 A 
HETATM    4  C   UNL     1      -7.619   2.470 -33.886  1.00  0.00     0.029 A 
HETATM    5  C   UNL     1      -8.358   1.416 -34.424  1.00  0.00     0.003 A 
HETATM    6  C   UNL     1      -7.790   0.148 -34.516  1.00  0.00     0.016 A 
ENDROOT
BRANCH   3   7
HETATM    7  N   UNL     1      -5.641   3.390 -32.899  1.00  0.00    -0.327 N 
HETATM    8  C   UNL     1      -5.199   4.518 -33.580  1.00  0.00     0.227 C 
HETATM    9  O   UNL     1      -5.294   4.709 -34.790  1.00  0.00    -0.273 OA
HETATM   10  H   UNL     1      -5.454   3.357 -31.905  1.00  0.00     0.169 HD
BRANCH   8  11
HETATM   11  C   UNL     1      -4.491   5.509 -32.647  1.00  0.00     0.159 C 
BRANCH  11  12
HETATM   12  C   UNL     1      -3.171   5.998 -33.160  1.00  0.00     0.017 A 
HETATM   13  N   UNL     1      -2.467   5.359 -34.157  1.00  0.00    -0.369 N 
HETATM   14  H   UNL     1      -2.798   4.534 -34.652  1.00  0.00     0.165 HD
HETATM   15  C   UNL     1      -1.290   6.018 -34.390  1.00  0.00     0.088 A 
HETATM   16  C   UNL     1      -1.228   7.093 -33.535  1.00  0.00     0.019 A 
HETATM   17  C   UNL     1      -2.412   7.082 -32.759  1.00  0.00     0.027 A 
ENDBRANCH  11  12
ENDBRANCH   8  11
ENDBRANCH   3   7
BRANCH   1  18
HETATM   18  C   UNL     1      -5.918  -1.428 -34.189  1.00  0.00     0.180 A 
HETATM   19  N   UNL     1      -4.777  -1.896 -33.716  1.00  0.00    -0.226 NA
HETATM   20  C   UNL     1      -4.756  -3.212 -34.118  1.00  0.00     0.063 A 
HETATM   21  C   UNL     1      -3.628  -4.101 -33.773  1.00  0.00     0.073 C 
HETATM   22  C   UNL     1      -5.898  -3.490 -34.839  1.00  0.00     0.076 A 
HETATM   23  O   UNL     1      -6.651  -2.352 -34.886  1.00  0.00    -0.294 OA
HETATM   24  C   UNL     1      -6.434  -4.683 -35.513  1.00  0.00     0.079 C 
ENDBRANCH   1  18
TORSDOF 4
ENDMDL
MODEL 6
REMARK VINA RESULT:      -7.3      6.112      9.623
REMARK  4 active torsions:
REMARK  status: ('A' for Active; 'I' for Inactive)
REMARK    1  A    between atoms: C_4  and  C_5 
REMARK    2  A    between atoms: C_7  and  N_8 
REMARK       I    between atoms: N_8  and  C_9 
REMARK    3  A    between atoms: C_9  and  C_10 
REMARK    4  A    between atoms: C_10  and  C_11 
ROOT
HETATM    1  C   UNL     1      -4.886   2.765 -32.370  1.00  0.00     0.019 A 
HETATM    2  C   UNL     1      -3.542   2.995 -32.025  1.00  0.00     0.045 A 
HETATM    3  C   UNL     1      -3.156   4.170 -31.372  1.00  0.00     0.035 A 
HETATM    4  C   UNL     1      -4.133   5.126 -31.061  1.00  0.00     0.029 A 
HETATM    5  C   UNL     1      -5.471   4.910 -31.392  1.00  0.00     0.003 A 
HETATM    6  C   UNL     1      -5.843   3.737 -32.044  1.00  0.00     0.016 A 
ENDROOT
BRANCH   3   7
HETATM    7  N   UNL     1      -1.829   4.475 -30.998  1.00  0.00    -0.327 N 
HETATM    8  C   UNL     1      -0.876   5.174 -31.729  1.00  0.00     0.227 C 
HETATM    9  O   UNL     1      -1.029   5.624 -32.862  1.00  0.00    -0.273 OA
HETATM   10  H   UNL     1      -1.542   4.128 -30.092  1.00  0.00     0.169 HD
BRANCH   8  11
HETATM   11  C   UNL     1       0.459   5.273 -30.982  1.00  0.00     0.159 C 
BRANCH  11  12
HETATM   12  C   UNL     1       0.386   6.033 -29.692  1.00  0.00     0.017 A 
HETATM   13  N   UNL     1       0.201   5.424 -28.469  1.00  0.00    -0.369 N 
HETATM   14  H   UNL     1       0.139   4.418 -28.336  1.00  0.00     0.165 HD
HETATM   15  C   UNL     1       0.145   6.371 -27.483  1.00  0.00     0.088 A 
HETATM   16  C   UNL     1       0.293   7.606 -28.070  1.00  0.00     0.019 A 
HETATM   17  C   UNL     1       0.444   7.395 -29.461  1.00  0.00     0.027 A 
ENDBRANCH  11  12
ENDBRANCH   8  11
ENDBRANCH   3   7
BRANCH   1  18
HETATM   18  C   UNL     1      -5.314   1.550 -33.061  1.00  0.00     0.180 A 
HETATM   19  N   UNL     1      -6.380   1.356 -33.818  1.00  0.00    -0.226 NA
HETATM   20  C   UNL     1      -6.284   0.040 -34.208  1.00  0.00     0.063 A 
HETATM   21  C   UNL     1      -7.299  -0.573 -35.089  1.00  0.00     0.073 C 
HETATM   22  C   UNL     1      -5.153  -0.523 -33.655  1.00  0.00     0.076 A 
HETATM   23  O   UNL     1      -4.522   0.441 -32.921  1.00  0.00    -0.294 OA
HETATM   24  C   UNL     1      -4.528  -1.854 -33.700  1.00  0.00     0.079 C 
ENDBRANCH   1  18
TORSDOF 4
ENDMDL
MODEL 7
REMARK VINA RESULT:      -7.3      4.428      7.717
REMARK  4 active torsions:
REMARK  status: ('A' for Active; 'I' for Inactive)
REMARK    1  A    between atoms: C_4  and  C_5 
REMARK    2  A    between atoms: C_7  and  N_8 
REMARK       I    between atoms: N_8  and  C_9 
REMARK    3  A    between atoms: C_9  and  C_10 
REMARK    4  A    between atoms: C_10  and  C_11 
ROOT
HETATM    1  C   UNL     1      -5.665  -0.043 -33.744  1.00  0.00     0.019 A 
HETATM    2  C   UNL     1      -4.680   0.632 -33.001  1.00  0.00     0.045 A 
HETATM    3  C   UNL     1      -4.804   1.995 -32.710  1.00  0.00     0.035 A 
HETATM    4  C   UNL     1      -5.932   2.687 -33.170  1.00  0.00     0.029 A 
HETATM    5  C   UNL     1      -6.920   2.031 -33.904  1.00  0.00     0.003 A 
HETATM    6  C   UNL     1      -6.785   0.674 -34.190  1.00  0.00     0.016 A 
ENDROOT
BRANCH   3   7
HETATM    7  N   UNL     1      -3.858   2.742 -31.976  1.00  0.00    -0.327 N 
HETATM    8  C   UNL     1      -2.969   3.697 -32.453  1.00  0.00     0.227 C 
HETATM    9  O   UNL     1      -2.838   4.032 -33.628  1.00  0.00    -0.273 OA
HETATM   10  H   UNL     1      -3.821   2.542 -30.984  1.00  0.00     0.169 HD
BRANCH   8  11
HETATM   11  C   UNL     1      -2.085   4.265 -31.337  1.00  0.00     0.159 C 
BRANCH  11  12
HETATM   12  C   UNL     1      -1.898   5.751 -31.397  1.00  0.00     0.017 A 
HETATM   13  N   UNL     1      -1.468   6.410 -32.529  1.00  0.00    -0.369 N 
HETATM   14  H   UNL     1      -1.282   5.955 -33.419  1.00  0.00     0.165 HD
HETATM   15  C   UNL     1      -1.364   7.750 -32.274  1.00  0.00     0.088 A 
HETATM   16  C   UNL     1      -1.727   7.964 -30.965  1.00  0.00     0.019 A 
HETATM   17  C   UNL     1      -2.063   6.706 -30.411  1.00  0.00     0.027 A 
ENDBRANCH  11  12
ENDBRANCH   8  11
ENDBRANCH   3   7
BRANCH   1  18
HETATM   18  C   UNL     1      -5.555  -1.464 -34.071  1.00  0.00     0.180 A 
HETATM   19  N   UNL     1      -6.398  -2.231 -34.738  1.00  0.00    -0.226 NA
HETATM   20  C   UNL     1      -5.795  -3.468 -34.750  1.00  0.00     0.063 A 
HETATM   21  C   UNL     1      -6.428  -4.621 -35.422  1.00  0.00     0.073 C 
HETATM   22  C   UNL     1      -4.598  -3.403 -34.070  1.00  0.00     0.076 A 
HETATM   23  O   UNL     1      -4.433  -2.119 -33.634  1.00  0.00    -0.294 OA
HETATM   24  C   UNL     1      -3.533  -4.366 -33.749  1.00  0.00     0.079 C 
ENDBRANCH   1  18
TORSDOF 4
ENDMDL
MODEL 8
REMARK VINA RESULT:      -7.3      1.916      2.393
REMARK  4 active torsions:
REMARK  status: ('A' for Active; 'I' for Inactive)
REMARK    1  A    between atoms: C_4  and  C_5 
REMARK    2  A    between atoms: C_7  and  N_8 
REMARK       I    between atoms: N_8  and  C_9 
REMARK    3  A    between atoms: C_9  and  C_10 
REMARK    4  A    between atoms: C_10  and  C_11 
ROOT
HETATM    1  C   UNL     1      -7.355   0.115 -32.509  1.00  0.00     0.019 A 
HETATM    2  C   UNL     1      -8.645  -0.029 -33.051  1.00  0.00     0.045 A 
HETATM    3  C   UNL     1      -9.686   0.826 -32.674  1.00  0.00     0.035 A 
HETATM    4  C   UNL     1      -9.427   1.838 -31.739  1.00  0.00     0.029 A 
HETATM    5  C   UNL     1      -8.153   1.996 -31.195  1.00  0.00     0.003 A 
HETATM    6  C   UNL     1      -7.125   1.138 -31.577  1.00  0.00     0.016 A 
ENDROOT
BRANCH   3   7
HETATM    7  N   UNL     1     -11.005   0.742 -33.169  1.00  0.00    -0.327 N 
HETATM    8  C   UNL     1     -11.587   1.499 -34.179  1.00  0.00     0.227 C 
HETATM    9  O   UNL     1     -11.041   2.410 -34.798  1.00  0.00    -0.273 OA
HETATM   10  H   UNL     1     -11.595   0.054 -32.720  1.00  0.00     0.169 HD
BRANCH   8  11
HETATM   11  C   UNL     1     -13.055   1.120 -34.405  1.00  0.00     0.159 C 
BRANCH  11  12
HETATM   12  C   UNL     1     -14.018   1.823 -33.497  1.00  0.00     0.017 A 
HETATM   13  N   UNL     1     -13.778   3.073 -32.969  1.00  0.00    -0.369 N 
HETATM   14  H   UNL     1     -12.957   3.634 -33.179  1.00  0.00     0.165 HD
HETATM   15  C   UNL     1     -14.817   3.440 -32.157  1.00  0.00     0.088 A 
HETATM   16  C   UNL     1     -15.738   2.419 -32.156  1.00  0.00     0.019 A 
HETATM   17  C   UNL     1     -15.237   1.399 -32.999  1.00  0.00     0.027 A 
ENDBRANCH  11  12
ENDBRANCH   8  11
ENDBRANCH   3   7
BRANCH   1  18
HETATM   18  C   UNL     1      -6.253  -0.770 -32.879  1.00  0.00     0.180 A 
HETATM   19  N   UNL     1      -6.152  -1.584 -33.915  1.00  0.00    -0.226 NA
HETATM   20  C   UNL     1      -4.912  -2.165 -33.772  1.00  0.00     0.063 A 
HETATM   21  C   UNL     1      -4.410  -3.147 -34.754  1.00  0.00     0.073 C 
HETATM   22  C   UNL     1      -4.307  -1.680 -32.632  1.00  0.00     0.076 A 
HETATM   23  O   UNL     1      -5.158  -0.782 -32.055  1.00  0.00    -0.294 OA
HETATM   24  C   UNL     1      -3.017  -1.914 -31.963  1.00  0.00     0.079 C 
ENDBRANCH   1  18
TORSDOF 4
ENDMDL
MODEL 9
REMARK VINA RESULT:      -7.2      3.679      6.674
REMARK  4 active torsions:
REMARK  status: ('A' for Active; 'I' for Inactive)
REMARK    1  A    between atoms: C_4  and  C_5 
REMARK    2  A    between atoms: C_7  and  N_8 
REMARK       I    between atoms: N_8  and  C_9 
REMARK    3  A    between atoms: C_9  and  C_10 
REMARK    4  A    between atoms: C_10  and  C_11 
ROOT
HETATM    1  C   UNL     1      -6.863  -0.263 -33.371  1.00  0.00     0.019 A 
HETATM    2  C   UNL     1      -5.991   0.810 -33.117  1.00  0.00     0.045 A 
HETATM    3  C   UNL     1      -6.474   2.039 -32.655  1.00  0.00     0.035 A 
HETATM    4  C   UNL     1      -7.852   2.190 -32.446  1.00  0.00     0.029 A 
HETATM    5  C   UNL     1      -8.729   1.134 -32.689  1.00  0.00     0.003 A 
HETATM    6  C   UNL     1      -8.237  -0.084 -33.150  1.00  0.00     0.016 A 
ENDROOT
BRANCH   3   7
HETATM    7  N   UNL     1      -5.664   3.162 -32.381  1.00  0.00    -0.327 N 
HETATM    8  C   UNL     1      -4.924   3.422 -31.234  1.00  0.00     0.227 C 
HETATM    9  O   UNL     1      -4.879   2.711 -30.233  1.00  0.00    -0.273 OA
HETATM   10  H   UNL     1      -5.635   3.865 -33.109  1.00  0.00     0.169 HD
BRANCH   8  11
HETATM   11  C   UNL     1      -4.195   4.768 -31.316  1.00  0.00     0.159 C 
BRANCH  11  12
HETATM   12  C   UNL     1      -3.417   4.969 -32.581  1.00  0.00     0.017 A 
HETATM   13  N   UNL     1      -3.745   5.920 -33.523  1.00  0.00    -0.369 N 
HETATM   14  H   UNL     1      -4.508   6.584 -33.423  1.00  0.00     0.165 HD
HETATM   15  C   UNL     1      -2.876   5.846 -34.578  1.00  0.00     0.088 A 
HETATM   16  C   UNL     1      -1.978   4.838 -34.320  1.00  0.00     0.019 A 
HETATM   17  C   UNL     1      -2.317   4.284 -33.063  1.00  0.00     0.027 A 
ENDBRANCH  11  12
ENDBRANCH   8  11
ENDBRANCH   3   7
BRANCH   1  18
HETATM   18  C   UNL     1      -6.385  -1.554 -33.863  1.00  0.00     0.180 A 
HETATM   19  N   UNL     1      -7.002  -2.429 -34.637  1.00  0.00    -0.226 NA
HETATM   20  C   UNL     1      -6.094  -3.453 -34.784  1.00  0.00     0.063 A 
HETATM   21  C   UNL     1      -6.407  -4.641 -35.603  1.00  0.00     0.073 C 
HETATM   22  C   UNL     1      -4.950  -3.157 -34.074  1.00  0.00     0.076 A 
HETATM   23  O   UNL     1      -5.126  -1.939 -33.483  1.00  0.00    -0.294 OA
HETATM   24  C   UNL     1      -3.665  -3.838 -33.847  1.00  0.00     0.079 C 
ENDBRANCH   1  18
TORSDOF 4
ENDMDL
MODEL 10
REMARK VINA RESULT:      -7.2      5.358      8.280
REMARK  4 active torsions:
REMARK  status: ('A' for Active; 'I' for Inactive)
REMARK    1  A    between atoms: C_4  and  C_5 
REMARK    2  A    between atoms: C_7  and  N_8 
REMARK       I    between atoms: N_8  and  C_9 
REMARK    3  A    between atoms: C_9  and  C_10 
REMARK    4  A    between atoms: C_10  and  C_11 
ROOT
HETATM    1  C   UNL     1      -4.762   0.150 -32.056  1.00  0.00     0.019 A 
HETATM    2  C   UNL     1      -3.669   1.035 -32.065  1.00  0.00     0.045 A 
HETATM    3  C   UNL     1      -3.687   2.211 -31.308  1.00  0.00     0.035 A 
HETATM    4  C   UNL     1      -4.818   2.502 -30.533  1.00  0.00     0.029 A 
HETATM    5  C   UNL     1      -5.909   1.632 -30.510  1.00  0.00     0.003 A 
HETATM    6  C   UNL     1      -5.880   0.465 -31.268  1.00  0.00     0.016 A 
ENDROOT
BRANCH   3   7
HETATM    7  N   UNL     1      -2.634   3.150 -31.269  1.00  0.00    -0.327 N 
HETATM    8  C   UNL     1      -2.571   4.389 -31.894  1.00  0.00     0.227 C 
HETATM    9  O   UNL     1      -3.434   4.868 -32.627  1.00  0.00    -0.273 OA
HETATM   10  H   UNL     1      -1.824   2.872 -30.728  1.00  0.00     0.169 HD
BRANCH   8  11
HETATM   11  C   UNL     1      -1.240   5.100 -31.624  1.00  0.00     0.159 C 
BRANCH  11  12
HETATM   12  C   UNL     1      -1.308   6.146 -30.554  1.00  0.00     0.017 A 
HETATM   13  N   UNL     1      -2.447   6.400 -29.821  1.00  0.00    -0.369 N 
HETATM   14  H   UNL     1      -3.315   5.879 -29.915  1.00  0.00     0.165 HD
HETATM   15  C   UNL     1      -2.215   7.425 -28.944  1.00  0.00     0.088 A 
HETATM   16  C   UNL     1      -0.916   7.842 -29.110  1.00  0.00     0.019 A 
HETATM   17  C   UNL     1      -0.342   7.038 -30.124  1.00  0.00     0.027 A 
ENDBRANCH  11  12
ENDBRANCH   8  11
ENDBRANCH   3   7
BRANCH   1  18
HETATM   18  C   UNL     1      -4.773  -1.081 -32.844  1.00  0.00     0.180 A 
HETATM   19  N   UNL     1      -5.504  -1.385 -33.901  1.00  0.00    -0.226 NA
HETATM   20  C   UNL     1      -5.104  -2.659 -34.236  1.00  0.00     0.063 A 
HETATM   21  C   UNL     1      -5.690  -3.365 -35.394  1.00  0.00     0.073 C 
HETATM   22  C   UNL     1      -4.139  -3.086 -33.349  1.00  0.00     0.076 A 
HETATM   23  O   UNL     1      -3.917  -2.079 -32.454  1.00  0.00    -0.294 OA
HETATM   24  C   UNL     1      -3.351  -4.318 -33.187  1.00  0.00     0.079 C 
ENDBRANCH   1  18
TORSDOF 4
ENDMDL
