MODEL 1
REMARK VINA RESULT:      -8.6      0.000      0.000
REMARK  7 active torsions:
REMARK  status: ('A' for Active; 'I' for Inactive)
REMARK    1  A    between atoms: C_2  and  O_3 
REMARK    2  A    between atoms: O_3  and  C_4 
REMARK    3  A    between atoms: C_5  and  O_6 
REMARK    4  A    between atoms: C_9  and  C_10 
REMARK    5  A    between atoms: C_14  and  C_15 
REMARK       I    between atoms: C_15  and  N_16 
REMARK    6  A    between atoms: N_16  and  N_17 
REMARK    7  A    between atoms: C_18  and  C_19 
ROOT
HETATM    1  C   UNL     1       0.127   6.631 -28.809  1.00  0.00     0.089 A 
HETATM    2  N   UNL     1       0.655   5.399 -28.747  1.00  0.00    -0.174 NA
HETATM    3  N   UNL     1       0.080   4.724 -29.752  1.00  0.00    -0.272 N 
HETATM    4  H   UNL     1       0.329   3.750 -29.901  1.00  0.00     0.189 HD
HETATM    5  C   UNL     1      -0.810   5.459 -30.483  1.00  0.00     0.121 A 
HETATM    6  C   UNL     1      -0.797   6.708 -29.893  1.00  0.00     0.071 A 
ENDROOT
BRANCH   5   7
HETATM    7  C   UNL     1      -1.519   4.879 -31.596  1.00  0.00     0.289 C 
HETATM    8  N   UNL     1      -2.541   4.011 -31.239  1.00  0.00    -0.242 N 
HETATM    9  H   UNL     1      -2.741   3.831 -30.266  1.00  0.00     0.192 HD
HETATM   10  O   UNL     1      -1.216   5.154 -32.755  1.00  0.00    -0.264 OA
BRANCH   8  11
HETATM   11  N   UNL     1      -3.282   3.382 -32.201  1.00  0.00    -0.183 NA
HETATM   12  C   UNL     1      -4.329   2.751 -31.778  1.00  0.00     0.152 C 
BRANCH  12  13
HETATM   13  C   UNL     1      -5.176   2.048 -32.718  1.00  0.00     0.011 A 
HETATM   14  C   UNL     1      -5.124   0.658 -33.063  1.00  0.00     0.004 A 
HETATM   15  C   UNL     1      -6.125   0.427 -34.010  1.00  0.00     0.043 A 
HETATM   16  C   UNL     1      -4.319  -0.429 -32.661  1.00  0.00     0.014 A 
HETATM   17  C   UNL     1      -6.360  -0.832 -34.573  1.00  0.00     0.030 A 
HETATM   18  N   UNL     1      -6.760   1.627 -34.231  1.00  0.00    -0.364 N 
HETATM   19  C   UNL     1      -5.548  -1.892 -34.157  1.00  0.00     0.002 A 
HETATM   20  C   UNL     1      -4.542  -1.696 -33.215  1.00  0.00     0.001 A 
HETATM   21  H   UNL     1      -7.531   1.761 -34.871  1.00  0.00     0.165 HD
HETATM   22  C   UNL     1      -6.199   2.607 -33.460  1.00  0.00     0.102 A 
ENDBRANCH  12  13
ENDBRANCH   8  11
ENDBRANCH   5   7
BRANCH   1  23
HETATM   23  C   UNL     1       0.507   7.681 -27.852  1.00  0.00    -0.003 A 
HETATM   24  C   UNL     1      -0.130   8.936 -27.849  1.00  0.00     0.053 A 
HETATM   25  C   UNL     1       0.228   9.937 -26.932  1.00  0.00     0.102 A 
HETATM   26  C   UNL     1       1.226   9.663 -25.982  1.00  0.00     0.102 A 
HETATM   27  C   UNL     1       1.885   8.433 -25.998  1.00  0.00     0.040 A 
HETATM   28  C   UNL     1       1.526   7.449 -26.919  1.00  0.00     0.017 A 
BRANCH  25  29
HETATM   29  O   UNL     1      -0.329  11.189 -26.911  1.00  0.00    -0.353 OA
HETATM   30  C   UNL     1      -1.444  11.442 -27.754  1.00  0.00     0.210 C 
ENDBRANCH  25  29
BRANCH  26  31
HETATM   31  O   UNL     1       1.689  10.537 -25.032  1.00  0.00    -0.349 OA
BRANCH  31  32
HETATM   32  C   UNL     1       2.193   9.923 -23.843  1.00  0.00     0.171 C 
HETATM   33  C   UNL     1       1.294  10.334 -22.690  1.00  0.00     0.034 C 
ENDBRANCH  31  32
ENDBRANCH  26  31
ENDBRANCH   1  23
TORSDOF 7
ENDMDL
MODEL 2
REMARK VINA RESULT:      -8.5      1.679      2.250
REMARK  7 active torsions:
REMARK  status: ('A' for Active; 'I' for Inactive)
REMARK    1  A    between atoms: C_2  and  O_3 
REMARK    2  A    between atoms: O_3  and  C_4 
REMARK    3  A    between atoms: C_5  and  O_6 
REMARK    4  A    between atoms: C_9  and  C_10 
REMARK    5  A    between atoms: C_14  and  C_15 
REMARK       I    between atoms: C_15  and  N_16 
REMARK    6  A    between atoms: N_16  and  N_17 
REMARK    7  A    between atoms: C_18  and  C_19 
ROOT
HETATM    1  C   UNL     1      -1.268   7.195 -29.556  1.00  0.00     0.089 A 
HETATM    2  N   UNL     1      -2.452   7.593 -30.046  1.00  0.00    -0.174 NA
HETATM    3  N   UNL     1      -2.810   6.631 -30.907  1.00  0.00    -0.272 N 
HETATM    4  H   UNL     1      -3.690   6.719 -31.411  1.00  0.00     0.189 HD
HETATM    5  C   UNL     1      -1.913   5.607 -31.009  1.00  0.00     0.121 A 
HETATM    6  C   UNL     1      -0.897   5.946 -30.137  1.00  0.00     0.071 A 
ENDROOT
BRANCH   5   7
HETATM    7  C   UNL     1      -2.146   4.495 -31.898  1.00  0.00     0.289 C 
HETATM    8  N   UNL     1      -2.780   3.411 -31.310  1.00  0.00    -0.242 N 
HETATM    9  H   UNL     1      -3.044   3.440 -30.335  1.00  0.00     0.192 HD
HETATM   10  O   UNL     1      -1.797   4.540 -33.075  1.00  0.00    -0.264 OA
BRANCH   8  11
HETATM   11  N   UNL     1      -3.046   2.285 -32.040  1.00  0.00    -0.183 NA
HETATM   12  C   UNL     1      -3.573   1.303 -31.384  1.00  0.00     0.152 C 
BRANCH  12  13
HETATM   13  C   UNL     1      -3.887   0.066 -32.066  1.00  0.00     0.011 A 
HETATM   14  C   UNL     1      -4.924  -0.155 -33.031  1.00  0.00     0.004 A 
HETATM   15  C   UNL     1      -4.855  -1.496 -33.414  1.00  0.00     0.043 A 
HETATM   16  C   UNL     1      -5.916   0.659 -33.617  1.00  0.00     0.014 A 
HETATM   17  C   UNL     1      -5.728  -2.063 -34.351  1.00  0.00     0.030 A 
HETATM   18  N   UNL     1      -3.820  -2.068 -32.712  1.00  0.00    -0.364 N 
HETATM   19  C   UNL     1      -6.701  -1.234 -34.916  1.00  0.00     0.002 A 
HETATM   20  C   UNL     1      -6.796   0.108 -34.556  1.00  0.00     0.001 A 
HETATM   21  H   UNL     1      -3.538  -3.036 -32.788  1.00  0.00     0.165 HD
HETATM   22  C   UNL     1      -3.232  -1.138 -31.900  1.00  0.00     0.102 A 
ENDBRANCH  12  13
ENDBRANCH   8  11
ENDBRANCH   5   7
BRANCH   1  23
HETATM   23  C   UNL     1      -0.533   8.001 -28.568  1.00  0.00    -0.003 A 
HETATM   24  C   UNL     1      -1.186   8.962 -27.775  1.00  0.00     0.053 A 
HETATM   25  C   UNL     1      -0.487   9.728 -26.827  1.00  0.00     0.102 A 
HETATM   26  C   UNL     1       0.889   9.505 -26.655  1.00  0.00     0.102 A 
HETATM   27  C   UNL     1       1.551   8.576 -27.459  1.00  0.00     0.040 A 
HETATM   28  C   UNL     1       0.847   7.826 -28.402  1.00  0.00     0.017 A 
BRANCH  25  29
HETATM   29  O   UNL     1      -1.063  10.706 -26.060  1.00  0.00    -0.353 OA
HETATM   30  C   UNL     1      -1.769  10.313 -24.891  1.00  0.00     0.210 C 
ENDBRANCH  25  29
BRANCH  26  31
HETATM   31  O   UNL     1       1.706  10.175 -25.781  1.00  0.00    -0.349 OA
BRANCH  31  32
HETATM   32  C   UNL     1       1.972   9.487 -24.556  1.00  0.00     0.171 C 
HETATM   33  C   UNL     1       3.479   9.395 -24.392  1.00  0.00     0.034 C 
ENDBRANCH  31  32
ENDBRANCH  26  31
ENDBRANCH   1  23
TORSDOF 7
ENDMDL
MODEL 3
REMARK VINA RESULT:      -8.4      1.697      2.317
REMARK  7 active torsions:
REMARK  status: ('A' for Active; 'I' for Inactive)
REMARK    1  A    between atoms: C_2  and  O_3 
REMARK    2  A    between atoms: O_3  and  C_4 
REMARK    3  A    between atoms: C_5  and  O_6 
REMARK    4  A    between atoms: C_9  and  C_10 
REMARK    5  A    between atoms: C_14  and  C_15 
REMARK       I    between atoms: C_15  and  N_16 
REMARK    6  A    between atoms: N_16  and  N_17 
REMARK    7  A    between atoms: C_18  and  C_19 
ROOT
HETATM    1  C   UNL     1      -1.112   6.078 -30.485  1.00  0.00     0.089 A 
HETATM    2  N   UNL     1      -0.304   5.713 -31.492  1.00  0.00    -0.174 NA
HETATM    3  N   UNL     1      -1.084   5.010 -32.324  1.00  0.00    -0.272 N 
HETATM    4  H   UNL     1      -0.681   4.622 -33.173  1.00  0.00     0.189 HD
HETATM    5  C   UNL     1      -2.382   4.894 -31.912  1.00  0.00     0.121 A 
HETATM    6  C   UNL     1      -2.430   5.583 -30.716  1.00  0.00     0.071 A 
ENDROOT
BRANCH   5   7
HETATM    7  C   UNL     1      -3.350   4.162 -32.692  1.00  0.00     0.289 C 
HETATM    8  N   UNL     1      -3.908   3.072 -32.041  1.00  0.00    -0.242 N 
HETATM    9  H   UNL     1      -3.633   2.845 -31.096  1.00  0.00     0.192 HD
HETATM   10  O   UNL     1      -3.633   4.507 -33.836  1.00  0.00    -0.264 OA
BRANCH   8  11
HETATM   11  N   UNL     1      -4.829   2.284 -32.676  1.00  0.00    -0.183 NA
HETATM   12  C   UNL     1      -4.888   1.056 -32.274  1.00  0.00     0.152 C 
BRANCH  12  13
HETATM   13  C   UNL     1      -5.827   0.141 -32.887  1.00  0.00     0.011 A 
HETATM   14  C   UNL     1      -5.531  -1.105 -33.531  1.00  0.00     0.004 A 
HETATM   15  C   UNL     1      -6.743  -1.641 -33.974  1.00  0.00     0.043 A 
HETATM   16  C   UNL     1      -4.347  -1.830 -33.780  1.00  0.00     0.014 A 
HETATM   17  C   UNL     1      -6.829  -2.862 -34.653  1.00  0.00     0.030 A 
HETATM   18  N   UNL     1      -7.734  -0.757 -33.615  1.00  0.00    -0.364 N 
HETATM   19  C   UNL     1      -5.640  -3.560 -34.886  1.00  0.00     0.002 A 
HETATM   20  C   UNL     1      -4.416  -3.054 -34.457  1.00  0.00     0.001 A 
HETATM   21  H   UNL     1      -8.718  -0.887 -33.808  1.00  0.00     0.165 HD
HETATM   22  C   UNL     1      -7.195   0.316 -32.961  1.00  0.00     0.102 A 
ENDBRANCH  12  13
ENDBRANCH   8  11
ENDBRANCH   5   7
BRANCH   1  23
HETATM   23  C   UNL     1      -0.617   6.871 -29.349  1.00  0.00    -0.003 A 
HETATM   24  C   UNL     1      -1.422   7.120 -28.222  1.00  0.00     0.053 A 
HETATM   25  C   UNL     1      -0.948   7.872 -27.134  1.00  0.00     0.102 A 
HETATM   26  C   UNL     1       0.369   8.359 -27.168  1.00  0.00     0.102 A 
HETATM   27  C   UNL     1       1.164   8.144 -28.295  1.00  0.00     0.040 A 
HETATM   28  C   UNL     1       0.680   7.402 -29.372  1.00  0.00     0.017 A 
BRANCH  25  29
HETATM   29  O   UNL     1      -1.702   8.181 -26.033  1.00  0.00    -0.353 OA
HETATM   30  C   UNL     1      -2.592   9.284 -26.116  1.00  0.00     0.210 C 
ENDBRANCH  25  29
BRANCH  26  31
HETATM   31  O   UNL     1       0.969   9.112 -26.192  1.00  0.00    -0.349 OA
BRANCH  31  32
HETATM   32  C   UNL     1       2.157   8.543 -25.636  1.00  0.00     0.171 C 
HETATM   33  C   UNL     1       2.703   9.518 -24.608  1.00  0.00     0.034 C 
ENDBRANCH  31  32
ENDBRANCH  26  31
ENDBRANCH   1  23
TORSDOF 7
ENDMDL
MODEL 4
REMARK VINA RESULT:      -8.2      9.593     12.218
REMARK  7 active torsions:
REMARK  status: ('A' for Active; 'I' for Inactive)
REMARK    1  A    between atoms: C_2  and  O_3 
REMARK    2  A    between atoms: O_3  and  C_4 
REMARK    3  A    between atoms: C_5  and  O_6 
REMARK    4  A    between atoms: C_9  and  C_10 
REMARK    5  A    between atoms: C_14  and  C_15 
REMARK       I    between atoms: C_15  and  N_16 
REMARK    6  A    between atoms: N_16  and  N_17 
REMARK    7  A    between atoms: C_18  and  C_19 
ROOT
HETATM    1  C   UNL     1     -11.644   4.216 -34.284  1.00  0.00     0.089 A 
HETATM    2  N   UNL     1     -12.274   3.824 -33.166  1.00  0.00    -0.174 NA
HETATM    3  N   UNL     1     -11.644   2.704 -32.788  1.00  0.00    -0.272 N 
HETATM    4  H   UNL     1     -11.956   2.218 -31.951  1.00  0.00     0.189 HD
HETATM    5  C   UNL     1     -10.618   2.333 -33.609  1.00  0.00     0.121 A 
HETATM    6  C   UNL     1     -10.592   3.303 -34.593  1.00  0.00     0.071 A 
ENDROOT
BRANCH   5   7
HETATM    7  C   UNL     1      -9.842   1.146 -33.346  1.00  0.00     0.289 C 
HETATM    8  N   UNL     1      -8.475   1.300 -33.526  1.00  0.00    -0.242 N 
HETATM    9  H   UNL     1      -8.095   2.190 -33.815  1.00  0.00     0.192 HD
HETATM   10  O   UNL     1     -10.383   0.101 -32.993  1.00  0.00    -0.264 OA
BRANCH   8  11
HETATM   11  N   UNL     1      -7.628   0.245 -33.324  1.00  0.00    -0.183 NA
HETATM   12  C   UNL     1      -6.517   0.284 -33.985  1.00  0.00     0.152 C 
BRANCH  12  13
HETATM   13  C   UNL     1      -5.556  -0.788 -33.844  1.00  0.00     0.011 A 
HETATM   14  C   UNL     1      -5.724  -2.161 -34.222  1.00  0.00     0.004 A 
HETATM   15  C   UNL     1      -4.541  -2.829 -33.897  1.00  0.00     0.043 A 
HETATM   16  C   UNL     1      -6.772  -2.901 -34.809  1.00  0.00     0.014 A 
HETATM   17  C   UNL     1      -4.354  -4.197 -34.129  1.00  0.00     0.030 A 
HETATM   18  N   UNL     1      -3.688  -1.901 -33.346  1.00  0.00    -0.364 N 
HETATM   19  C   UNL     1      -5.409  -4.906 -34.713  1.00  0.00     0.002 A 
HETATM   20  C   UNL     1      -6.601  -4.270 -35.048  1.00  0.00     0.001 A 
HETATM   21  H   UNL     1      -2.754  -2.103 -33.017  1.00  0.00     0.165 HD
HETATM   22  C   UNL     1      -4.287  -0.673 -33.310  1.00  0.00     0.102 A 
ENDBRANCH  12  13
ENDBRANCH   8  11
ENDBRANCH   5   7
BRANCH   1  23
HETATM   23  C   UNL     1     -12.053   5.424 -35.017  1.00  0.00    -0.003 A 
HETATM   24  C   UNL     1     -11.139   6.456 -35.298  1.00  0.00     0.053 A 
HETATM   25  C   UNL     1     -11.528   7.607 -36.003  1.00  0.00     0.102 A 
HETATM   26  C   UNL     1     -12.854   7.711 -36.456  1.00  0.00     0.102 A 
HETATM   27  C   UNL     1     -13.775   6.707 -36.154  1.00  0.00     0.040 A 
HETATM   28  C   UNL     1     -13.379   5.571 -35.447  1.00  0.00     0.017 A 
BRANCH  25  29
HETATM   29  O   UNL     1     -10.692   8.660 -36.268  1.00  0.00    -0.353 OA
HETATM   30  C   UNL     1      -9.983   8.661 -37.499  1.00  0.00     0.210 C 
ENDBRANCH  25  29
BRANCH  26  31
HETATM   31  O   UNL     1     -13.384   8.771 -37.146  1.00  0.00    -0.349 OA
BRANCH  31  32
HETATM   32  C   UNL     1     -13.980   8.436 -38.401  1.00  0.00     0.171 C 
HETATM   33  C   UNL     1     -13.023   8.865 -39.500  1.00  0.00     0.034 C 
ENDBRANCH  31  32
ENDBRANCH  26  31
ENDBRANCH   1  23
TORSDOF 7
ENDMDL
MODEL 5
REMARK VINA RESULT:      -8.1      9.109     13.102
REMARK  7 active torsions:
REMARK  status: ('A' for Active; 'I' for Inactive)
REMARK    1  A    between atoms: C_2  and  O_3 
REMARK    2  A    between atoms: O_3  and  C_4 
REMARK    3  A    between atoms: C_5  and  O_6 
REMARK    4  A    between atoms: C_9  and  C_10 
REMARK    5  A    between atoms: C_14  and  C_15 
REMARK       I    between atoms: C_15  and  N_16 
REMARK    6  A    between atoms: N_16  and  N_17 
REMARK    7  A    between atoms: C_18  and  C_19 
ROOT
HETATM    1  C   UNL     1      -8.338   0.460 -32.977  1.00  0.00     0.089 A 
HETATM    2  N   UNL     1      -8.521   0.764 -31.682  1.00  0.00    -0.174 NA
HETATM    3  N   UNL     1      -9.595   1.565 -31.663  1.00  0.00    -0.272 N 
HETATM    4  H   UNL     1      -9.925   1.929 -30.772  1.00  0.00     0.189 HD
HETATM    5  C   UNL     1     -10.137   1.806 -32.893  1.00  0.00     0.121 A 
HETATM    6  C   UNL     1      -9.339   1.096 -33.769  1.00  0.00     0.071 A 
ENDROOT
BRANCH   5   7
HETATM    7  C   UNL     1     -11.293   2.654 -33.047  1.00  0.00     0.289 C 
HETATM    8  N   UNL     1     -12.506   2.020 -32.822  1.00  0.00    -0.242 N 
HETATM    9  H   UNL     1     -12.532   1.042 -32.569  1.00  0.00     0.192 HD
HETATM   10  O   UNL     1     -11.175   3.838 -33.353  1.00  0.00    -0.264 OA
BRANCH   8  11
HETATM   11  N   UNL     1     -13.681   2.709 -32.950  1.00  0.00    -0.183 NA
HETATM   12  C   UNL     1     -14.569   2.475 -32.039  1.00  0.00     0.152 C 
BRANCH  12  13
HETATM   13  C   UNL     1     -15.848   3.151 -32.089  1.00  0.00     0.011 A 
HETATM   14  C   UNL     1     -16.102   4.546 -31.882  1.00  0.00     0.004 A 
HETATM   15  C   UNL     1     -17.478   4.743 -32.023  1.00  0.00     0.043 A 
HETATM   16  C   UNL     1     -15.293   5.663 -31.585  1.00  0.00     0.014 A 
HETATM   17  C   UNL     1     -18.083   5.998 -31.883  1.00  0.00     0.030 A 
HETATM   18  N   UNL     1     -18.037   3.518 -32.305  1.00  0.00    -0.364 N 
HETATM   19  C   UNL     1     -17.257   7.087 -31.590  1.00  0.00     0.002 A 
HETATM   20  C   UNL     1     -15.882   6.925 -31.443  1.00  0.00     0.001 A 
HETATM   21  H   UNL     1     -19.024   3.358 -32.460  1.00  0.00     0.165 HD
HETATM   22  C   UNL     1     -17.067   2.556 -32.348  1.00  0.00     0.102 A 
ENDBRANCH  12  13
ENDBRANCH   8  11
ENDBRANCH   5   7
BRANCH   1  23
HETATM   23  C   UNL     1      -7.235  -0.408 -33.416  1.00  0.00    -0.003 A 
HETATM   24  C   UNL     1      -5.899  -0.123 -33.080  1.00  0.00     0.053 A 
HETATM   25  C   UNL     1      -4.845  -0.954 -33.493  1.00  0.00     0.102 A 
HETATM   26  C   UNL     1      -5.143  -2.109 -34.236  1.00  0.00     0.102 A 
HETATM   27  C   UNL     1      -6.462  -2.383 -34.601  1.00  0.00     0.040 A 
HETATM   28  C   UNL     1      -7.499  -1.546 -34.190  1.00  0.00     0.017 A 
BRANCH  25  29
HETATM   29  O   UNL     1      -3.524  -0.702 -33.231  1.00  0.00    -0.353 OA
HETATM   30  C   UNL     1      -2.990  -1.142 -31.990  1.00  0.00     0.210 C 
ENDBRANCH  25  29
BRANCH  26  31
HETATM   31  O   UNL     1      -4.227  -3.010 -34.717  1.00  0.00    -0.349 OA
BRANCH  31  32
HETATM   32  C   UNL     1      -4.464  -4.368 -34.340  1.00  0.00     0.171 C 
HETATM   33  C   UNL     1      -3.411  -4.757 -33.317  1.00  0.00     0.034 C 
ENDBRANCH  31  32
ENDBRANCH  26  31
ENDBRANCH   1  23
TORSDOF 7
ENDMDL
MODEL 6
REMARK VINA RESULT:      -8.0      9.706     12.312
REMARK  7 active torsions:
REMARK  status: ('A' for Active; 'I' for Inactive)
REMARK    1  A    between atoms: C_2  and  O_3 
REMARK    2  A    between atoms: O_3  and  C_4 
REMARK    3  A    between atoms: C_5  and  O_6 
REMARK    4  A    between atoms: C_9  and  C_10 
REMARK    5  A    between atoms: C_14  and  C_15 
REMARK       I    between atoms: C_15  and  N_16 
REMARK    6  A    between atoms: N_16  and  N_17 
REMARK    7  A    between atoms: C_18  and  C_19 
ROOT
HETATM    1  C   UNL     1     -11.398   4.191 -34.511  1.00  0.00     0.089 A 
HETATM    2  N   UNL     1     -12.256   3.501 -33.744  1.00  0.00    -0.174 NA
HETATM    3  N   UNL     1     -11.552   2.453 -33.295  1.00  0.00    -0.272 N 
HETATM    4  H   UNL     1     -12.005   1.776 -32.685  1.00  0.00     0.189 HD
HETATM    5  C   UNL     1     -10.259   2.417 -33.733  1.00  0.00     0.121 A 
HETATM    6  C   UNL     1     -10.129   3.541 -34.526  1.00  0.00     0.071 A 
ENDROOT
BRANCH   5   7
HETATM    7  C   UNL     1      -9.369   1.350 -33.346  1.00  0.00     0.289 C 
HETATM    8  N   UNL     1      -8.021   1.642 -33.495  1.00  0.00    -0.242 N 
HETATM    9  H   UNL     1      -7.729   2.543 -33.846  1.00  0.00     0.192 HD
HETATM   10  O   UNL     1      -9.805   0.283 -32.924  1.00  0.00    -0.264 OA
BRANCH   8  11
HETATM   11  N   UNL     1      -7.072   0.709 -33.179  1.00  0.00    -0.183 NA
HETATM   12  C   UNL     1      -6.578   0.052 -34.178  1.00  0.00     0.152 C 
BRANCH  12  13
HETATM   13  C   UNL     1      -5.571  -0.961 -33.946  1.00  0.00     0.011 A 
HETATM   14  C   UNL     1      -5.649  -2.354 -34.274  1.00  0.00     0.004 A 
HETATM   15  C   UNL     1      -4.451  -2.945 -33.866  1.00  0.00     0.043 A 
HETATM   16  C   UNL     1      -6.626  -3.172 -34.880  1.00  0.00     0.014 A 
HETATM   17  C   UNL     1      -4.182  -4.309 -34.032  1.00  0.00     0.030 A 
HETATM   18  N   UNL     1      -3.676  -1.953 -33.312  1.00  0.00    -0.364 N 
HETATM   19  C   UNL     1      -5.168  -5.096 -34.635  1.00  0.00     0.002 A 
HETATM   20  C   UNL     1      -6.373  -4.538 -35.054  1.00  0.00     0.001 A 
HETATM   21  H   UNL     1      -2.750  -2.091 -32.931  1.00  0.00     0.165 HD
HETATM   22  C   UNL     1      -4.338  -0.758 -33.357  1.00  0.00     0.102 A 
ENDBRANCH  12  13
ENDBRANCH   8  11
ENDBRANCH   5   7
BRANCH   1  23
HETATM   23  C   UNL     1     -11.804   5.426 -35.200  1.00  0.00    -0.003 A 
HETATM   24  C   UNL     1     -13.110   5.595 -35.695  1.00  0.00     0.053 A 
HETATM   25  C   UNL     1     -13.500   6.776 -36.347  1.00  0.00     0.102 A 
HETATM   26  C   UNL     1     -12.568   7.818 -36.481  1.00  0.00     0.102 A 
HETATM   27  C   UNL     1     -11.261   7.648 -36.021  1.00  0.00     0.040 A 
HETATM   28  C   UNL     1     -10.883   6.467 -35.381  1.00  0.00     0.017 A 
BRANCH  25  29
HETATM   29  O   UNL     1     -14.744   6.977 -36.885  1.00  0.00    -0.353 OA
HETATM   30  C   UNL     1     -15.778   7.443 -36.030  1.00  0.00     0.210 C 
ENDBRANCH  25  29
BRANCH  26  31
HETATM   31  O   UNL     1     -12.794   9.021 -37.098  1.00  0.00    -0.349 OA
BRANCH  31  32
HETATM   32  C   UNL     1     -12.014   9.252 -38.273  1.00  0.00     0.171 C 
HETATM   33  C   UNL     1     -12.860   8.867 -39.475  1.00  0.00     0.034 C 
ENDBRANCH  31  32
ENDBRANCH  26  31
ENDBRANCH   1  23
TORSDOF 7
ENDMDL
MODEL 7
REMARK VINA RESULT:      -8.0     10.050     12.975
REMARK  7 active torsions:
REMARK  status: ('A' for Active; 'I' for Inactive)
REMARK    1  A    between atoms: C_2  and  O_3 
REMARK    2  A    between atoms: O_3  and  C_4 
REMARK    3  A    between atoms: C_5  and  O_6 
REMARK    4  A    between atoms: C_9  and  C_10 
REMARK    5  A    between atoms: C_14  and  C_15 
REMARK       I    between atoms: C_15  and  N_16 
REMARK    6  A    between atoms: N_16  and  N_17 
REMARK    7  A    between atoms: C_18  and  C_19 
ROOT
HETATM    1  C   UNL     1      -8.609   0.094 -33.477  1.00  0.00     0.089 A 
HETATM    2  N   UNL     1      -9.599  -0.286 -32.654  1.00  0.00    -0.174 NA
HETATM    3  N   UNL     1     -10.581   0.601 -32.860  1.00  0.00    -0.272 N 
HETATM    4  H   UNL     1     -11.447   0.513 -32.334  1.00  0.00     0.189 HD
HETATM    5  C   UNL     1     -10.286   1.558 -33.789  1.00  0.00     0.121 A 
HETATM    6  C   UNL     1      -9.007   1.251 -34.210  1.00  0.00     0.071 A 
ENDROOT
BRANCH   5   7
HETATM    7  C   UNL     1     -11.234   2.593 -34.122  1.00  0.00     0.289 C 
HETATM    8  N   UNL     1     -10.881   3.367 -35.217  1.00  0.00    -0.242 N 
HETATM    9  H   UNL     1     -10.021   3.184 -35.716  1.00  0.00     0.192 HD
HETATM   10  O   UNL     1     -12.261   2.746 -33.466  1.00  0.00    -0.264 OA
BRANCH   8  11
HETATM   11  N   UNL     1     -11.687   4.392 -35.629  1.00  0.00    -0.183 NA
HETATM   12  C   UNL     1     -11.319   5.576 -35.260  1.00  0.00     0.152 C 
BRANCH  12  13
HETATM   13  C   UNL     1     -12.109   6.728 -35.641  1.00  0.00     0.011 A 
HETATM   14  C   UNL     1     -11.671   7.877 -36.377  1.00  0.00     0.004 A 
HETATM   15  C   UNL     1     -12.769   8.731 -36.506  1.00  0.00     0.043 A 
HETATM   16  C   UNL     1     -10.443   8.274 -36.947  1.00  0.00     0.014 A 
HETATM   17  C   UNL     1     -12.700   9.959 -37.174  1.00  0.00     0.030 A 
HETATM   18  N   UNL     1     -13.831   8.126 -35.875  1.00  0.00    -0.364 N 
HETATM   19  C   UNL     1     -11.471  10.328 -37.730  1.00  0.00     0.002 A 
HETATM   20  C   UNL     1     -10.358   9.499 -37.619  1.00  0.00     0.001 A 
HETATM   21  H   UNL     1     -14.761   8.518 -35.810  1.00  0.00     0.165 HD
HETATM   22  C   UNL     1     -13.446   6.923 -35.353  1.00  0.00     0.102 A 
ENDBRANCH  12  13
ENDBRANCH   8  11
ENDBRANCH   5   7
BRANCH   1  23
HETATM   23  C   UNL     1      -7.335  -0.637 -33.539  1.00  0.00    -0.003 A 
HETATM   24  C   UNL     1      -7.111  -1.641 -34.500  1.00  0.00     0.053 A 
HETATM   25  C   UNL     1      -5.893  -2.336 -34.564  1.00  0.00     0.102 A 
HETATM   26  C   UNL     1      -4.870  -1.998 -33.663  1.00  0.00     0.102 A 
HETATM   27  C   UNL     1      -5.093  -1.026 -32.686  1.00  0.00     0.040 A 
HETATM   28  C   UNL     1      -6.310  -0.347 -32.627  1.00  0.00     0.017 A 
BRANCH  25  29
HETATM   29  O   UNL     1      -5.637  -3.350 -35.450  1.00  0.00    -0.353 OA
HETATM   30  C   UNL     1      -6.446  -4.515 -35.388  1.00  0.00     0.210 C 
ENDBRANCH  25  29
BRANCH  26  31
HETATM   31  O   UNL     1      -3.634  -2.589 -33.595  1.00  0.00    -0.349 OA
BRANCH  31  32
HETATM   32  C   UNL     1      -3.502  -3.596 -32.588  1.00  0.00     0.171 C 
HETATM   33  C   UNL     1      -3.497  -4.948 -33.280  1.00  0.00     0.034 C 
ENDBRANCH  31  32
ENDBRANCH  26  31
ENDBRANCH   1  23
TORSDOF 7
ENDMDL
MODEL 8
REMARK VINA RESULT:      -7.9      2.249      3.159
REMARK  7 active torsions:
REMARK  status: ('A' for Active; 'I' for Inactive)
REMARK    1  A    between atoms: C_2  and  O_3 
REMARK    2  A    between atoms: O_3  and  C_4 
REMARK    3  A    between atoms: C_5  and  O_6 
REMARK    4  A    between atoms: C_9  and  C_10 
REMARK    5  A    between atoms: C_14  and  C_15 
REMARK       I    between atoms: C_15  and  N_16 
REMARK    6  A    between atoms: N_16  and  N_17 
REMARK    7  A    between atoms: C_18  and  C_19 
ROOT
HETATM    1  C   UNL     1      -2.154   7.795 -31.514  1.00  0.00     0.089 A 
HETATM    2  N   UNL     1      -1.711   8.228 -32.704  1.00  0.00    -0.174 NA
HETATM    3  N   UNL     1      -2.282   7.415 -33.603  1.00  0.00    -0.272 N 
HETATM    4  H   UNL     1      -2.087   7.552 -34.591  1.00  0.00     0.189 HD
HETATM    5  C   UNL     1      -3.091   6.457 -33.058  1.00  0.00     0.121 A 
HETATM    6  C   UNL     1      -3.028   6.683 -31.697  1.00  0.00     0.071 A 
ENDROOT
BRANCH   5   7
HETATM    7  C   UNL     1      -3.775   5.497 -33.888  1.00  0.00     0.289 C 
HETATM    8  N   UNL     1      -4.421   4.488 -33.189  1.00  0.00    -0.242 N 
HETATM    9  H   UNL     1      -4.392   4.467 -32.180  1.00  0.00     0.192 HD
HETATM   10  O   UNL     1      -3.766   5.597 -35.112  1.00  0.00    -0.264 OA
BRANCH   8  11
HETATM   11  N   UNL     1      -5.096   3.505 -33.859  1.00  0.00    -0.183 NA
HETATM   12  C   UNL     1      -5.660   2.607 -33.118  1.00  0.00     0.152 C 
BRANCH  12  13
HETATM   13  C   UNL     1      -6.393   1.521 -33.732  1.00  0.00     0.011 A 
HETATM   14  C   UNL     1      -5.970   0.160 -33.877  1.00  0.00     0.004 A 
HETATM   15  C   UNL     1      -6.996  -0.527 -34.532  1.00  0.00     0.043 A 
HETATM   16  C   UNL     1      -4.809  -0.557 -33.515  1.00  0.00     0.014 A 
HETATM   17  C   UNL     1      -6.919  -1.890 -34.841  1.00  0.00     0.030 A 
HETATM   18  N   UNL     1      -8.002   0.380 -34.774  1.00  0.00    -0.364 N 
HETATM   19  C   UNL     1      -5.758  -2.575 -34.470  1.00  0.00     0.002 A 
HETATM   20  C   UNL     1      -4.718  -1.921 -33.817  1.00  0.00     0.001 A 
HETATM   21  H   UNL     1      -8.874   0.162 -35.237  1.00  0.00     0.165 HD
HETATM   22  C   UNL     1      -7.650   1.612 -34.297  1.00  0.00     0.102 A 
ENDBRANCH  12  13
ENDBRANCH   8  11
ENDBRANCH   5   7
BRANCH   1  23
HETATM   23  C   UNL     1      -1.739   8.439 -30.258  1.00  0.00    -0.003 A 
HETATM   24  C   UNL     1      -0.752   7.868 -29.433  1.00  0.00     0.053 A 
HETATM   25  C   UNL     1      -0.351   8.484 -28.236  1.00  0.00     0.102 A 
HETATM   26  C   UNL     1      -0.932   9.710 -27.876  1.00  0.00     0.102 A 
HETATM   27  C   UNL     1      -1.935  10.268 -28.671  1.00  0.00     0.040 A 
HETATM   28  C   UNL     1      -2.330   9.643 -29.854  1.00  0.00     0.017 A 
BRANCH  25  29
HETATM   29  O   UNL     1       0.573   7.952 -27.376  1.00  0.00    -0.353 OA
HETATM   30  C   UNL     1       0.160   6.902 -26.513  1.00  0.00     0.210 C 
ENDBRANCH  25  29
BRANCH  26  31
HETATM   31  O   UNL     1      -0.653  10.426 -26.740  1.00  0.00    -0.349 OA
BRANCH  31  32
HETATM   32  C   UNL     1      -1.548  10.198 -25.648  1.00  0.00     0.171 C 
HETATM   33  C   UNL     1      -0.710   9.936 -24.408  1.00  0.00     0.034 C 
ENDBRANCH  31  32
ENDBRANCH  26  31
ENDBRANCH   1  23
TORSDOF 7
ENDMDL
MODEL 9
REMARK VINA RESULT:      -7.9      8.827     13.021
REMARK  7 active torsions:
REMARK  status: ('A' for Active; 'I' for Inactive)
REMARK    1  A    between atoms: C_2  and  O_3 
REMARK    2  A    between atoms: O_3  and  C_4 
REMARK    3  A    between atoms: C_5  and  O_6 
REMARK    4  A    between atoms: C_9  and  C_10 
REMARK    5  A    between atoms: C_14  and  C_15 
REMARK       I    between atoms: C_15  and  N_16 
REMARK    6  A    between atoms: N_16  and  N_17 
REMARK    7  A    between atoms: C_18  and  C_19 
ROOT
HETATM    1  C   UNL     1      -8.280   0.236 -33.066  1.00  0.00     0.089 A 
HETATM    2  N   UNL     1      -8.732   0.310 -31.805  1.00  0.00    -0.174 NA
HETATM    3  N   UNL     1      -9.752   1.177 -31.852  1.00  0.00    -0.272 N 
HETATM    4  H   UNL     1     -10.256   1.397 -30.997  1.00  0.00     0.189 HD
HETATM    5  C   UNL     1      -9.999   1.685 -33.096  1.00  0.00     0.121 A 
HETATM    6  C   UNL     1      -9.056   1.086 -33.909  1.00  0.00     0.071 A 
ENDROOT
BRANCH   5   7
HETATM    7  C   UNL     1     -11.058   2.637 -33.317  1.00  0.00     0.289 C 
HETATM    8  N   UNL     1     -12.240   2.350 -32.650  1.00  0.00    -0.242 N 
HETATM    9  H   UNL     1     -12.308   1.531 -32.062  1.00  0.00     0.192 HD
HETATM   10  O   UNL     1     -10.892   3.613 -34.045  1.00  0.00    -0.264 OA
BRANCH   8  11
HETATM   11  N   UNL     1     -13.329   3.166 -32.787  1.00  0.00    -0.183 NA
HETATM   12  C   UNL     1     -13.759   3.713 -31.697  1.00  0.00     0.152 C 
BRANCH  12  13
HETATM   13  C   UNL     1     -14.910   4.590 -31.736  1.00  0.00     0.011 A 
HETATM   14  C   UNL     1     -16.279   4.217 -31.935  1.00  0.00     0.004 A 
HETATM   15  C   UNL     1     -17.038   5.390 -31.901  1.00  0.00     0.043 A 
HETATM   16  C   UNL     1     -16.949   2.993 -32.142  1.00  0.00     0.014 A 
HETATM   17  C   UNL     1     -18.429   5.399 -32.063  1.00  0.00     0.030 A 
HETATM   18  N   UNL     1     -16.166   6.433 -31.689  1.00  0.00    -0.364 N 
HETATM   19  C   UNL     1     -19.066   4.171 -32.267  1.00  0.00     0.002 A 
HETATM   20  C   UNL     1     -18.339   2.984 -32.306  1.00  0.00     0.001 A 
HETATM   21  H   UNL     1     -16.438   7.404 -31.618  1.00  0.00     0.165 HD
HETATM   22  C   UNL     1     -14.886   5.963 -31.588  1.00  0.00     0.102 A 
ENDBRANCH  12  13
ENDBRANCH   8  11
ENDBRANCH   5   7
BRANCH   1  23
HETATM   23  C   UNL     1      -7.142  -0.623 -33.428  1.00  0.00    -0.003 A 
HETATM   24  C   UNL     1      -5.954  -0.622 -32.673  1.00  0.00     0.053 A 
HETATM   25  C   UNL     1      -4.869  -1.446 -33.014  1.00  0.00     0.102 A 
HETATM   26  C   UNL     1      -4.990  -2.307 -34.117  1.00  0.00     0.102 A 
HETATM   27  C   UNL     1      -6.152  -2.292 -34.890  1.00  0.00     0.040 A 
HETATM   28  C   UNL     1      -7.221  -1.464 -34.546  1.00  0.00     0.017 A 
BRANCH  25  29
HETATM   29  O   UNL     1      -3.675  -1.454 -32.342  1.00  0.00    -0.353 OA
HETATM   30  C   UNL     1      -3.344  -0.324 -31.548  1.00  0.00     0.210 C 
ENDBRANCH  25  29
BRANCH  26  31
HETATM   31  O   UNL     1      -4.020  -3.160 -34.578  1.00  0.00    -0.349 OA
BRANCH  31  32
HETATM   32  C   UNL     1      -4.283  -4.548 -34.356  1.00  0.00     0.171 C 
HETATM   33  C   UNL     1      -3.575  -4.957 -33.076  1.00  0.00     0.034 C 
ENDBRANCH  31  32
ENDBRANCH  26  31
ENDBRANCH   1  23
TORSDOF 7
ENDMDL
MODEL 10
REMARK VINA RESULT:      -7.8      1.904      2.971
REMARK  7 active torsions:
REMARK  status: ('A' for Active; 'I' for Inactive)
REMARK    1  A    between atoms: C_2  and  O_3 
REMARK    2  A    between atoms: O_3  and  C_4 
REMARK    3  A    between atoms: C_5  and  O_6 
REMARK    4  A    between atoms: C_9  and  C_10 
REMARK    5  A    between atoms: C_14  and  C_15 
REMARK       I    between atoms: C_15  and  N_16 
REMARK    6  A    between atoms: N_16  and  N_17 
REMARK    7  A    between atoms: C_18  and  C_19 
ROOT
HETATM    1  C   UNL     1      -1.509   7.403 -30.564  1.00  0.00     0.089 A 
HETATM    2  N   UNL     1      -1.446   7.921 -31.800  1.00  0.00    -0.174 NA
HETATM    3  N   UNL     1      -1.708   6.895 -32.620  1.00  0.00    -0.272 N 
HETATM    4  H   UNL     1      -1.713   7.051 -33.625  1.00  0.00     0.189 HD
HETATM    5  C   UNL     1      -1.945   5.712 -31.979  1.00  0.00     0.121 A 
HETATM    6  C   UNL     1      -1.824   6.014 -30.636  1.00  0.00     0.071 A 
ENDROOT
BRANCH   5   7
HETATM    7  C   UNL     1      -2.236   4.507 -32.716  1.00  0.00     0.289 C 
HETATM    8  N   UNL     1      -2.780   3.483 -31.956  1.00  0.00    -0.242 N 
HETATM    9  H   UNL     1      -2.946   3.614 -30.968  1.00  0.00     0.192 HD
HETATM   10  O   UNL     1      -2.007   4.431 -33.921  1.00  0.00    -0.264 OA
BRANCH   8  11
HETATM   11  N   UNL     1      -3.088   2.282 -32.532  1.00  0.00    -0.183 NA
HETATM   12  C   UNL     1      -3.455   1.347 -31.717  1.00  0.00     0.152 C 
BRANCH  12  13
HETATM   13  C   UNL     1      -3.796   0.037 -32.229  1.00  0.00     0.011 A 
HETATM   14  C   UNL     1      -4.857  -0.292 -33.135  1.00  0.00     0.004 A 
HETATM   15  C   UNL     1      -4.810  -1.672 -33.345  1.00  0.00     0.043 A 
HETATM   16  C   UNL     1      -5.856   0.453 -33.797  1.00  0.00     0.014 A 
HETATM   17  C   UNL     1      -5.710  -2.343 -34.182  1.00  0.00     0.030 A 
HETATM   18  N   UNL     1      -3.764  -2.163 -32.598  1.00  0.00    -0.364 N 
HETATM   19  C   UNL     1      -6.689  -1.581 -34.826  1.00  0.00     0.002 A 
HETATM   20  C   UNL     1      -6.763  -0.203 -34.638  1.00  0.00     0.001 A 
HETATM   21  H   UNL     1      -3.493  -3.136 -32.557  1.00  0.00     0.165 HD
HETATM   22  C   UNL     1      -3.148  -1.145 -31.925  1.00  0.00     0.102 A 
ENDBRANCH  12  13
ENDBRANCH   8  11
ENDBRANCH   5   7
BRANCH   1  23
HETATM   23  C   UNL     1      -1.269   8.228 -29.370  1.00  0.00    -0.003 A 
HETATM   24  C   UNL     1      -0.447   7.777 -28.320  1.00  0.00     0.053 A 
HETATM   25  C   UNL     1      -0.212   8.567 -27.183  1.00  0.00     0.102 A 
HETATM   26  C   UNL     1      -0.792   9.844 -27.111  1.00  0.00     0.102 A 
HETATM   27  C   UNL     1      -1.633  10.287 -28.132  1.00  0.00     0.040 A 
HETATM   28  C   UNL     1      -1.865   9.491 -29.255  1.00  0.00     0.017 A 
BRANCH  25  29
HETATM   29  O   UNL     1       0.543   8.161 -26.114  1.00  0.00    -0.353 OA
HETATM   30  C   UNL     1       1.951   8.337 -26.181  1.00  0.00     0.210 C 
ENDBRANCH  25  29
BRANCH  26  31
HETATM   31  O   UNL     1      -0.663  10.724 -26.067  1.00  0.00    -0.349 OA
BRANCH  31  32
HETATM   32  C   UNL     1      -1.768  10.748 -25.160  1.00  0.00     0.171 C 
HETATM   33  C   UNL     1      -1.300  10.159 -23.841  1.00  0.00     0.034 C 
ENDBRANCH  31  32
ENDBRANCH  26  31
ENDBRANCH   1  23
TORSDOF 7
ENDMDL
