MODEL 1
REMARK VINA RESULT:     -10.8      0.000      0.000
REMARK  6 active torsions:
REMARK  status: ('A' for Active; 'I' for Inactive)
REMARK    1  A    between atoms: C_11  and  N_12 
REMARK       I    between atoms: N_12  and  C_13 
REMARK    2  A    between atoms: C_13  and  C_14 
REMARK    3  A    between atoms: N_15  and  C_17 
REMARK    4  A    between atoms: C_17  and  C_18 
REMARK    5  A    between atoms: C_26  and  S_27 
REMARK    6  A    between atoms: S_27  and  C_28 
ROOT
HETATM    1  C   UNL     1      -5.279   1.590 -31.186  1.00  0.00     0.281 C 
HETATM    2  N   UNL     1      -4.202   0.959 -32.129  1.00  0.00    -0.053 N 
HETATM    3  H   UNL     1      -3.602   0.379 -31.525  1.00  0.00     0.281 HD
HETATM    4  C   UNL     1      -3.351   2.099 -32.654  1.00  0.00     0.252 C 
HETATM    5  C   UNL     1      -3.470   3.164 -31.579  1.00  0.00     0.083 C 
HETATM    6  C   UNL     1      -4.947   3.088 -31.220  1.00  0.00     0.060 C 
ENDROOT
BRANCH   1   7
HETATM    7  C   UNL     1      -6.767   1.294 -31.511  1.00  0.00     0.253 C 
HETATM    8  N   UNL     1      -7.362   2.184 -32.392  1.00  0.00    -0.325 N 
HETATM    9  H   UNL     1      -6.844   2.995 -32.707  1.00  0.00     0.169 HD
HETATM   10  O   UNL     1      -7.342   0.355 -30.967  1.00  0.00    -0.271 OA
BRANCH   8  11
HETATM   11  C   UNL     1      -8.647   2.061 -32.981  1.00  0.00     0.036 A 
HETATM   12  C   UNL     1      -9.785   2.736 -32.534  1.00  0.00     0.059 A 
HETATM   13  C   UNL     1     -11.060   2.527 -33.104  1.00  0.00     0.041 A 
HETATM   14  N   UNL     1     -12.137   3.220 -32.526  1.00  0.00    -0.355 N 
HETATM   15  C   UNL     1     -11.181   1.594 -34.137  1.00  0.00    -0.031 A 
HETATM   16  C   UNL     1     -13.529   3.020 -32.471  1.00  0.00     0.039 A 
HETATM   17  H   UNL     1     -11.845   4.058 -32.035  1.00  0.00     0.166 HD
HETATM   18  C   UNL     1     -14.210   1.915 -33.001  1.00  0.00    -0.031 A 
HETATM   19  C   UNL     1     -14.283   4.001 -31.788  1.00  0.00     0.030 A 
HETATM   20  C   UNL     1     -15.602   1.795 -32.793  1.00  0.00     0.009 A 
HETATM   21  C   UNL     1     -13.527   0.801 -33.754  1.00  0.00     0.045 C 
HETATM   22  C   UNL     1     -16.321   2.768 -32.104  1.00  0.00     0.001 A 
HETATM   23  C   UNL     1     -15.662   3.880 -31.608  1.00  0.00     0.002 A 
HETATM   24  C   UNL     1     -12.509   1.293 -34.777  1.00  0.00     0.045 C 
HETATM   25  C   UNL     1     -10.032   0.941 -34.618  1.00  0.00     0.012 A 
HETATM   26  C   UNL     1      -8.779   1.173 -34.046  1.00  0.00     0.030 A 
ENDBRANCH   8  11
ENDBRANCH   1   7
BRANCH   2  27
HETATM   27  C   UNL     1      -4.652   0.003 -33.213  1.00  0.00     0.277 C 
BRANCH  27  28
HETATM   28  C   UNL     1      -4.148  -1.400 -33.008  1.00  0.00     0.006 A 
HETATM   29  C   UNL     1      -4.496  -2.398 -33.922  1.00  0.00     0.124 A 
HETATM   30  F   UNL     1      -5.308  -2.087 -34.943  1.00  0.00    -0.206 F 
HETATM   31  C   UNL     1      -4.058  -3.709 -33.771  1.00  0.00     0.043 A 
HETATM   32  C   UNL     1      -3.256  -4.039 -32.682  1.00  0.00     0.003 A 
HETATM   33  C   UNL     1      -2.900  -3.057 -31.754  1.00  0.00     0.001 A 
HETATM   34  C   UNL     1      -3.341  -1.741 -31.915  1.00  0.00     0.012 A 
ENDBRANCH  27  28
ENDBRANCH   2  27
BRANCH   5  35
HETATM   35  S   UNL     1      -3.053   4.837 -32.150  1.00  0.00    -0.084 SA
BRANCH  35  36
HETATM   36  C   UNL     1      -1.790   5.270 -30.979  1.00  0.00     0.188 A 
HETATM   37  N   UNL     1      -0.672   4.524 -30.944  1.00  0.00    -0.235 NA
HETATM   38  C   UNL     1       0.262   4.906 -30.047  1.00  0.00     0.121 A 
HETATM   39  C   UNL     1       0.130   6.005 -29.232  1.00  0.00     0.038 A 
HETATM   40  C   UNL     1      -1.038   6.712 -29.377  1.00  0.00     0.121 A 
HETATM   41  N   UNL     1      -2.005   6.371 -30.248  1.00  0.00    -0.235 NA
ENDBRANCH  35  36
ENDBRANCH   5  35
TORSDOF 6
ENDMDL
MODEL 2
REMARK VINA RESULT:     -10.5      1.758      2.369
REMARK  6 active torsions:
REMARK  status: ('A' for Active; 'I' for Inactive)
REMARK    1  A    between atoms: C_11  and  N_12 
REMARK       I    between atoms: N_12  and  C_13 
REMARK    2  A    between atoms: C_13  and  C_14 
REMARK    3  A    between atoms: N_15  and  C_17 
REMARK    4  A    between atoms: C_17  and  C_18 
REMARK    5  A    between atoms: C_26  and  S_27 
REMARK    6  A    between atoms: S_27  and  C_28 
ROOT
HETATM    1  C   UNL     1      -5.328   1.072 -31.059  1.00  0.00     0.281 C 
HETATM    2  N   UNL     1      -4.249   0.484 -32.027  1.00  0.00    -0.053 N 
HETATM    3  H   UNL     1      -3.694  -0.177 -31.465  1.00  0.00     0.281 HD
HETATM    4  C   UNL     1      -3.334   1.627 -32.418  1.00  0.00     0.252 C 
HETATM    5  C   UNL     1      -3.441   2.592 -31.249  1.00  0.00     0.083 C 
HETATM    6  C   UNL     1      -4.931   2.549 -30.940  1.00  0.00     0.060 C 
ENDROOT
BRANCH   1   7
HETATM    7  C   UNL     1      -6.816   0.877 -31.452  1.00  0.00     0.253 C 
HETATM    8  N   UNL     1      -7.331   1.848 -32.296  1.00  0.00    -0.325 N 
HETATM    9  H   UNL     1      -6.761   2.649 -32.542  1.00  0.00     0.169 HD
HETATM   10  O   UNL     1      -7.459  -0.061 -30.988  1.00  0.00    -0.271 OA
BRANCH   8  11
HETATM   11  C   UNL     1      -8.598   1.831 -32.934  1.00  0.00     0.036 A 
HETATM   12  C   UNL     1      -9.734   2.483 -32.449  1.00  0.00     0.059 A 
HETATM   13  C   UNL     1     -10.993   2.377 -33.078  1.00  0.00     0.041 A 
HETATM   14  N   UNL     1     -12.072   3.031 -32.459  1.00  0.00    -0.355 N 
HETATM   15  C   UNL     1     -11.102   1.572 -34.215  1.00  0.00    -0.031 A 
HETATM   16  C   UNL     1     -13.469   2.866 -32.470  1.00  0.00     0.039 A 
HETATM   17  H   UNL     1     -11.776   3.798 -31.866  1.00  0.00     0.166 HD
HETATM   18  C   UNL     1     -14.159   1.848 -33.145  1.00  0.00    -0.031 A 
HETATM   19  C   UNL     1     -14.221   3.783 -31.703  1.00  0.00     0.030 A 
HETATM   20  C   UNL     1     -15.560   1.745 -32.995  1.00  0.00     0.009 A 
HETATM   21  C   UNL     1     -13.479   0.809 -33.999  1.00  0.00     0.045 C 
HETATM   22  C   UNL     1     -16.278   2.654 -32.222  1.00  0.00     0.001 A 
HETATM   23  C   UNL     1     -15.608   3.682 -31.581  1.00  0.00     0.002 A 
HETATM   24  C   UNL     1     -12.415   1.384 -34.927  1.00  0.00     0.045 C 
HETATM   25  C   UNL     1      -9.954   0.945 -34.732  1.00  0.00     0.012 A 
HETATM   26  C   UNL     1      -8.716   1.074 -34.099  1.00  0.00     0.030 A 
ENDBRANCH   8  11
ENDBRANCH   1   7
BRANCH   2  27
HETATM   27  C   UNL     1      -4.706  -0.344 -33.210  1.00  0.00     0.277 C 
BRANCH  27  28
HETATM   28  C   UNL     1      -4.238  -1.773 -33.144  1.00  0.00     0.006 A 
HETATM   29  C   UNL     1      -4.632  -2.674 -34.137  1.00  0.00     0.124 A 
HETATM   30  F   UNL     1      -5.455  -2.249 -35.108  1.00  0.00    -0.206 F 
HETATM   31  C   UNL     1      -4.229  -4.004 -34.116  1.00  0.00     0.043 A 
HETATM   32  C   UNL     1      -3.416  -4.454 -33.078  1.00  0.00     0.003 A 
HETATM   33  C   UNL     1      -3.014  -3.571 -32.073  1.00  0.00     0.001 A 
HETATM   34  C   UNL     1      -3.419  -2.234 -32.105  1.00  0.00     0.012 A 
ENDBRANCH  27  28
ENDBRANCH   2  27
BRANCH   5  35
HETATM   35  S   UNL     1      -2.935   4.290 -31.645  1.00  0.00    -0.084 SA
BRANCH  35  36
HETATM   36  C   UNL     1      -4.495   4.985 -32.131  1.00  0.00     0.188 A 
HETATM   37  N   UNL     1      -5.075   5.879 -31.311  1.00  0.00    -0.235 NA
HETATM   38  C   UNL     1      -6.252   6.387 -31.736  1.00  0.00     0.121 A 
HETATM   39  C   UNL     1      -6.831   6.066 -32.941  1.00  0.00     0.038 A 
HETATM   40  C   UNL     1      -6.132   5.168 -33.711  1.00  0.00     0.121 A 
HETATM   41  N   UNL     1      -4.961   4.624 -33.332  1.00  0.00    -0.235 NA
ENDBRANCH  35  36
ENDBRANCH   5  35
TORSDOF 6
ENDMDL
MODEL 3
REMARK VINA RESULT:     -10.5      1.737      2.294
REMARK  6 active torsions:
REMARK  status: ('A' for Active; 'I' for Inactive)
REMARK    1  A    between atoms: C_11  and  N_12 
REMARK       I    between atoms: N_12  and  C_13 
REMARK    2  A    between atoms: C_13  and  C_14 
REMARK    3  A    between atoms: N_15  and  C_17 
REMARK    4  A    between atoms: C_17  and  C_18 
REMARK    5  A    between atoms: C_26  and  S_27 
REMARK    6  A    between atoms: S_27  and  C_28 
ROOT
HETATM    1  C   UNL     1      -6.639   1.842 -31.370  1.00  0.00     0.281 C 
HETATM    2  N   UNL     1      -5.646   1.700 -32.570  1.00  0.00    -0.053 N 
HETATM    3  H   UNL     1      -4.917   1.042 -32.259  1.00  0.00     0.281 HD
HETATM    4  C   UNL     1      -4.986   3.052 -32.761  1.00  0.00     0.252 C 
HETATM    5  C   UNL     1      -5.057   3.686 -31.382  1.00  0.00     0.083 C 
HETATM    6  C   UNL     1      -6.457   3.300 -30.928  1.00  0.00     0.060 C 
ENDROOT
BRANCH   1   7
HETATM    7  C   UNL     1      -8.123   1.470 -31.629  1.00  0.00     0.253 C 
HETATM    8  N   UNL     1      -8.876   2.459 -32.241  1.00  0.00    -0.325 N 
HETATM    9  H   UNL     1      -8.462   3.368 -32.411  1.00  0.00     0.169 HD
HETATM   10  O   UNL     1      -8.560   0.383 -31.260  1.00  0.00    -0.271 OA
BRANCH   8  11
HETATM   11  C   UNL     1     -10.200   2.332 -32.735  1.00  0.00     0.036 A 
HETATM   12  C   UNL     1     -11.257   3.173 -32.379  1.00  0.00     0.059 A 
HETATM   13  C   UNL     1     -12.576   2.964 -32.838  1.00  0.00     0.041 A 
HETATM   14  N   UNL     1     -13.563   3.842 -32.360  1.00  0.00    -0.355 N 
HETATM   15  C   UNL     1     -12.826   1.863 -33.661  1.00  0.00    -0.031 A 
HETATM   16  C   UNL     1     -14.960   3.773 -32.204  1.00  0.00     0.039 A 
HETATM   17  H   UNL     1     -13.182   4.732 -32.057  1.00  0.00     0.166 HD
HETATM   18  C   UNL     1     -15.750   2.647 -32.475  1.00  0.00    -0.031 A 
HETATM   19  C   UNL     1     -15.598   4.926 -31.694  1.00  0.00     0.030 A 
HETATM   20  C   UNL     1     -17.132   2.684 -32.183  1.00  0.00     0.009 A 
HETATM   21  C   UNL     1     -15.196   1.356 -33.024  1.00  0.00     0.045 C 
HETATM   22  C   UNL     1     -17.736   3.828 -31.668  1.00  0.00     0.001 A 
HETATM   23  C   UNL     1     -16.969   4.956 -31.431  1.00  0.00     0.002 A 
HETATM   24  C   UNL     1     -14.210   1.555 -34.169  1.00  0.00     0.045 C 
HETATM   25  C   UNL     1     -11.759   1.037 -34.056  1.00  0.00     0.012 A 
HETATM   26  C   UNL     1     -10.460   1.270 -33.598  1.00  0.00     0.030 A 
ENDBRANCH   8  11
ENDBRANCH   1   7
BRANCH   2  27
HETATM   27  C   UNL     1      -6.148   1.095 -33.864  1.00  0.00     0.277 C 
BRANCH  27  28
HETATM   28  C   UNL     1      -5.771  -0.353 -34.022  1.00  0.00     0.006 A 
HETATM   29  C   UNL     1      -6.582  -1.197 -34.785  1.00  0.00     0.124 A 
HETATM   30  F   UNL     1      -7.705  -0.702 -35.328  1.00  0.00    -0.206 F 
HETATM   31  C   UNL     1      -6.277  -2.543 -34.956  1.00  0.00     0.043 A 
HETATM   32  C   UNL     1      -5.138  -3.066 -34.349  1.00  0.00     0.003 A 
HETATM   33  C   UNL     1      -4.316  -2.240 -33.579  1.00  0.00     0.001 A 
HETATM   34  C   UNL     1      -4.627  -0.888 -33.416  1.00  0.00     0.012 A 
ENDBRANCH  27  28
ENDBRANCH   2  27
BRANCH   5  35
HETATM   35  S   UNL     1      -4.881   5.494 -31.393  1.00  0.00    -0.084 SA
BRANCH  35  36
HETATM   36  C   UNL     1      -3.423   5.668 -32.392  1.00  0.00     0.188 A 
HETATM   37  N   UNL     1      -2.276   5.134 -31.940  1.00  0.00    -0.235 NA
HETATM   38  C   UNL     1      -1.202   5.283 -32.746  1.00  0.00     0.121 A 
HETATM   39  C   UNL     1      -1.250   5.900 -33.974  1.00  0.00     0.038 A 
HETATM   40  C   UNL     1      -2.483   6.378 -34.347  1.00  0.00     0.121 A 
HETATM   41  N   UNL     1      -3.582   6.265 -33.579  1.00  0.00    -0.235 NA
ENDBRANCH  35  36
ENDBRANCH   5  35
TORSDOF 6
ENDMDL
MODEL 4
REMARK VINA RESULT:     -10.4      1.518      2.016
REMARK  6 active torsions:
REMARK  status: ('A' for Active; 'I' for Inactive)
REMARK    1  A    between atoms: C_11  and  N_12 
REMARK       I    between atoms: N_12  and  C_13 
REMARK    2  A    between atoms: C_13  and  C_14 
REMARK    3  A    between atoms: N_15  and  C_17 
REMARK    4  A    between atoms: C_17  and  C_18 
REMARK    5  A    between atoms: C_26  and  S_27 
REMARK    6  A    between atoms: S_27  and  C_28 
ROOT
HETATM    1  C   UNL     1      -5.915   3.209 -30.539  1.00  0.00     0.281 C 
HETATM    2  N   UNL     1      -5.004   1.948 -30.384  1.00  0.00    -0.053 N 
HETATM    3  H   UNL     1      -4.607   2.000 -29.434  1.00  0.00     0.281 HD
HETATM    4  C   UNL     1      -3.859   2.104 -31.364  1.00  0.00     0.252 C 
HETATM    5  C   UNL     1      -3.737   3.608 -31.541  1.00  0.00     0.083 C 
HETATM    6  C   UNL     1      -5.196   4.037 -31.613  1.00  0.00     0.060 C 
ENDROOT
BRANCH   1   7
HETATM    7  C   UNL     1      -7.413   2.968 -30.866  1.00  0.00     0.253 C 
HETATM    8  N   UNL     1      -7.737   3.041 -32.212  1.00  0.00    -0.325 N 
HETATM    9  H   UNL     1      -7.028   3.315 -32.881  1.00  0.00     0.169 HD
HETATM   10  O   UNL     1      -8.219   2.774 -29.959  1.00  0.00    -0.271 OA
BRANCH   8  11
HETATM   11  C   UNL     1      -8.983   2.707 -32.801  1.00  0.00     0.036 A 
HETATM   12  C   UNL     1     -10.193   3.333 -32.494  1.00  0.00     0.059 A 
HETATM   13  C   UNL     1     -11.422   2.918 -33.051  1.00  0.00     0.041 A 
HETATM   14  N   UNL     1     -12.578   3.589 -32.616  1.00  0.00    -0.355 N 
HETATM   15  C   UNL     1     -11.421   1.827 -33.924  1.00  0.00    -0.031 A 
HETATM   16  C   UNL     1     -13.947   3.270 -32.561  1.00  0.00     0.039 A 
HETATM   17  H   UNL     1     -12.380   4.517 -32.259  1.00  0.00     0.166 HD
HETATM   18  C   UNL     1     -14.506   2.036 -32.922  1.00  0.00    -0.031 A 
HETATM   19  C   UNL     1     -14.811   4.270 -32.060  1.00  0.00     0.030 A 
HETATM   20  C   UNL     1     -15.889   1.819 -32.728  1.00  0.00     0.009 A 
HETATM   21  C   UNL     1     -13.699   0.887 -33.472  1.00  0.00     0.045 C 
HETATM   22  C   UNL     1     -16.717   2.816 -32.220  1.00  0.00     0.001 A 
HETATM   23  C   UNL     1     -16.179   4.050 -31.894  1.00  0.00     0.002 A 
HETATM   24  C   UNL     1     -12.693   1.305 -34.538  1.00  0.00     0.045 C 
HETATM   25  C   UNL     1     -10.201   1.218 -34.269  1.00  0.00     0.012 A 
HETATM   26  C   UNL     1      -8.996   1.654 -33.714  1.00  0.00     0.030 A 
ENDBRANCH   8  11
ENDBRANCH   1   7
BRANCH   2  27
HETATM   27  C   UNL     1      -5.645   0.576 -30.430  1.00  0.00     0.277 C 
BRANCH  27  28
HETATM   28  C   UNL     1      -5.387  -0.151 -31.722  1.00  0.00     0.006 A 
HETATM   29  C   UNL     1      -4.217  -0.902 -31.869  1.00  0.00     0.124 A 
HETATM   30  F   UNL     1      -3.330  -0.923 -30.863  1.00  0.00    -0.206 F 
HETATM   31  C   UNL     1      -3.934  -1.587 -33.045  1.00  0.00     0.043 A 
HETATM   32  C   UNL     1      -4.834  -1.521 -34.105  1.00  0.00     0.003 A 
HETATM   33  C   UNL     1      -6.007  -0.773 -33.981  1.00  0.00     0.001 A 
HETATM   34  C   UNL     1      -6.286  -0.092 -32.794  1.00  0.00     0.012 A 
ENDBRANCH  27  28
ENDBRANCH   2  27
BRANCH   5  35
HETATM   35  S   UNL     1      -2.866   4.105 -33.055  1.00  0.00    -0.084 SA
BRANCH  35  36
HETATM   36  C   UNL     1      -1.576   5.112 -32.366  1.00  0.00     0.188 A 
HETATM   37  N   UNL     1      -1.434   6.366 -32.828  1.00  0.00    -0.235 NA
HETATM   38  C   UNL     1      -0.448   7.094 -32.260  1.00  0.00     0.121 A 
HETATM   39  C   UNL     1       0.353   6.628 -31.244  1.00  0.00     0.038 A 
HETATM   40  C   UNL     1       0.096   5.344 -30.829  1.00  0.00     0.121 A 
HETATM   41  N   UNL     1      -0.867   4.573 -31.367  1.00  0.00    -0.235 NA
ENDBRANCH  35  36
ENDBRANCH   5  35
TORSDOF 6
ENDMDL
MODEL 5
REMARK VINA RESULT:     -10.1      5.025      8.200
REMARK  6 active torsions:
REMARK  status: ('A' for Active; 'I' for Inactive)
REMARK    1  A    between atoms: C_11  and  N_12 
REMARK       I    between atoms: N_12  and  C_13 
REMARK    2  A    between atoms: C_13  and  C_14 
REMARK    3  A    between atoms: N_15  and  C_17 
REMARK    4  A    between atoms: C_17  and  C_18 
REMARK    5  A    between atoms: C_26  and  S_27 
REMARK    6  A    between atoms: S_27  and  C_28 
ROOT
HETATM    1  C   UNL     1      -1.115   5.600 -31.790  1.00  0.00     0.281 C 
HETATM    2  N   UNL     1      -1.743   6.975 -31.387  1.00  0.00    -0.053 N 
HETATM    3  H   UNL     1      -1.310   7.676 -32.006  1.00  0.00     0.281 HD
HETATM    4  C   UNL     1      -1.285   7.274 -29.974  1.00  0.00     0.252 C 
HETATM    5  C   UNL     1       0.026   6.517 -29.851  1.00  0.00     0.083 C 
HETATM    6  C   UNL     1      -0.299   5.206 -30.553  1.00  0.00     0.060 C 
ENDROOT
BRANCH   1   7
HETATM    7  C   UNL     1      -2.088   4.483 -32.252  1.00  0.00     0.253 C 
HETATM    8  N   UNL     1      -2.624   3.714 -31.231  1.00  0.00    -0.325 N 
HETATM    9  H   UNL     1      -2.307   3.859 -30.279  1.00  0.00     0.169 HD
HETATM   10  O   UNL     1      -2.302   4.307 -33.449  1.00  0.00    -0.271 OA
BRANCH   8  11
HETATM   11  C   UNL     1      -3.652   2.744 -31.351  1.00  0.00     0.036 A 
HETATM   12  C   UNL     1      -3.473   1.471 -31.897  1.00  0.00     0.059 A 
HETATM   13  C   UNL     1      -4.541   0.563 -32.064  1.00  0.00     0.041 A 
HETATM   14  N   UNL     1      -4.244  -0.664 -32.681  1.00  0.00    -0.355 N 
HETATM   15  C   UNL     1      -5.823   0.970 -31.688  1.00  0.00    -0.031 A 
HETATM   16  C   UNL     1      -4.989  -1.621 -33.395  1.00  0.00     0.039 A 
HETATM   17  H   UNL     1      -3.266  -0.919 -32.593  1.00  0.00     0.166 HD
HETATM   18  C   UNL     1      -6.346  -1.505 -33.729  1.00  0.00    -0.031 A 
HETATM   19  C   UNL     1      -4.290  -2.766 -33.838  1.00  0.00     0.030 A 
HETATM   20  C   UNL     1      -6.948  -2.500 -34.532  1.00  0.00     0.009 A 
HETATM   21  C   UNL     1      -7.206  -0.338 -33.318  1.00  0.00     0.045 C 
HETATM   22  C   UNL     1      -6.234  -3.613 -34.968  1.00  0.00     0.001 A 
HETATM   23  C   UNL     1      -4.903  -3.752 -34.612  1.00  0.00     0.002 A 
HETATM   24  C   UNL     1      -7.019   0.073 -31.861  1.00  0.00     0.045 C 
HETATM   25  C   UNL     1      -6.004   2.235 -31.101  1.00  0.00     0.012 A 
HETATM   26  C   UNL     1      -4.930   3.112 -30.934  1.00  0.00     0.030 A 
ENDBRANCH   8  11
ENDBRANCH   1   7
BRANCH   2  27
HETATM   27  C   UNL     1      -3.229   7.185 -31.589  1.00  0.00     0.277 C 
BRANCH  27  28
HETATM   28  C   UNL     1      -3.961   7.477 -30.308  1.00  0.00     0.006 A 
HETATM   29  C   UNL     1      -4.175   8.804 -29.923  1.00  0.00     0.124 A 
HETATM   30  F   UNL     1      -3.683   9.788 -30.690  1.00  0.00    -0.206 F 
HETATM   31  C   UNL     1      -4.842   9.123 -28.746  1.00  0.00     0.043 A 
HETATM   32  C   UNL     1      -5.307   8.097 -27.927  1.00  0.00     0.003 A 
HETATM   33  C   UNL     1      -5.101   6.765 -28.290  1.00  0.00     0.001 A 
HETATM   34  C   UNL     1      -4.433   6.452 -29.477  1.00  0.00     0.012 A 
ENDBRANCH  27  28
ENDBRANCH   2  27
BRANCH   5  35
HETATM   35  S   UNL     1       0.535   6.197 -28.137  1.00  0.00    -0.084 SA
BRANCH  35  36
HETATM   36  C   UNL     1      -0.538   7.315 -27.270  1.00  0.00     0.188 A 
HETATM   37  N   UNL     1      -1.578   6.801 -26.591  1.00  0.00    -0.235 NA
HETATM   38  C   UNL     1      -2.352   7.694 -25.938  1.00  0.00     0.121 A 
HETATM   39  C   UNL     1      -2.101   9.045 -25.912  1.00  0.00     0.038 A 
HETATM   40  C   UNL     1      -0.992   9.454 -26.613  1.00  0.00     0.121 A 
HETATM   41  N   UNL     1      -0.193   8.608 -27.289  1.00  0.00    -0.235 NA
ENDBRANCH  35  36
ENDBRANCH   5  35
TORSDOF 6
ENDMDL
MODEL 6
REMARK VINA RESULT:     -10.1      2.528     10.190
REMARK  6 active torsions:
REMARK  status: ('A' for Active; 'I' for Inactive)
REMARK    1  A    between atoms: C_11  and  N_12 
REMARK       I    between atoms: N_12  and  C_13 
REMARK    2  A    between atoms: C_13  and  C_14 
REMARK    3  A    between atoms: N_15  and  C_17 
REMARK    4  A    between atoms: C_17  and  C_18 
REMARK    5  A    between atoms: C_26  and  S_27 
REMARK    6  A    between atoms: S_27  and  C_28 
ROOT
HETATM    1  C   UNL     1      -7.934   2.879 -33.510  1.00  0.00     0.281 C 
HETATM    2  N   UNL     1      -8.249   1.484 -32.876  1.00  0.00    -0.053 N 
HETATM    3  H   UNL     1      -8.254   0.812 -33.657  1.00  0.00     0.281 HD
HETATM    4  C   UNL     1      -9.661   1.555 -32.329  1.00  0.00     0.252 C 
HETATM    5  C   UNL     1     -10.328   2.616 -33.186  1.00  0.00     0.083 C 
HETATM    6  C   UNL     1      -9.233   3.667 -33.297  1.00  0.00     0.060 C 
ENDROOT
BRANCH   1   7
HETATM    7  C   UNL     1      -6.680   3.629 -32.989  1.00  0.00     0.253 C 
HETATM    8  N   UNL     1      -5.569   3.557 -33.816  1.00  0.00    -0.325 N 
HETATM    9  H   UNL     1      -5.602   2.976 -34.645  1.00  0.00     0.169 HD
HETATM   10  O   UNL     1      -6.707   4.194 -31.899  1.00  0.00    -0.271 OA
BRANCH   8  11
HETATM   11  C   UNL     1      -4.355   4.274 -33.667  1.00  0.00     0.036 A 
HETATM   12  C   UNL     1      -3.532   4.204 -32.541  1.00  0.00     0.059 A 
HETATM   13  C   UNL     1      -2.369   4.993 -32.404  1.00  0.00     0.041 A 
HETATM   14  N   UNL     1      -1.658   4.877 -31.198  1.00  0.00    -0.355 N 
HETATM   15  C   UNL     1      -2.050   5.888 -33.429  1.00  0.00    -0.031 A 
HETATM   16  C   UNL     1      -0.768   5.704 -30.488  1.00  0.00     0.039 A 
HETATM   17  H   UNL     1      -1.825   3.993 -30.729  1.00  0.00     0.166 HD
HETATM   18  C   UNL     1      -0.404   7.007 -30.858  1.00  0.00    -0.031 A 
HETATM   19  C   UNL     1      -0.238   5.182 -29.287  1.00  0.00     0.030 A 
HETATM   20  C   UNL     1       0.429   7.762 -30.002  1.00  0.00     0.009 A 
HETATM   21  C   UNL     1      -0.894   7.682 -32.114  1.00  0.00     0.045 C 
HETATM   22  C   UNL     1       0.928   7.229 -28.816  1.00  0.00     0.001 A 
HETATM   23  C   UNL     1       0.601   5.931 -28.462  1.00  0.00     0.002 A 
HETATM   24  C   UNL     1      -0.843   6.785 -33.346  1.00  0.00     0.045 C 
HETATM   25  C   UNL     1      -2.852   5.934 -34.583  1.00  0.00     0.012 A 
HETATM   26  C   UNL     1      -3.991   5.135 -34.701  1.00  0.00     0.030 A 
ENDBRANCH   8  11
ENDBRANCH   1   7
BRANCH   2  27
HETATM   27  C   UNL     1      -7.259   0.889 -31.897  1.00  0.00     0.277 C 
BRANCH  27  28
HETATM   28  C   UNL     1      -6.370  -0.154 -32.518  1.00  0.00     0.006 A 
HETATM   29  C   UNL     1      -5.109  -0.400 -31.969  1.00  0.00     0.124 A 
HETATM   30  F   UNL     1      -4.704   0.332 -30.921  1.00  0.00    -0.206 F 
HETATM   31  C   UNL     1      -4.251  -1.350 -32.512  1.00  0.00     0.043 A 
HETATM   32  C   UNL     1      -4.654  -2.073 -33.631  1.00  0.00     0.003 A 
HETATM   33  C   UNL     1      -5.909  -1.839 -34.198  1.00  0.00     0.001 A 
HETATM   34  C   UNL     1      -6.768  -0.886 -33.644  1.00  0.00     0.012 A 
ENDBRANCH  27  28
ENDBRANCH   2  27
BRANCH   5  35
HETATM   35  S   UNL     1     -11.815   3.342 -32.436  1.00  0.00    -0.084 SA
BRANCH  35  36
HETATM   36  C   UNL     1     -13.070   2.306 -33.147  1.00  0.00     0.188 A 
HETATM   37  N   UNL     1     -12.710   1.439 -34.108  1.00  0.00    -0.235 NA
HETATM   38  C   UNL     1     -13.700   0.665 -34.603  1.00  0.00     0.121 A 
HETATM   39  C   UNL     1     -14.997   0.705 -34.148  1.00  0.00     0.038 A 
HETATM   40  C   UNL     1     -15.243   1.605 -33.140  1.00  0.00     0.121 A 
HETATM   41  N   UNL     1     -14.296   2.406 -32.618  1.00  0.00    -0.235 NA
ENDBRANCH  35  36
ENDBRANCH   5  35
TORSDOF 6
ENDMDL
MODEL 7
REMARK VINA RESULT:      -9.8      2.721      9.840
REMARK  6 active torsions:
REMARK  status: ('A' for Active; 'I' for Inactive)
REMARK    1  A    between atoms: C_11  and  N_12 
REMARK       I    between atoms: N_12  and  C_13 
REMARK    2  A    between atoms: C_13  and  C_14 
REMARK    3  A    between atoms: N_15  and  C_17 
REMARK    4  A    between atoms: C_17  and  C_18 
REMARK    5  A    between atoms: C_26  and  S_27 
REMARK    6  A    between atoms: S_27  and  C_28 
ROOT
HETATM    1  C   UNL     1      -7.048   0.582 -31.778  1.00  0.00     0.281 C 
HETATM    2  N   UNL     1      -8.398   0.634 -32.567  1.00  0.00    -0.053 N 
HETATM    3  H   UNL     1      -9.061   0.053 -32.032  1.00  0.00     0.281 HD
HETATM    4  C   UNL     1      -8.161  -0.056 -33.896  1.00  0.00     0.252 C 
HETATM    5  C   UNL     1      -7.023  -1.019 -33.606  1.00  0.00     0.083 C 
HETATM    6  C   UNL     1      -6.111  -0.175 -32.727  1.00  0.00     0.060 C 
ENDROOT
BRANCH   1   7
HETATM    7  C   UNL     1      -6.456   1.932 -31.295  1.00  0.00     0.253 C 
HETATM    8  N   UNL     1      -5.509   2.492 -32.139  1.00  0.00    -0.325 N 
HETATM    9  H   UNL     1      -5.202   1.976 -32.955  1.00  0.00     0.169 HD
HETATM   10  O   UNL     1      -6.802   2.407 -30.216  1.00  0.00    -0.271 OA
BRANCH   8  11
HETATM   11  C   UNL     1      -4.931   3.782 -32.026  1.00  0.00     0.036 A 
HETATM   12  C   UNL     1      -3.692   4.041 -31.436  1.00  0.00     0.059 A 
HETATM   13  C   UNL     1      -3.189   5.351 -31.279  1.00  0.00     0.041 A 
HETATM   14  N   UNL     1      -1.958   5.485 -30.615  1.00  0.00    -0.355 N 
HETATM   15  C   UNL     1      -3.975   6.421 -31.714  1.00  0.00    -0.031 A 
HETATM   16  C   UNL     1      -1.325   6.519 -29.900  1.00  0.00     0.039 A 
HETATM   17  H   UNL     1      -1.395   4.643 -30.660  1.00  0.00     0.166 HD
HETATM   18  C   UNL     1      -1.889   7.772 -29.618  1.00  0.00    -0.031 A 
HETATM   19  C   UNL     1      -0.034   6.243 -29.398  1.00  0.00     0.030 A 
HETATM   20  C   UNL     1      -1.177   8.684 -28.808  1.00  0.00     0.009 A 
HETATM   21  C   UNL     1      -3.255   8.194 -30.096  1.00  0.00     0.045 C 
HETATM   22  C   UNL     1       0.089   8.384 -28.313  1.00  0.00     0.001 A 
HETATM   23  C   UNL     1       0.668   7.163 -28.616  1.00  0.00     0.002 A 
HETATM   24  C   UNL     1      -3.523   7.848 -31.557  1.00  0.00     0.045 C 
HETATM   25  C   UNL     1      -5.205   6.165 -32.345  1.00  0.00     0.012 A 
HETATM   26  C   UNL     1      -5.677   4.860 -32.500  1.00  0.00     0.030 A 
ENDBRANCH   8  11
ENDBRANCH   1   7
BRANCH   2  27
HETATM   27  C   UNL     1      -9.112   1.962 -32.704  1.00  0.00     0.277 C 
BRANCH  27  28
HETATM   28  C   UNL     1     -10.392   1.864 -33.488  1.00  0.00     0.006 A 
HETATM   29  C   UNL     1     -10.667   2.809 -34.480  1.00  0.00     0.124 A 
HETATM   30  F   UNL     1      -9.795   3.808 -34.683  1.00  0.00    -0.206 F 
HETATM   31  C   UNL     1     -11.838   2.763 -35.228  1.00  0.00     0.043 A 
HETATM   32  C   UNL     1     -12.764   1.753 -34.980  1.00  0.00     0.003 A 
HETATM   33  C   UNL     1     -12.512   0.801 -33.990  1.00  0.00     0.001 A 
HETATM   34  C   UNL     1     -11.330   0.852 -33.247  1.00  0.00     0.012 A 
ENDBRANCH  27  28
ENDBRANCH   2  27
BRANCH   5  35
HETATM   35  S   UNL     1      -6.128  -1.570 -35.087  1.00  0.00    -0.084 SA
BRANCH  35  36
HETATM   36  C   UNL     1      -5.227  -2.949 -34.422  1.00  0.00     0.188 A 
HETATM   37  N   UNL     1      -5.559  -4.184 -34.836  1.00  0.00    -0.235 NA
HETATM   38  C   UNL     1      -4.832  -5.194 -34.311  1.00  0.00     0.121 A 
HETATM   39  C   UNL     1      -3.787  -5.007 -33.437  1.00  0.00     0.038 A 
HETATM   40  C   UNL     1      -3.516  -3.700 -33.111  1.00  0.00     0.121 A 
HETATM   41  N   UNL     1      -4.214  -2.658 -33.597  1.00  0.00    -0.235 NA
ENDBRANCH  35  36
ENDBRANCH   5  35
TORSDOF 6
ENDMDL
MODEL 8
REMARK VINA RESULT:      -9.7      2.866      9.475
REMARK  6 active torsions:
REMARK  status: ('A' for Active; 'I' for Inactive)
REMARK    1  A    between atoms: C_11  and  N_12 
REMARK       I    between atoms: N_12  and  C_13 
REMARK    2  A    between atoms: C_13  and  C_14 
REMARK    3  A    between atoms: N_15  and  C_17 
REMARK    4  A    between atoms: C_17  and  C_18 
REMARK    5  A    between atoms: C_26  and  S_27 
REMARK    6  A    between atoms: S_27  and  C_28 
ROOT
HETATM    1  C   UNL     1      -7.530   1.784 -33.716  1.00  0.00     0.281 C 
HETATM    2  N   UNL     1      -7.742   0.576 -32.746  1.00  0.00    -0.053 N 
HETATM    3  H   UNL     1      -7.391  -0.254 -33.246  1.00  0.00     0.281 HD
HETATM    4  C   UNL     1      -9.239   0.402 -32.575  1.00  0.00     0.252 C 
HETATM    5  C   UNL     1      -9.818   0.978 -33.856  1.00  0.00     0.083 C 
HETATM    6  C   UNL     1      -8.960   2.218 -34.061  1.00  0.00     0.060 C 
ENDROOT
BRANCH   1   7
HETATM    7  C   UNL     1      -6.650   2.956 -33.207  1.00  0.00     0.253 C 
HETATM    8  N   UNL     1      -5.318   2.896 -33.587  1.00  0.00    -0.325 N 
HETATM    9  H   UNL     1      -4.979   2.084 -34.089  1.00  0.00     0.169 HD
HETATM   10  O   UNL     1      -7.135   3.826 -32.488  1.00  0.00    -0.271 OA
BRANCH   8  11
HETATM   11  C   UNL     1      -4.338   3.905 -33.402  1.00  0.00     0.036 A 
HETATM   12  C   UNL     1      -3.337   3.861 -32.428  1.00  0.00     0.059 A 
HETATM   13  C   UNL     1      -2.427   4.922 -32.231  1.00  0.00     0.041 A 
HETATM   14  N   UNL     1      -1.506   4.784 -31.179  1.00  0.00    -0.355 N 
HETATM   15  C   UNL     1      -2.554   6.062 -33.029  1.00  0.00    -0.031 A 
HETATM   16  C   UNL     1      -0.761   5.680 -30.390  1.00  0.00     0.039 A 
HETATM   17  H   UNL     1      -1.339   3.815 -30.930  1.00  0.00     0.166 HD
HETATM   18  C   UNL     1      -0.837   7.079 -30.463  1.00  0.00    -0.031 A 
HETATM   19  C   UNL     1       0.099   5.110 -29.425  1.00  0.00     0.030 A 
HETATM   20  C   UNL     1      -0.100   7.860 -29.545  1.00  0.00     0.009 A 
HETATM   21  C   UNL     1      -1.710   7.813 -31.448  1.00  0.00     0.045 C 
HETATM   22  C   UNL     1       0.731   7.274 -28.593  1.00  0.00     0.001 A 
HETATM   23  C   UNL     1       0.838   5.895 -28.539  1.00  0.00     0.002 A 
HETATM   24  C   UNL     1      -1.642   7.248 -32.862  1.00  0.00     0.045 C 
HETATM   25  C   UNL     1      -3.533   6.096 -34.038  1.00  0.00     0.012 A 
HETATM   26  C   UNL     1      -4.415   5.029 -34.222  1.00  0.00     0.030 A 
ENDBRANCH   8  11
ENDBRANCH   1   7
BRANCH   2  27
HETATM   27  C   UNL     1      -6.986   0.552 -31.434  1.00  0.00     0.277 C 
BRANCH  27  28
HETATM   28  C   UNL     1      -5.581   0.033 -31.574  1.00  0.00     0.006 A 
HETATM   29  C   UNL     1      -4.535   0.691 -30.922  1.00  0.00     0.124 A 
HETATM   30  F   UNL     1      -4.806   1.799 -30.216  1.00  0.00    -0.206 F 
HETATM   31  C   UNL     1      -3.220   0.252 -31.025  1.00  0.00     0.043 A 
HETATM   32  C   UNL     1      -2.935  -0.870 -31.800  1.00  0.00     0.003 A 
HETATM   33  C   UNL     1      -3.965  -1.540 -32.464  1.00  0.00     0.001 A 
HETATM   34  C   UNL     1      -5.284  -1.095 -32.351  1.00  0.00     0.012 A 
ENDBRANCH  27  28
ENDBRANCH   2  27
BRANCH   5  35
HETATM   35  S   UNL     1     -11.568   1.444 -33.729  1.00  0.00    -0.084 SA
BRANCH  35  36
HETATM   36  C   UNL     1     -11.414   3.175 -33.366  1.00  0.00     0.188 A 
HETATM   37  N   UNL     1     -11.587   4.053 -34.368  1.00  0.00    -0.235 NA
HETATM   38  C   UNL     1     -11.473   5.357 -34.034  1.00  0.00     0.121 A 
HETATM   39  C   UNL     1     -11.237   5.797 -32.753  1.00  0.00     0.038 A 
HETATM   40  C   UNL     1     -11.111   4.812 -31.803  1.00  0.00     0.121 A 
HETATM   41  N   UNL     1     -11.205   3.499 -32.084  1.00  0.00    -0.235 NA
ENDBRANCH  35  36
ENDBRANCH   5  35
TORSDOF 6
ENDMDL
MODEL 9
REMARK VINA RESULT:      -9.5      3.150      7.827
REMARK  6 active torsions:
REMARK  status: ('A' for Active; 'I' for Inactive)
REMARK    1  A    between atoms: C_11  and  N_12 
REMARK       I    between atoms: N_12  and  C_13 
REMARK    2  A    between atoms: C_13  and  C_14 
REMARK    3  A    between atoms: N_15  and  C_17 
REMARK    4  A    between atoms: C_17  and  C_18 
REMARK    5  A    between atoms: C_26  and  S_27 
REMARK    6  A    between atoms: S_27  and  C_28 
ROOT
HETATM    1  C   UNL     1      -6.477   5.773 -32.876  1.00  0.00     0.281 C 
HETATM    2  N   UNL     1      -7.682   6.719 -32.566  1.00  0.00    -0.053 N 
HETATM    3  H   UNL     1      -7.894   7.207 -33.448  1.00  0.00     0.281 HD
HETATM    4  C   UNL     1      -7.187   7.760 -31.581  1.00  0.00     0.252 C 
HETATM    5  C   UNL     1      -5.694   7.833 -31.853  1.00  0.00     0.083 C 
HETATM    6  C   UNL     1      -5.335   6.366 -32.041  1.00  0.00     0.060 C 
ENDROOT
BRANCH   1   7
HETATM    7  C   UNL     1      -6.682   4.255 -32.625  1.00  0.00     0.253 C 
HETATM    8  N   UNL     1      -6.873   3.493 -33.767  1.00  0.00    -0.325 N 
HETATM    9  H   UNL     1      -6.947   3.953 -34.666  1.00  0.00     0.169 HD
HETATM   10  O   UNL     1      -6.709   3.818 -31.477  1.00  0.00    -0.271 OA
BRANCH   8  11
HETATM   11  C   UNL     1      -6.923   2.078 -33.842  1.00  0.00     0.036 A 
HETATM   12  C   UNL     1      -6.023   1.223 -33.201  1.00  0.00     0.059 A 
HETATM   13  C   UNL     1      -6.065  -0.179 -33.364  1.00  0.00     0.041 A 
HETATM   14  N   UNL     1      -5.067  -0.926 -32.715  1.00  0.00    -0.355 N 
HETATM   15  C   UNL     1      -7.033  -0.720 -34.214  1.00  0.00    -0.031 A 
HETATM   16  C   UNL     1      -4.489  -2.193 -32.916  1.00  0.00     0.039 A 
HETATM   17  H   UNL     1      -4.671  -0.440 -31.917  1.00  0.00     0.166 HD
HETATM   18  C   UNL     1      -4.789  -3.060 -33.976  1.00  0.00    -0.031 A 
HETATM   19  C   UNL     1      -3.500  -2.592 -31.989  1.00  0.00     0.030 A 
HETATM   20  C   UNL     1      -4.064  -4.266 -34.110  1.00  0.00     0.009 A 
HETATM   21  C   UNL     1      -5.824  -2.758 -35.030  1.00  0.00     0.045 C 
HETATM   22  C   UNL     1      -3.084  -4.631 -33.191  1.00  0.00     0.001 A 
HETATM   23  C   UNL     1      -2.807  -3.796 -32.121  1.00  0.00     0.002 A 
HETATM   24  C   UNL     1      -7.125  -2.201 -34.463  1.00  0.00     0.045 C 
HETATM   25  C   UNL     1      -7.967   0.132 -34.831  1.00  0.00     0.012 A 
HETATM   26  C   UNL     1      -7.913   1.515 -34.646  1.00  0.00     0.030 A 
ENDBRANCH   8  11
ENDBRANCH   1   7
BRANCH   2  27
HETATM   27  C   UNL     1      -9.008   6.105 -32.167  1.00  0.00     0.277 C 
BRANCH  27  28
HETATM   28  C   UNL     1      -9.802   5.604 -33.343  1.00  0.00     0.006 A 
HETATM   29  C   UNL     1     -10.255   4.282 -33.355  1.00  0.00     0.124 A 
HETATM   30  F   UNL     1      -9.935   3.477 -32.331  1.00  0.00    -0.206 F 
HETATM   31  C   UNL     1     -10.988   3.772 -34.421  1.00  0.00     0.043 A 
HETATM   32  C   UNL     1     -11.275   4.596 -35.506  1.00  0.00     0.003 A 
HETATM   33  C   UNL     1     -10.828   5.920 -35.516  1.00  0.00     0.001 A 
HETATM   34  C   UNL     1     -10.096   6.425 -34.439  1.00  0.00     0.012 A 
ENDBRANCH  27  28
ENDBRANCH   2  27
BRANCH   5  35
HETATM   35  S   UNL     1      -4.730   8.541 -30.487  1.00  0.00    -0.084 SA
BRANCH  35  36
HETATM   36  C   UNL     1      -3.105   7.960 -30.906  1.00  0.00     0.188 A 
HETATM   37  N   UNL     1      -2.503   7.096 -30.071  1.00  0.00    -0.235 NA
HETATM   38  C   UNL     1      -1.276   6.675 -30.445  1.00  0.00     0.121 A 
HETATM   39  C   UNL     1      -0.666   7.052 -31.618  1.00  0.00     0.038 A 
HETATM   40  C   UNL     1      -1.388   7.912 -32.410  1.00  0.00     0.121 A 
HETATM   41  N   UNL     1      -2.610   8.370 -32.081  1.00  0.00    -0.235 NA
ENDBRANCH  35  36
ENDBRANCH   5  35
TORSDOF 6
ENDMDL
MODEL 10
REMARK VINA RESULT:      -9.4      2.410      3.111
REMARK  6 active torsions:
REMARK  status: ('A' for Active; 'I' for Inactive)
REMARK    1  A    between atoms: C_11  and  N_12 
REMARK       I    between atoms: N_12  and  C_13 
REMARK    2  A    between atoms: C_13  and  C_14 
REMARK    3  A    between atoms: N_15  and  C_17 
REMARK    4  A    between atoms: C_17  and  C_18 
REMARK    5  A    between atoms: C_26  and  S_27 
REMARK    6  A    between atoms: S_27  and  C_28 
ROOT
HETATM    1  C   UNL     1      -6.635   1.654 -31.478  1.00  0.00     0.281 C 
HETATM    2  N   UNL     1      -5.665   1.516 -32.697  1.00  0.00    -0.053 N 
HETATM    3  H   UNL     1      -4.945   0.836 -32.410  1.00  0.00     0.281 HD
HETATM    4  C   UNL     1      -4.980   2.856 -32.872  1.00  0.00     0.252 C 
HETATM    5  C   UNL     1      -5.015   3.465 -31.481  1.00  0.00     0.083 C 
HETATM    6  C   UNL     1      -6.415   3.098 -31.010  1.00  0.00     0.060 C 
ENDROOT
BRANCH   1   7
HETATM    7  C   UNL     1      -8.130   1.318 -31.718  1.00  0.00     0.253 C 
HETATM    8  N   UNL     1      -8.864   2.320 -32.334  1.00  0.00    -0.325 N 
HETATM    9  H   UNL     1      -8.428   3.216 -32.517  1.00  0.00     0.169 HD
HETATM   10  O   UNL     1      -8.592   0.246 -31.334  1.00  0.00    -0.271 OA
BRANCH   8  11
HETATM   11  C   UNL     1     -10.195   2.223 -32.814  1.00  0.00     0.036 A 
HETATM   12  C   UNL     1     -11.230   3.085 -32.445  1.00  0.00     0.059 A 
HETATM   13  C   UNL     1     -12.558   2.905 -32.891  1.00  0.00     0.041 A 
HETATM   14  N   UNL     1     -13.521   3.804 -32.401  1.00  0.00    -0.355 N 
HETATM   15  C   UNL     1     -12.841   1.812 -33.713  1.00  0.00    -0.031 A 
HETATM   16  C   UNL     1     -14.917   3.764 -32.229  1.00  0.00     0.039 A 
HETATM   17  H   UNL     1     -13.117   4.685 -32.100  1.00  0.00     0.166 HD
HETATM   18  C   UNL     1     -15.734   2.655 -32.494  1.00  0.00    -0.031 A 
HETATM   19  C   UNL     1     -15.525   4.929 -31.711  1.00  0.00     0.030 A 
HETATM   20  C   UNL     1     -17.111   2.722 -32.188  1.00  0.00     0.009 A 
HETATM   21  C   UNL     1     -15.214   1.354 -33.051  1.00  0.00     0.045 C 
HETATM   22  C   UNL     1     -17.685   3.878 -31.664  1.00  0.00     0.001 A 
HETATM   23  C   UNL     1     -16.891   4.989 -31.433  1.00  0.00     0.002 A 
HETATM   24  C   UNL     1     -14.236   1.535 -34.206  1.00  0.00     0.045 C 
HETATM   25  C   UNL     1     -11.796   0.963 -34.120  1.00  0.00     0.012 A 
HETATM   26  C   UNL     1     -10.487   1.167 -33.676  1.00  0.00     0.030 A 
ENDBRANCH   8  11
ENDBRANCH   1   7
BRANCH   2  27
HETATM   27  C   UNL     1      -6.201   0.946 -33.994  1.00  0.00     0.277 C 
BRANCH  27  28
HETATM   28  C   UNL     1      -5.978  -0.536 -34.123  1.00  0.00     0.006 A 
HETATM   29  C   UNL     1      -4.713  -1.069 -33.861  1.00  0.00     0.124 A 
HETATM   30  F   UNL     1      -3.713  -0.234 -33.538  1.00  0.00    -0.206 F 
HETATM   31  C   UNL     1      -4.458  -2.430 -33.971  1.00  0.00     0.043 A 
HETATM   32  C   UNL     1      -5.486  -3.287 -34.356  1.00  0.00     0.003 A 
HETATM   33  C   UNL     1      -6.757  -2.776 -34.627  1.00  0.00     0.001 A 
HETATM   34  C   UNL     1      -7.006  -1.406 -34.509  1.00  0.00     0.012 A 
ENDBRANCH  27  28
ENDBRANCH   2  27
BRANCH   5  35
HETATM   35  S   UNL     1      -4.801   5.268 -31.459  1.00  0.00    -0.084 SA
BRANCH  35  36
HETATM   36  C   UNL     1      -5.908   5.706 -30.141  1.00  0.00     0.188 A 
HETATM   37  N   UNL     1      -5.509   5.490 -28.876  1.00  0.00    -0.235 NA
HETATM   38  C   UNL     1      -6.382   5.855 -27.913  1.00  0.00     0.121 A 
HETATM   39  C   UNL     1      -7.595   6.450 -28.171  1.00  0.00     0.038 A 
HETATM   40  C   UNL     1      -7.884   6.653 -29.498  1.00  0.00     0.121 A 
HETATM   41  N   UNL     1      -7.054   6.299 -30.497  1.00  0.00    -0.235 NA
ENDBRANCH  35  36
ENDBRANCH   5  35
TORSDOF 6
ENDMDL
