MODEL 1
REMARK VINA RESULT:      -8.9      0.000      0.000
REMARK  6 active torsions:
REMARK  status: ('A' for Active; 'I' for Inactive)
REMARK    1  A    between atoms: C_7  and  C_8 
REMARK    2  A    between atoms: N_9  and  N_10 
REMARK       I    between atoms: N_10  and  C_11 
REMARK    3  A    between atoms: C_11  and  C_12 
REMARK    4  A    between atoms: C_12  and  N_13 
REMARK       I    between atoms: N_13  and  C_14 
REMARK    5  A    between atoms: C_14  and  C_15 
REMARK    6  A    between atoms: C_15  and  C_16 
ROOT
HETATM    1  N   UNL     1      -5.393   2.517 -31.504  1.00  0.00    -0.246 N 
HETATM    2  C   UNL     1      -6.740   2.683 -31.242  1.00  0.00     0.255 C 
HETATM    3  O   UNL     1      -7.295   3.763 -31.039  1.00  0.00    -0.270 OA
HETATM    4  H   UNL     1      -5.070   1.604 -31.834  1.00  0.00     0.192 HD
ENDROOT
BRANCH   1   5
HETATM    5  N   UNL     1      -4.575   3.604 -31.647  1.00  0.00    -0.184 NA
HETATM    6  C   UNL     1      -3.696   3.493 -32.590  1.00  0.00     0.153 C 
BRANCH   6   7
HETATM    7  C   UNL     1      -2.809   4.596 -32.910  1.00  0.00     0.018 A 
HETATM    8  C   UNL     1      -2.895   5.341 -34.080  1.00  0.00     0.018 A 
HETATM    9  C   UNL     1      -3.808   5.222 -35.246  1.00  0.00     0.069 C 
HETATM   10  N   UNL     1      -1.928   6.314 -34.027  1.00  0.00    -0.358 N 
HETATM   11  H   UNL     1      -1.758   7.007 -34.742  1.00  0.00     0.166 HD
HETATM   12  C   UNL     1      -1.216   6.227 -32.856  1.00  0.00     0.043 A 
HETATM   13  C   UNL     1      -1.735   5.150 -32.137  1.00  0.00     0.004 A 
HETATM   14  C   UNL     1      -0.162   7.022 -32.386  1.00  0.00     0.030 A 
HETATM   15  C   UNL     1      -1.160   4.853 -30.881  1.00  0.00     0.014 A 
HETATM   16  C   UNL     1      -0.105   5.636 -30.397  1.00  0.00     0.001 A 
HETATM   17  C   UNL     1       0.384   6.706 -31.139  1.00  0.00     0.002 A 
ENDBRANCH   6   7
ENDBRANCH   1   5
BRANCH   2  18
HETATM   18  C   UNL     1      -7.564   1.401 -31.415  1.00  0.00     0.227 C 
BRANCH  18  19
HETATM   19  N   UNL     1      -7.396   0.637 -32.648  1.00  0.00    -0.352 N 
HETATM   20  C   UNL     1      -6.424  -0.325 -32.794  1.00  0.00     0.222 C 
HETATM   21  O   UNL     1      -5.850  -0.820 -31.825  1.00  0.00    -0.273 OA
HETATM   22  H   UNL     1      -7.856   0.995 -33.475  1.00  0.00     0.162 HD
BRANCH  20  23
HETATM   23  C   UNL     1      -6.138  -0.740 -34.225  1.00  0.00     0.141 C 
BRANCH  23  24
HETATM   24  C   UNL     1      -5.801  -2.200 -34.370  1.00  0.00    -0.050 A 
HETATM   25  C   UNL     1      -4.490  -2.655 -34.172  1.00  0.00     0.007 A 
HETATM   26  C   UNL     1      -4.189  -4.013 -34.282  1.00  0.00     0.001 A 
HETATM   27  C   UNL     1      -5.191  -4.928 -34.597  1.00  0.00     0.000 A 
HETATM   28  C   UNL     1      -6.495  -4.486 -34.809  1.00  0.00     0.001 A 
HETATM   29  C   UNL     1      -6.800  -3.128 -34.700  1.00  0.00     0.007 A 
ENDBRANCH  23  24
ENDBRANCH  20  23
ENDBRANCH  18  19
ENDBRANCH   2  18
TORSDOF 6
ENDMDL
MODEL 2
REMARK VINA RESULT:      -8.8      2.177      9.145
REMARK  6 active torsions:
REMARK  status: ('A' for Active; 'I' for Inactive)
REMARK    1  A    between atoms: C_7  and  C_8 
REMARK    2  A    between atoms: N_9  and  N_10 
REMARK       I    between atoms: N_10  and  C_11 
REMARK    3  A    between atoms: C_11  and  C_12 
REMARK    4  A    between atoms: C_12  and  N_13 
REMARK       I    between atoms: N_13  and  C_14 
REMARK    5  A    between atoms: C_14  and  C_15 
REMARK    6  A    between atoms: C_15  and  C_16 
ROOT
HETATM    1  N   UNL     1      -5.210   2.213 -31.619  1.00  0.00    -0.246 N 
HETATM    2  C   UNL     1      -3.914   2.583 -31.309  1.00  0.00     0.255 C 
HETATM    3  O   UNL     1      -2.951   1.819 -31.260  1.00  0.00    -0.270 OA
HETATM    4  H   UNL     1      -5.895   2.950 -31.807  1.00  0.00     0.192 HD
ENDROOT
BRANCH   1   5
HETATM    5  N   UNL     1      -5.494   0.929 -31.994  1.00  0.00    -0.184 NA
HETATM    6  C   UNL     1      -5.419   0.713 -33.267  1.00  0.00     0.153 C 
BRANCH   6   7
HETATM    7  C   UNL     1      -5.619  -0.619 -33.806  1.00  0.00     0.018 A 
HETATM    8  C   UNL     1      -6.604  -0.937 -34.734  1.00  0.00     0.018 A 
HETATM    9  C   UNL     1      -7.659  -0.099 -35.360  1.00  0.00     0.069 C 
HETATM   10  N   UNL     1      -6.475  -2.268 -35.040  1.00  0.00    -0.358 N 
HETATM   11  H   UNL     1      -7.056  -2.777 -35.691  1.00  0.00     0.166 HD
HETATM   12  C   UNL     1      -5.433  -2.829 -34.342  1.00  0.00     0.043 A 
HETATM   13  C   UNL     1      -4.882  -1.823 -33.548  1.00  0.00     0.004 A 
HETATM   14  C   UNL     1      -4.941  -4.141 -34.362  1.00  0.00     0.030 A 
HETATM   15  C   UNL     1      -3.782  -2.155 -32.726  1.00  0.00     0.014 A 
HETATM   16  C   UNL     1      -3.279  -3.462 -32.733  1.00  0.00     0.001 A 
HETATM   17  C   UNL     1      -3.851  -4.439 -33.542  1.00  0.00     0.002 A 
ENDBRANCH   6   7
ENDBRANCH   1   5
BRANCH   2  18
HETATM   18  C   UNL     1      -3.714   4.101 -31.211  1.00  0.00     0.227 C 
BRANCH  18  19
HETATM   19  N   UNL     1      -2.362   4.602 -30.979  1.00  0.00    -0.352 N 
HETATM   20  C   UNL     1      -1.565   5.075 -31.996  1.00  0.00     0.222 C 
HETATM   21  O   UNL     1      -2.030   5.397 -33.088  1.00  0.00    -0.273 OA
HETATM   22  H   UNL     1      -1.936   4.374 -30.091  1.00  0.00     0.162 HD
BRANCH  20  23
HETATM   23  C   UNL     1      -0.091   5.191 -31.658  1.00  0.00     0.141 C 
BRANCH  23  24
HETATM   24  C   UNL     1       0.172   5.890 -30.351  1.00  0.00    -0.050 A 
HETATM   25  C   UNL     1       0.599   5.167 -29.228  1.00  0.00     0.007 A 
HETATM   26  C   UNL     1       0.866   5.823 -28.026  1.00  0.00     0.001 A 
HETATM   27  C   UNL     1       0.703   7.203 -27.931  1.00  0.00     0.000 A 
HETATM   28  C   UNL     1       0.267   7.930 -29.037  1.00  0.00     0.001 A 
HETATM   29  C   UNL     1      -0.002   7.277 -30.241  1.00  0.00     0.007 A 
ENDBRANCH  23  24
ENDBRANCH  20  23
ENDBRANCH  18  19
ENDBRANCH   2  18
TORSDOF 6
ENDMDL
MODEL 3
REMARK VINA RESULT:      -8.7      1.962      8.438
REMARK  6 active torsions:
REMARK  status: ('A' for Active; 'I' for Inactive)
REMARK    1  A    between atoms: C_7  and  C_8 
REMARK    2  A    between atoms: N_9  and  N_10 
REMARK       I    between atoms: N_10  and  C_11 
REMARK    3  A    between atoms: C_11  and  C_12 
REMARK    4  A    between atoms: C_12  and  N_13 
REMARK       I    between atoms: N_13  and  C_14 
REMARK    5  A    between atoms: C_14  and  C_15 
REMARK    6  A    between atoms: C_15  and  C_16 
ROOT
HETATM    1  N   UNL     1      -6.213   2.108 -32.255  1.00  0.00    -0.246 N 
HETATM    2  C   UNL     1      -5.646   3.016 -31.380  1.00  0.00     0.255 C 
HETATM    3  O   UNL     1      -4.889   2.729 -30.452  1.00  0.00    -0.270 OA
HETATM    4  H   UNL     1      -6.679   2.465 -33.093  1.00  0.00     0.192 HD
ENDROOT
BRANCH   1   5
HETATM    5  N   UNL     1      -5.879   0.783 -32.192  1.00  0.00    -0.184 NA
HETATM    6  C   UNL     1      -5.163   0.363 -33.184  1.00  0.00     0.153 C 
BRANCH   6   7
HETATM    7  C   UNL     1      -4.669  -1.001 -33.217  1.00  0.00     0.018 A 
HETATM    8  C   UNL     1      -3.548  -1.432 -32.519  1.00  0.00     0.018 A 
HETATM    9  C   UNL     1      -2.599  -0.693 -31.646  1.00  0.00     0.069 C 
HETATM   10  N   UNL     1      -3.401  -2.776 -32.755  1.00  0.00    -0.358 N 
HETATM   11  H   UNL     1      -2.669  -3.360 -32.374  1.00  0.00     0.166 HD
HETATM   12  C   UNL     1      -4.394  -3.236 -33.584  1.00  0.00     0.043 A 
HETATM   13  C   UNL     1      -5.201  -2.143 -33.904  1.00  0.00     0.004 A 
HETATM   14  C   UNL     1      -4.636  -4.529 -34.065  1.00  0.00     0.030 A 
HETATM   15  C   UNL     1      -6.306  -2.362 -34.756  1.00  0.00     0.014 A 
HETATM   16  C   UNL     1      -6.562  -3.649 -35.247  1.00  0.00     0.001 A 
HETATM   17  C   UNL     1      -5.738  -4.716 -34.903  1.00  0.00     0.002 A 
ENDBRANCH   6   7
ENDBRANCH   1   5
BRANCH   2  18
HETATM   18  C   UNL     1      -5.882   4.480 -31.773  1.00  0.00     0.227 C 
BRANCH  18  19
HETATM   19  N   UNL     1      -4.923   5.112 -32.674  1.00  0.00    -0.352 N 
HETATM   20  C   UNL     1      -4.876   4.828 -34.020  1.00  0.00     0.222 C 
HETATM   21  O   UNL     1      -5.811   4.280 -34.599  1.00  0.00    -0.273 OA
HETATM   22  H   UNL     1      -4.138   5.587 -32.248  1.00  0.00     0.162 HD
BRANCH  20  23
HETATM   23  C   UNL     1      -3.605   5.263 -34.725  1.00  0.00     0.141 C 
BRANCH  23  24
HETATM   24  C   UNL     1      -2.523   5.719 -33.785  1.00  0.00    -0.050 A 
HETATM   25  C   UNL     1      -1.823   4.794 -32.998  1.00  0.00     0.007 A 
HETATM   26  C   UNL     1      -0.802   5.219 -32.147  1.00  0.00     0.001 A 
HETATM   27  C   UNL     1      -0.476   6.571 -32.067  1.00  0.00     0.000 A 
HETATM   28  C   UNL     1      -1.174   7.501 -32.834  1.00  0.00     0.001 A 
HETATM   29  C   UNL     1      -2.196   7.079 -33.686  1.00  0.00     0.007 A 
ENDBRANCH  23  24
ENDBRANCH  20  23
ENDBRANCH  18  19
ENDBRANCH   2  18
TORSDOF 6
ENDMDL
MODEL 4
REMARK VINA RESULT:      -8.6      1.903      9.006
REMARK  6 active torsions:
REMARK  status: ('A' for Active; 'I' for Inactive)
REMARK    1  A    between atoms: C_7  and  C_8 
REMARK    2  A    between atoms: N_9  and  N_10 
REMARK       I    between atoms: N_10  and  C_11 
REMARK    3  A    between atoms: C_11  and  C_12 
REMARK    4  A    between atoms: C_12  and  N_13 
REMARK       I    between atoms: N_13  and  C_14 
REMARK    5  A    between atoms: C_14  and  C_15 
REMARK    6  A    between atoms: C_15  and  C_16 
ROOT
HETATM    1  N   UNL     1      -4.813   1.876 -31.584  1.00  0.00    -0.246 N 
HETATM    2  C   UNL     1      -5.392   3.127 -31.687  1.00  0.00     0.255 C 
HETATM    3  O   UNL     1      -6.441   3.377 -32.280  1.00  0.00    -0.270 OA
HETATM    4  H   UNL     1      -4.043   1.748 -30.923  1.00  0.00     0.192 HD
ENDROOT
BRANCH   1   5
HETATM    5  N   UNL     1      -5.450   0.774 -32.086  1.00  0.00    -0.184 NA
HETATM    6  C   UNL     1      -4.995   0.364 -33.225  1.00  0.00     0.153 C 
BRANCH   6   7
HETATM    7  C   UNL     1      -5.520  -0.839 -33.844  1.00  0.00     0.018 A 
HETATM    8  C   UNL     1      -6.663  -0.865 -34.633  1.00  0.00     0.018 A 
HETATM    9  C   UNL     1      -7.610   0.216 -35.012  1.00  0.00     0.069 C 
HETATM   10  N   UNL     1      -6.837  -2.153 -35.073  1.00  0.00    -0.358 N 
HETATM   11  H   UNL     1      -7.589  -2.470 -35.669  1.00  0.00     0.166 HD
HETATM   12  C   UNL     1      -5.840  -2.968 -34.597  1.00  0.00     0.043 A 
HETATM   13  C   UNL     1      -5.002  -2.177 -33.810  1.00  0.00     0.004 A 
HETATM   14  C   UNL     1      -5.620  -4.336 -34.809  1.00  0.00     0.030 A 
HETATM   15  C   UNL     1      -3.887  -2.794 -33.200  1.00  0.00     0.014 A 
HETATM   16  C   UNL     1      -3.653  -4.160 -33.401  1.00  0.00     0.001 A 
HETATM   17  C   UNL     1      -4.507  -4.918 -34.196  1.00  0.00     0.002 A 
ENDBRANCH   6   7
ENDBRANCH   1   5
BRANCH   2  18
HETATM   18  C   UNL     1      -4.712   4.194 -30.818  1.00  0.00     0.227 C 
BRANCH  18  19
HETATM   19  N   UNL     1      -3.651   4.997 -31.420  1.00  0.00    -0.352 N 
HETATM   20  C   UNL     1      -2.384   4.506 -31.635  1.00  0.00     0.222 C 
HETATM   21  O   UNL     1      -2.147   3.299 -31.630  1.00  0.00    -0.273 OA
HETATM   22  H   UNL     1      -3.800   5.996 -31.459  1.00  0.00     0.162 HD
BRANCH  20  23
HETATM   23  C   UNL     1      -1.323   5.556 -31.901  1.00  0.00     0.141 C 
BRANCH  23  24
HETATM   24  C   UNL     1      -0.628   6.035 -30.655  1.00  0.00    -0.050 A 
HETATM   25  C   UNL     1      -0.732   7.373 -30.248  1.00  0.00     0.007 A 
HETATM   26  C   UNL     1      -0.108   7.806 -29.078  1.00  0.00     0.001 A 
HETATM   27  C   UNL     1       0.632   6.911 -28.308  1.00  0.00     0.000 A 
HETATM   28  C   UNL     1       0.754   5.583 -28.709  1.00  0.00     0.001 A 
HETATM   29  C   UNL     1       0.131   5.146 -29.880  1.00  0.00     0.007 A 
ENDBRANCH  23  24
ENDBRANCH  20  23
ENDBRANCH  18  19
ENDBRANCH   2  18
TORSDOF 6
ENDMDL
MODEL 5
REMARK VINA RESULT:      -8.5      2.245      9.086
REMARK  6 active torsions:
REMARK  status: ('A' for Active; 'I' for Inactive)
REMARK    1  A    between atoms: C_7  and  C_8 
REMARK    2  A    between atoms: N_9  and  N_10 
REMARK       I    between atoms: N_10  and  C_11 
REMARK    3  A    between atoms: C_11  and  C_12 
REMARK    4  A    between atoms: C_12  and  N_13 
REMARK       I    between atoms: N_13  and  C_14 
REMARK    5  A    between atoms: C_14  and  C_15 
REMARK    6  A    between atoms: C_15  and  C_16 
ROOT
HETATM    1  N   UNL     1      -4.625   4.005 -32.747  1.00  0.00    -0.246 N 
HETATM    2  C   UNL     1      -4.343   5.170 -33.435  1.00  0.00     0.255 C 
HETATM    3  O   UNL     1      -4.581   5.365 -34.628  1.00  0.00    -0.270 OA
HETATM    4  H   UNL     1      -4.552   4.012 -31.726  1.00  0.00     0.192 HD
ENDROOT
BRANCH   1   5
HETATM    5  N   UNL     1      -5.296   2.982 -33.359  1.00  0.00    -0.184 NA
HETATM    6  C   UNL     1      -5.521   1.959 -32.600  1.00  0.00     0.153 C 
BRANCH   6   7
HETATM    7  C   UNL     1      -6.290   0.829 -33.088  1.00  0.00     0.018 A 
HETATM    8  C   UNL     1      -7.674   0.832 -33.206  1.00  0.00     0.018 A 
HETATM    9  C   UNL     1      -8.679   1.874 -32.872  1.00  0.00     0.069 C 
HETATM   10  N   UNL     1      -8.051  -0.380 -33.729  1.00  0.00    -0.358 N 
HETATM   11  H   UNL     1      -9.001  -0.661 -33.927  1.00  0.00     0.166 HD
HETATM   12  C   UNL     1      -6.953  -1.173 -33.958  1.00  0.00     0.043 A 
HETATM   13  C   UNL     1      -5.831  -0.448 -33.554  1.00  0.00     0.004 A 
HETATM   14  C   UNL     1      -6.874  -2.465 -34.493  1.00  0.00     0.030 A 
HETATM   15  C   UNL     1      -4.564  -1.058 -33.690  1.00  0.00     0.014 A 
HETATM   16  C   UNL     1      -4.467  -2.350 -34.222  1.00  0.00     0.001 A 
HETATM   17  C   UNL     1      -5.608  -3.041 -34.619  1.00  0.00     0.002 A 
ENDBRANCH   6   7
ENDBRANCH   1   5
BRANCH   2  18
HETATM   18  C   UNL     1      -3.869   6.318 -32.535  1.00  0.00     0.227 C 
BRANCH  18  19
HETATM   19  N   UNL     1      -2.472   6.327 -32.110  1.00  0.00    -0.352 N 
HETATM   20  C   UNL     1      -1.568   7.259 -32.562  1.00  0.00     0.222 C 
HETATM   21  O   UNL     1      -1.929   8.309 -33.091  1.00  0.00    -0.273 OA
HETATM   22  H   UNL     1      -2.126   5.490 -31.660  1.00  0.00     0.162 HD
BRANCH  20  23
HETATM   23  C   UNL     1      -0.110   6.906 -32.337  1.00  0.00     0.141 C 
BRANCH  23  24
HETATM   24  C   UNL     1       0.204   6.540 -30.911  1.00  0.00    -0.050 A 
HETATM   25  C   UNL     1       0.095   7.492 -29.888  1.00  0.00     0.007 A 
HETATM   26  C   UNL     1       0.363   7.141 -28.564  1.00  0.00     0.001 A 
HETATM   27  C   UNL     1       0.748   5.840 -28.250  1.00  0.00     0.000 A 
HETATM   28  C   UNL     1       0.872   4.888 -29.260  1.00  0.00     0.001 A 
HETATM   29  C   UNL     1       0.606   5.236 -30.586  1.00  0.00     0.007 A 
ENDBRANCH  23  24
ENDBRANCH  20  23
ENDBRANCH  18  19
ENDBRANCH   2  18
TORSDOF 6
ENDMDL
MODEL 6
REMARK VINA RESULT:      -8.5      3.921      7.722
REMARK  6 active torsions:
REMARK  status: ('A' for Active; 'I' for Inactive)
REMARK    1  A    between atoms: C_7  and  C_8 
REMARK    2  A    between atoms: N_9  and  N_10 
REMARK       I    between atoms: N_10  and  C_11 
REMARK    3  A    between atoms: C_11  and  C_12 
REMARK    4  A    between atoms: C_12  and  N_13 
REMARK       I    between atoms: N_13  and  C_14 
REMARK    5  A    between atoms: C_14  and  C_15 
REMARK    6  A    between atoms: C_15  and  C_16 
ROOT
HETATM    1  N   UNL     1      -7.550   1.966 -32.938  1.00  0.00    -0.246 N 
HETATM    2  C   UNL     1      -6.833   2.459 -31.864  1.00  0.00     0.255 C 
HETATM    3  O   UNL     1      -7.313   3.084 -30.918  1.00  0.00    -0.270 OA
HETATM    4  H   UNL     1      -7.087   1.310 -33.574  1.00  0.00     0.192 HD
ENDROOT
BRANCH   1   5
HETATM    5  N   UNL     1      -8.913   2.073 -32.971  1.00  0.00    -0.184 NA
HETATM    6  C   UNL     1      -9.391   2.493 -34.098  1.00  0.00     0.153 C 
BRANCH   6   7
HETATM    7  C   UNL     1     -10.823   2.584 -34.308  1.00  0.00     0.018 A 
HETATM    8  C   UNL     1     -11.457   3.706 -34.826  1.00  0.00     0.018 A 
HETATM    9  C   UNL     1     -10.915   5.025 -35.247  1.00  0.00     0.069 C 
HETATM   10  N   UNL     1     -12.797   3.424 -34.917  1.00  0.00    -0.358 N 
HETATM   11  H   UNL     1     -13.505   4.057 -35.263  1.00  0.00     0.166 HD
HETATM   12  C   UNL     1     -13.057   2.150 -34.475  1.00  0.00     0.043 A 
HETATM   13  C   UNL     1     -11.839   1.598 -34.073  1.00  0.00     0.004 A 
HETATM   14  C   UNL     1     -14.270   1.452 -34.409  1.00  0.00     0.030 A 
HETATM   15  C   UNL     1     -11.844   0.277 -33.573  1.00  0.00     0.014 A 
HETATM   16  C   UNL     1     -13.048  -0.434 -33.499  1.00  0.00     0.001 A 
HETATM   17  C   UNL     1     -14.242   0.146 -33.914  1.00  0.00     0.002 A 
ENDBRANCH   6   7
ENDBRANCH   1   5
BRANCH   2  18
HETATM   18  C   UNL     1      -5.372   1.993 -31.832  1.00  0.00     0.227 C 
BRANCH  18  19
HETATM   19  N   UNL     1      -4.946   0.998 -32.813  1.00  0.00    -0.352 N 
HETATM   20  C   UNL     1      -4.881  -0.345 -32.523  1.00  0.00     0.222 C 
HETATM   21  O   UNL     1      -5.461  -0.826 -31.551  1.00  0.00    -0.273 OA
HETATM   22  H   UNL     1      -4.473   1.342 -33.638  1.00  0.00     0.162 HD
BRANCH  20  23
HETATM   23  C   UNL     1      -4.071  -1.177 -33.499  1.00  0.00     0.141 C 
BRANCH  23  24
HETATM   24  C   UNL     1      -4.803  -2.393 -34.001  1.00  0.00    -0.050 A 
HETATM   25  C   UNL     1      -4.183  -3.650 -34.002  1.00  0.00     0.007 A 
HETATM   26  C   UNL     1      -4.874  -4.778 -34.445  1.00  0.00     0.001 A 
HETATM   27  C   UNL     1      -6.187  -4.662 -34.897  1.00  0.00     0.000 A 
HETATM   28  C   UNL     1      -6.809  -3.415 -34.913  1.00  0.00     0.001 A 
HETATM   29  C   UNL     1      -6.120  -2.284 -34.471  1.00  0.00     0.007 A 
ENDBRANCH  23  24
ENDBRANCH  20  23
ENDBRANCH  18  19
ENDBRANCH   2  18
TORSDOF 6
ENDMDL
MODEL 7
REMARK VINA RESULT:      -8.5      1.867      2.160
REMARK  6 active torsions:
REMARK  status: ('A' for Active; 'I' for Inactive)
REMARK    1  A    between atoms: C_7  and  C_8 
REMARK    2  A    between atoms: N_9  and  N_10 
REMARK       I    between atoms: N_10  and  C_11 
REMARK    3  A    between atoms: C_11  and  C_12 
REMARK    4  A    between atoms: C_12  and  N_13 
REMARK       I    between atoms: N_13  and  C_14 
REMARK    5  A    between atoms: C_14  and  C_15 
REMARK    6  A    between atoms: C_15  and  C_16 
ROOT
HETATM    1  N   UNL     1      -3.407   2.121 -31.613  1.00  0.00    -0.246 N 
HETATM    2  C   UNL     1      -4.547   1.902 -30.864  1.00  0.00     0.255 C 
HETATM    3  O   UNL     1      -5.032   2.698 -30.058  1.00  0.00    -0.270 OA
HETATM    4  H   UNL     1      -3.194   1.475 -32.378  1.00  0.00     0.192 HD
ENDROOT
BRANCH   1   5
HETATM    5  N   UNL     1      -2.768   3.330 -31.567  1.00  0.00    -0.184 NA
HETATM    6  C   UNL     1      -3.049   4.123 -32.550  1.00  0.00     0.153 C 
BRANCH   6   7
HETATM    7  C   UNL     1      -2.506   5.468 -32.595  1.00  0.00     0.018 A 
HETATM    8  C   UNL     1      -1.748   5.959 -33.651  1.00  0.00     0.018 A 
HETATM    9  C   UNL     1      -1.286   5.308 -34.904  1.00  0.00     0.069 C 
HETATM   10  N   UNL     1      -1.438   7.266 -33.370  1.00  0.00    -0.358 N 
HETATM   11  H   UNL     1      -0.896   7.878 -33.963  1.00  0.00     0.166 HD
HETATM   12  C   UNL     1      -1.975   7.644 -32.164  1.00  0.00     0.043 A 
HETATM   13  C   UNL     1      -2.642   6.534 -31.644  1.00  0.00     0.004 A 
HETATM   14  C   UNL     1      -1.923   8.880 -31.505  1.00  0.00     0.030 A 
HETATM   15  C   UNL     1      -3.285   6.672 -30.394  1.00  0.00     0.014 A 
HETATM   16  C   UNL     1      -3.241   7.900 -29.721  1.00  0.00     0.001 A 
HETATM   17  C   UNL     1      -2.571   8.988 -30.272  1.00  0.00     0.002 A 
ENDBRANCH   6   7
ENDBRANCH   1   5
BRANCH   2  18
HETATM   18  C   UNL     1      -5.306   0.627 -31.256  1.00  0.00     0.227 C 
BRANCH  18  19
HETATM   19  N   UNL     1      -5.414   0.301 -32.675  1.00  0.00    -0.352 N 
HETATM   20  C   UNL     1      -6.557  -0.230 -33.226  1.00  0.00     0.222 C 
HETATM   21  O   UNL     1      -7.642  -0.173 -32.649  1.00  0.00    -0.273 OA
HETATM   22  H   UNL     1      -4.551   0.251 -33.199  1.00  0.00     0.162 HD
BRANCH  20  23
HETATM   23  C   UNL     1      -6.381  -0.858 -34.595  1.00  0.00     0.141 C 
BRANCH  23  24
HETATM   24  C   UNL     1      -5.909  -2.287 -34.543  1.00  0.00    -0.050 A 
HETATM   25  C   UNL     1      -6.789  -3.340 -34.829  1.00  0.00     0.007 A 
HETATM   26  C   UNL     1      -6.340  -4.661 -34.804  1.00  0.00     0.001 A 
HETATM   27  C   UNL     1      -5.013  -4.944 -34.488  1.00  0.00     0.000 A 
HETATM   28  C   UNL     1      -4.133  -3.905 -34.189  1.00  0.00     0.001 A 
HETATM   29  C   UNL     1      -4.579  -2.583 -34.212  1.00  0.00     0.007 A 
ENDBRANCH  23  24
ENDBRANCH  20  23
ENDBRANCH  18  19
ENDBRANCH   2  18
TORSDOF 6
ENDMDL
MODEL 8
REMARK VINA RESULT:      -8.5      1.518      2.369
REMARK  6 active torsions:
REMARK  status: ('A' for Active; 'I' for Inactive)
REMARK    1  A    between atoms: C_7  and  C_8 
REMARK    2  A    between atoms: N_9  and  N_10 
REMARK       I    between atoms: N_10  and  C_11 
REMARK    3  A    between atoms: C_11  and  C_12 
REMARK    4  A    between atoms: C_12  and  N_13 
REMARK       I    between atoms: N_13  and  C_14 
REMARK    5  A    between atoms: C_14  and  C_15 
REMARK    6  A    between atoms: C_15  and  C_16 
ROOT
HETATM    1  N   UNL     1      -6.540   2.567 -31.259  1.00  0.00    -0.246 N 
HETATM    2  C   UNL     1      -7.882   2.389 -31.538  1.00  0.00     0.255 C 
HETATM    3  O   UNL     1      -8.666   3.284 -31.854  1.00  0.00    -0.270 OA
HETATM    4  H   UNL     1      -5.943   1.739 -31.183  1.00  0.00     0.192 HD
ENDROOT
BRANCH   1   5
HETATM    5  N   UNL     1      -5.957   3.795 -31.411  1.00  0.00    -0.184 NA
HETATM    6  C   UNL     1      -4.675   3.806 -31.235  1.00  0.00     0.153 C 
BRANCH   6   7
HETATM    7  C   UNL     1      -3.908   5.021 -31.438  1.00  0.00     0.018 A 
HETATM    8  C   UNL     1      -3.946   6.110 -30.577  1.00  0.00     0.018 A 
HETATM    9  C   UNL     1      -4.728   6.343 -29.335  1.00  0.00     0.069 C 
HETATM   10  N   UNL     1      -3.077   7.055 -31.061  1.00  0.00    -0.358 N 
HETATM   11  H   UNL     1      -2.895   7.954 -30.636  1.00  0.00     0.166 HD
HETATM   12  C   UNL     1      -2.470   6.614 -32.211  1.00  0.00     0.043 A 
HETATM   13  C   UNL     1      -2.980   5.344 -32.484  1.00  0.00     0.004 A 
HETATM   14  C   UNL     1      -1.513   7.242 -33.019  1.00  0.00     0.030 A 
HETATM   15  C   UNL     1      -2.506   4.672 -33.632  1.00  0.00     0.014 A 
HETATM   16  C   UNL     1      -1.549   5.285 -34.451  1.00  0.00     0.001 A 
HETATM   17  C   UNL     1      -1.059   6.551 -34.146  1.00  0.00     0.002 A 
ENDBRANCH   6   7
ENDBRANCH   1   5
BRANCH   2  18
HETATM   18  C   UNL     1      -8.305   0.916 -31.615  1.00  0.00     0.227 C 
BRANCH  18  19
HETATM   19  N   UNL     1      -7.878   0.139 -32.775  1.00  0.00    -0.352 N 
HETATM   20  C   UNL     1      -6.619  -0.408 -32.876  1.00  0.00     0.222 C 
HETATM   21  O   UNL     1      -5.893  -0.547 -31.893  1.00  0.00    -0.273 OA
HETATM   22  H   UNL     1      -8.447   0.210 -33.608  1.00  0.00     0.162 HD
BRANCH  20  23
HETATM   23  C   UNL     1      -6.215  -0.841 -34.272  1.00  0.00     0.141 C 
BRANCH  23  24
HETATM   24  C   UNL     1      -5.821  -2.292 -34.359  1.00  0.00    -0.050 A 
HETATM   25  C   UNL     1      -6.754  -3.263 -34.747  1.00  0.00     0.007 A 
HETATM   26  C   UNL     1      -6.378  -4.603 -34.851  1.00  0.00     0.001 A 
HETATM   27  C   UNL     1      -5.070  -4.986 -34.562  1.00  0.00     0.000 A 
HETATM   28  C   UNL     1      -4.137  -4.031 -34.163  1.00  0.00     0.001 A 
HETATM   29  C   UNL     1      -4.511  -2.690 -34.057  1.00  0.00     0.007 A 
ENDBRANCH  23  24
ENDBRANCH  20  23
ENDBRANCH  18  19
ENDBRANCH   2  18
TORSDOF 6
ENDMDL
MODEL 9
REMARK VINA RESULT:      -8.4      2.702      9.679
REMARK  6 active torsions:
REMARK  status: ('A' for Active; 'I' for Inactive)
REMARK    1  A    between atoms: C_7  and  C_8 
REMARK    2  A    between atoms: N_9  and  N_10 
REMARK       I    between atoms: N_10  and  C_11 
REMARK    3  A    between atoms: C_11  and  C_12 
REMARK    4  A    between atoms: C_12  and  N_13 
REMARK       I    between atoms: N_13  and  C_14 
REMARK    5  A    between atoms: C_14  and  C_15 
REMARK    6  A    between atoms: C_15  and  C_16 
ROOT
HETATM    1  N   UNL     1      -4.653   3.625 -32.023  1.00  0.00    -0.246 N 
HETATM    2  C   UNL     1      -3.399   4.128 -32.315  1.00  0.00     0.255 C 
HETATM    3  O   UNL     1      -2.637   3.681 -33.173  1.00  0.00    -0.270 OA
HETATM    4  H   UNL     1      -5.272   4.176 -31.422  1.00  0.00     0.192 HD
ENDROOT
BRANCH   1   5
HETATM    5  N   UNL     1      -5.183   2.606 -32.767  1.00  0.00    -0.184 NA
HETATM    6  C   UNL     1      -5.752   1.675 -32.072  1.00  0.00     0.153 C 
BRANCH   6   7
HETATM    7  C   UNL     1      -6.425   0.568 -32.726  1.00  0.00     0.018 A 
HETATM    8  C   UNL     1      -7.800   0.508 -32.921  1.00  0.00     0.018 A 
HETATM    9  C   UNL     1      -8.882   1.448 -32.528  1.00  0.00     0.069 C 
HETATM   10  N   UNL     1      -8.074  -0.654 -33.597  1.00  0.00    -0.358 N 
HETATM   11  H   UNL     1      -8.995  -0.962 -33.879  1.00  0.00     0.166 HD
HETATM   12  C   UNL     1      -6.920  -1.353 -33.853  1.00  0.00     0.043 A 
HETATM   13  C   UNL     1      -5.866  -0.619 -33.307  1.00  0.00     0.004 A 
HETATM   14  C   UNL     1      -6.736  -2.568 -34.525  1.00  0.00     0.030 A 
HETATM   15  C   UNL     1      -4.559  -1.137 -33.440  1.00  0.00     0.014 A 
HETATM   16  C   UNL     1      -4.357  -2.351 -34.109  1.00  0.00     0.001 A 
HETATM   17  C   UNL     1      -5.432  -3.054 -34.645  1.00  0.00     0.002 A 
ENDBRANCH   6   7
ENDBRANCH   1   5
BRANCH   2  18
HETATM   18  C   UNL     1      -3.084   5.449 -31.601  1.00  0.00     0.227 C 
BRANCH  18  19
HETATM   19  N   UNL     1      -2.052   5.442 -30.568  1.00  0.00    -0.352 N 
HETATM   20  C   UNL     1      -0.744   5.780 -30.829  1.00  0.00     0.222 C 
HETATM   21  O   UNL     1      -0.424   6.397 -31.843  1.00  0.00    -0.273 OA
HETATM   22  H   UNL     1      -2.268   4.956 -29.708  1.00  0.00     0.162 HD
BRANCH  20  23
HETATM   23  C   UNL     1       0.254   5.358 -29.767  1.00  0.00     0.141 C 
BRANCH  23  24
HETATM   24  C   UNL     1       0.432   6.376 -28.673  1.00  0.00    -0.050 A 
HETATM   25  C   UNL     1       0.062   6.079 -27.354  1.00  0.00     0.007 A 
HETATM   26  C   UNL     1       0.252   7.017 -26.338  1.00  0.00     0.001 A 
HETATM   27  C   UNL     1       0.807   8.262 -26.631  1.00  0.00     0.000 A 
HETATM   28  C   UNL     1       1.166   8.573 -27.941  1.00  0.00     0.001 A 
HETATM   29  C   UNL     1       0.976   7.637 -28.959  1.00  0.00     0.007 A 
ENDBRANCH  23  24
ENDBRANCH  20  23
ENDBRANCH  18  19
ENDBRANCH   2  18
TORSDOF 6
ENDMDL
MODEL 10
REMARK VINA RESULT:      -8.4      3.918      7.831
REMARK  6 active torsions:
REMARK  status: ('A' for Active; 'I' for Inactive)
REMARK    1  A    between atoms: C_7  and  C_8 
REMARK    2  A    between atoms: N_9  and  N_10 
REMARK       I    between atoms: N_10  and  C_11 
REMARK    3  A    between atoms: C_11  and  C_12 
REMARK    4  A    between atoms: C_12  and  N_13 
REMARK       I    between atoms: N_13  and  C_14 
REMARK    5  A    between atoms: C_14  and  C_15 
REMARK    6  A    between atoms: C_15  and  C_16 
ROOT
HETATM    1  N   UNL     1      -8.725   1.483 -31.229  1.00  0.00    -0.246 N 
HETATM    2  C   UNL     1      -8.531   2.609 -30.452  1.00  0.00     0.255 C 
HETATM    3  O   UNL     1      -7.482   2.903 -29.877  1.00  0.00    -0.270 OA
HETATM    4  H   UNL     1      -9.570   1.427 -31.803  1.00  0.00     0.192 HD
ENDROOT
BRANCH   1   5
HETATM    5  N   UNL     1      -7.686   0.632 -31.490  1.00  0.00    -0.184 NA
HETATM    6  C   UNL     1      -7.335   0.581 -32.734  1.00  0.00     0.153 C 
BRANCH   6   7
HETATM    7  C   UNL     1      -6.198  -0.219 -33.151  1.00  0.00     0.018 A 
HETATM    8  C   UNL     1      -4.875   0.156 -32.951  1.00  0.00     0.018 A 
HETATM    9  C   UNL     1      -4.291   1.378 -32.340  1.00  0.00     0.069 C 
HETATM   10  N   UNL     1      -4.078  -0.850 -33.437  1.00  0.00    -0.358 N 
HETATM   11  H   UNL     1      -3.068  -0.853 -33.424  1.00  0.00     0.166 HD
HETATM   12  C   UNL     1      -4.842  -1.872 -33.947  1.00  0.00     0.043 A 
HETATM   13  C   UNL     1      -6.178  -1.501 -33.795  1.00  0.00     0.004 A 
HETATM   14  C   UNL     1      -4.447  -3.087 -34.521  1.00  0.00     0.030 A 
HETATM   15  C   UNL     1      -7.170  -2.399 -34.249  1.00  0.00     0.014 A 
HETATM   16  C   UNL     1      -6.793  -3.617 -34.827  1.00  0.00     0.001 A 
HETATM   17  C   UNL     1      -5.450  -3.956 -34.958  1.00  0.00     0.002 A 
ENDBRANCH   6   7
ENDBRANCH   1   5
BRANCH   2  18
HETATM   18  C   UNL     1      -9.696   3.605 -30.508  1.00  0.00     0.227 C 
BRANCH  18  19
HETATM   19  N   UNL     1     -10.750   3.374 -31.491  1.00  0.00    -0.352 N 
HETATM   20  C   UNL     1     -10.683   3.862 -32.776  1.00  0.00     0.222 C 
HETATM   21  O   UNL     1      -9.622   4.244 -33.269  1.00  0.00    -0.273 OA
HETATM   22  H   UNL     1     -11.641   3.050 -31.139  1.00  0.00     0.162 HD
BRANCH  20  23
HETATM   23  C   UNL     1     -11.996   3.868 -33.534  1.00  0.00     0.141 C 
BRANCH  23  24
HETATM   24  C   UNL     1     -12.702   2.538 -33.519  1.00  0.00    -0.050 A 
HETATM   25  C   UNL     1     -14.054   2.451 -33.160  1.00  0.00     0.007 A 
HETATM   26  C   UNL     1     -14.710   1.219 -33.174  1.00  0.00     0.001 A 
HETATM   27  C   UNL     1     -14.023   0.064 -33.539  1.00  0.00     0.000 A 
HETATM   28  C   UNL     1     -12.675   0.137 -33.885  1.00  0.00     0.001 A 
HETATM   29  C   UNL     1     -12.015   1.367 -33.872  1.00  0.00     0.007 A 
ENDBRANCH  23  24
ENDBRANCH  20  23
ENDBRANCH  18  19
ENDBRANCH   2  18
TORSDOF 6
ENDMDL
