MODEL 1
REMARK VINA RESULT:      -9.2      0.000      0.000
REMARK  8 active torsions:
REMARK  status: ('A' for Active; 'I' for Inactive)
REMARK    1  A    between atoms: C_2  and  N_3 
REMARK    2  A    between atoms: C_2  and  C_36 
REMARK       I    between atoms: N_3  and  C_4 
REMARK    3  A    between atoms: C_4  and  C_5 
REMARK    4  A    between atoms: C_5  and  N_6 
REMARK       I    between atoms: N_12  and  C_13 
REMARK    5  A    between atoms: C_13  and  C_14 
REMARK    6  A    between atoms: C_15  and  O_16 
REMARK    7  A    between atoms: C_21  and  O_22 
REMARK    8  A    between atoms: N_27  and  C_28 
ROOT
HETATM    1  N   UNL     1      -4.752   5.998 -31.947  1.00  0.00    -0.325 N 
HETATM    2  C   UNL     1      -4.315   4.749 -31.550  1.00  0.00     0.250 C 
HETATM    3  O   UNL     1      -3.157   4.450 -31.294  1.00  0.00    -0.270 OA
HETATM    4  C   UNL     1      -5.531   3.800 -31.570  1.00  0.00     0.118 C 
HETATM    5  C   UNL     1      -5.568   3.012 -30.247  1.00  0.00     0.061 C 
HETATM    6  C   UNL     1      -4.704   1.759 -30.279  1.00  0.00     0.129 C 
HETATM    7  N   UNL     1      -4.891   1.023 -31.520  1.00  0.00    -0.348 N 
HETATM    8  C   UNL     1      -5.761  -0.076 -31.534  1.00  0.00     0.259 C 
HETATM    9  O   UNL     1      -6.446  -0.404 -30.568  1.00  0.00    -0.267 OA
HETATM   10  C   UNL     1      -4.485   1.764 -32.705  1.00  0.00     0.129 C 
HETATM   11  C   UNL     1      -5.391   2.981 -32.874  1.00  0.00     0.061 C 
HETATM   12  N   UNL     1      -6.663   4.766 -31.666  1.00  0.00    -0.346 N 
HETATM   13  C   UNL     1      -6.181   6.103 -31.979  1.00  0.00     0.254 C 
ENDROOT
BRANCH  12  14
HETATM   14  C   UNL     1      -8.019   4.491 -31.697  1.00  0.00     0.032 A 
HETATM   15  C   UNL     1      -8.755   4.377 -32.889  1.00  0.00     0.029 A 
HETATM   16  C   UNL     1     -10.124   4.078 -32.907  1.00  0.00     0.002 A 
HETATM   17  C   UNL     1     -10.813   3.881 -31.720  1.00  0.00     0.000 A 
HETATM   18  C   UNL     1     -10.127   3.984 -30.519  1.00  0.00     0.002 A 
HETATM   19  C   UNL     1      -8.757   4.284 -30.515  1.00  0.00     0.029 A 
ENDBRANCH  12  14
BRANCH   1  20
HETATM   20  C   UNL     1      -3.890   7.170 -31.979  1.00  0.00     0.230 C 
BRANCH  20  21
HETATM   21  C   UNL     1      -3.719   7.881 -30.627  1.00  0.00     0.236 C 
HETATM   22  N   UNL     1      -2.895   7.232 -29.730  1.00  0.00    -0.351 N 
HETATM   23  H   UNL     1      -2.641   6.268 -29.902  1.00  0.00     0.163 HD
HETATM   24  O   UNL     1      -4.303   8.924 -30.343  1.00  0.00    -0.272 OA
BRANCH  22  25
HETATM   25  C   UNL     1      -2.699   7.754 -28.379  1.00  0.00     0.113 C 
HETATM   26  C   UNL     1      -3.654   7.017 -27.429  1.00  0.00     0.037 C 
BRANCH  25  27
HETATM   27  C   UNL     1      -1.240   7.691 -27.930  1.00  0.00    -0.036 A 
HETATM   28  C   UNL     1      -0.197   8.242 -28.694  1.00  0.00     0.009 A 
HETATM   29  C   UNL     1       1.129   8.199 -28.249  1.00  0.00     0.001 A 
HETATM   30  C   UNL     1       1.435   7.626 -27.018  1.00  0.00     0.000 A 
HETATM   31  C   UNL     1       0.417   7.108 -26.227  1.00  0.00     0.001 A 
HETATM   32  C   UNL     1      -0.907   7.148 -26.675  1.00  0.00     0.009 A 
ENDBRANCH  25  27
ENDBRANCH  22  25
ENDBRANCH  20  21
ENDBRANCH   1  20
BRANCH   8  33
HETATM   33  C   UNL     1      -5.764  -0.955 -32.727  1.00  0.00     0.098 A 
HETATM   34  C   UNL     1      -4.663  -1.803 -32.930  1.00  0.00     0.086 A 
HETATM   35  C   UNL     1      -4.626  -2.659 -34.030  1.00  0.00     0.038 A 
HETATM   36  C   UNL     1      -5.673  -2.655 -34.946  1.00  0.00     0.005 A 
HETATM   37  C   UNL     1      -6.779  -1.823 -34.743  1.00  0.00     0.038 A 
HETATM   38  C   UNL     1      -6.845  -0.979 -33.627  1.00  0.00     0.086 A 
BRANCH  34  39
HETATM   39  O   UNL     1      -3.654  -1.916 -32.008  1.00  0.00    -0.355 OA
HETATM   40  C   UNL     1      -3.111  -3.234 -31.996  1.00  0.00     0.210 C 
ENDBRANCH  34  39
BRANCH  38  41
HETATM   41  O   UNL     1      -7.914  -0.175 -33.340  1.00  0.00    -0.355 OA
HETATM   42  C   UNL     1      -8.236   0.859 -34.264  1.00  0.00     0.210 C 
ENDBRANCH  38  41
ENDBRANCH   8  33
TORSDOF 8
ENDMDL
MODEL 2
REMARK VINA RESULT:      -9.2      0.176      2.011
REMARK  8 active torsions:
REMARK  status: ('A' for Active; 'I' for Inactive)
REMARK    1  A    between atoms: C_2  and  N_3 
REMARK    2  A    between atoms: C_2  and  C_36 
REMARK       I    between atoms: N_3  and  C_4 
REMARK    3  A    between atoms: C_4  and  C_5 
REMARK    4  A    between atoms: C_5  and  N_6 
REMARK       I    between atoms: N_12  and  C_13 
REMARK    5  A    between atoms: C_13  and  C_14 
REMARK    6  A    between atoms: C_15  and  O_16 
REMARK    7  A    between atoms: C_21  and  O_22 
REMARK    8  A    between atoms: N_27  and  C_28 
ROOT
HETATM    1  N   UNL     1      -4.661   5.899 -32.070  1.00  0.00    -0.325 N 
HETATM    2  C   UNL     1      -4.223   4.652 -31.673  1.00  0.00     0.250 C 
HETATM    3  O   UNL     1      -3.061   4.349 -31.438  1.00  0.00    -0.270 OA
HETATM    4  C   UNL     1      -5.443   3.708 -31.663  1.00  0.00     0.118 C 
HETATM    5  C   UNL     1      -5.457   2.930 -30.333  1.00  0.00     0.061 C 
HETATM    6  C   UNL     1      -4.599   1.672 -30.373  1.00  0.00     0.129 C 
HETATM    7  N   UNL     1      -4.814   0.928 -31.604  1.00  0.00    -0.348 N 
HETATM    8  C   UNL     1      -5.688  -0.166 -31.594  1.00  0.00     0.259 C 
HETATM    9  O   UNL     1      -6.356  -0.485 -30.612  1.00  0.00    -0.267 OA
HETATM   10  C   UNL     1      -4.428   1.659 -32.802  1.00  0.00     0.129 C 
HETATM   11  C   UNL     1      -5.332   2.879 -32.963  1.00  0.00     0.061 C 
HETATM   12  N   UNL     1      -6.572   4.678 -31.744  1.00  0.00    -0.346 N 
HETATM   13  C   UNL     1      -6.090   6.011 -32.075  1.00  0.00     0.254 C 
ENDROOT
BRANCH  12  14
HETATM   14  C   UNL     1      -7.930   4.409 -31.746  1.00  0.00     0.032 A 
HETATM   15  C   UNL     1      -8.677   4.230 -32.923  1.00  0.00     0.029 A 
HETATM   16  C   UNL     1     -10.048   3.938 -32.911  1.00  0.00     0.002 A 
HETATM   17  C   UNL     1     -10.726   3.813 -31.707  1.00  0.00     0.000 A 
HETATM   18  C   UNL     1     -10.029   3.982 -30.521  1.00  0.00     0.002 A 
HETATM   19  C   UNL     1      -8.657   4.274 -30.547  1.00  0.00     0.029 A 
ENDBRANCH  12  14
BRANCH   1  20
HETATM   20  C   UNL     1      -3.796   7.067 -32.127  1.00  0.00     0.230 C 
BRANCH  20  21
HETATM   21  C   UNL     1      -3.643   7.823 -30.798  1.00  0.00     0.236 C 
HETATM   22  N   UNL     1      -2.882   7.175 -29.846  1.00  0.00    -0.351 N 
HETATM   23  H   UNL     1      -2.663   6.195 -29.973  1.00  0.00     0.163 HD
HETATM   24  O   UNL     1      -4.192   8.900 -30.575  1.00  0.00    -0.272 OA
BRANCH  22  25
HETATM   25  C   UNL     1      -2.713   7.740 -28.509  1.00  0.00     0.113 C 
HETATM   26  C   UNL     1      -3.723   7.070 -27.566  1.00  0.00     0.037 C 
BRANCH  25  27
HETATM   27  C   UNL     1      -1.273   7.649 -28.009  1.00  0.00    -0.036 A 
HETATM   28  C   UNL     1      -0.206   8.274 -28.679  1.00  0.00     0.009 A 
HETATM   29  C   UNL     1       1.101   8.201 -28.186  1.00  0.00     0.001 A 
HETATM   30  C   UNL     1       1.366   7.523 -26.999  1.00  0.00     0.000 A 
HETATM   31  C   UNL     1       0.322   6.929 -26.299  1.00  0.00     0.001 A 
HETATM   32  C   UNL     1      -0.984   6.999 -26.795  1.00  0.00     0.009 A 
ENDBRANCH  25  27
ENDBRANCH  22  25
ENDBRANCH  20  21
ENDBRANCH   1  20
BRANCH   8  33
HETATM   33  C   UNL     1      -5.719  -1.055 -32.780  1.00  0.00     0.098 A 
HETATM   34  C   UNL     1      -6.850  -1.012 -33.612  1.00  0.00     0.086 A 
HETATM   35  C   UNL     1      -6.920  -1.818 -34.748  1.00  0.00     0.038 A 
HETATM   36  C   UNL     1      -5.876  -2.688 -35.044  1.00  0.00     0.005 A 
HETATM   37  C   UNL     1      -4.741  -2.726 -34.228  1.00  0.00     0.038 A 
HETATM   38  C   UNL     1      -4.642  -1.901 -33.100  1.00  0.00     0.086 A 
BRANCH  34  39
HETATM   39  O   UNL     1      -7.860  -0.104 -33.418  1.00  0.00    -0.355 OA
HETATM   40  C   UNL     1      -8.051   0.709 -34.574  1.00  0.00     0.210 C 
ENDBRANCH  34  39
BRANCH  38  41
HETATM   41  O   UNL     1      -3.545  -1.851 -32.285  1.00  0.00    -0.355 OA
HETATM   42  C   UNL     1      -2.994  -3.083 -31.834  1.00  0.00     0.210 C 
ENDBRANCH  38  41
ENDBRANCH   8  33
TORSDOF 8
ENDMDL
MODEL 3
REMARK VINA RESULT:      -8.9      2.041      8.979
REMARK  8 active torsions:
REMARK  status: ('A' for Active; 'I' for Inactive)
REMARK    1  A    between atoms: C_2  and  N_3 
REMARK    2  A    between atoms: C_2  and  C_36 
REMARK       I    between atoms: N_3  and  C_4 
REMARK    3  A    between atoms: C_4  and  C_5 
REMARK    4  A    between atoms: C_5  and  N_6 
REMARK       I    between atoms: N_12  and  C_13 
REMARK    5  A    between atoms: C_13  and  C_14 
REMARK    6  A    between atoms: C_15  and  O_16 
REMARK    7  A    between atoms: C_21  and  O_22 
REMARK    8  A    between atoms: N_27  and  C_28 
ROOT
HETATM    1  N   UNL     1      -7.252   2.517 -31.372  1.00  0.00    -0.325 N 
HETATM    2  C   UNL     1      -5.954   2.741 -31.786  1.00  0.00     0.250 C 
HETATM    3  O   UNL     1      -5.092   1.883 -31.917  1.00  0.00    -0.270 OA
HETATM    4  C   UNL     1      -5.777   4.263 -31.966  1.00  0.00     0.118 C 
HETATM    5  C   UNL     1      -5.106   4.526 -33.328  1.00  0.00     0.061 C 
HETATM    6  C   UNL     1      -3.587   4.448 -33.265  1.00  0.00     0.129 C 
HETATM    7  N   UNL     1      -3.072   5.153 -32.101  1.00  0.00    -0.348 N 
HETATM    8  C   UNL     1      -2.588   6.458 -32.256  1.00  0.00     0.259 C 
HETATM    9  O   UNL     1      -2.651   7.079 -33.315  1.00  0.00    -0.267 OA
HETATM   10  C   UNL     1      -3.509   4.584 -30.835  1.00  0.00     0.129 C 
HETATM   11  C   UNL     1      -5.023   4.742 -30.705  1.00  0.00     0.061 C 
HETATM   12  N   UNL     1      -7.192   4.733 -31.951  1.00  0.00    -0.346 N 
HETATM   13  C   UNL     1      -8.087   3.674 -31.506  1.00  0.00     0.254 C 
ENDROOT
BRANCH  12  14
HETATM   14  C   UNL     1      -7.664   6.025 -32.099  1.00  0.00     0.032 A 
HETATM   15  C   UNL     1      -6.896   7.164 -31.805  1.00  0.00     0.029 A 
HETATM   16  C   UNL     1      -7.379   8.468 -31.979  1.00  0.00     0.002 A 
HETATM   17  C   UNL     1      -8.662   8.680 -32.460  1.00  0.00     0.000 A 
HETATM   18  C   UNL     1      -9.457   7.585 -32.764  1.00  0.00     0.002 A 
HETATM   19  C   UNL     1      -8.961   6.285 -32.585  1.00  0.00     0.029 A 
ENDBRANCH  12  14
BRANCH   1  20
HETATM   20  C   UNL     1      -7.805   1.186 -31.168  1.00  0.00     0.230 C 
BRANCH  20  21
HETATM   21  C   UNL     1      -8.150   0.427 -32.460  1.00  0.00     0.236 C 
HETATM   22  N   UNL     1      -7.098  -0.265 -33.024  1.00  0.00    -0.351 N 
HETATM   23  H   UNL     1      -6.155  -0.070 -32.714  1.00  0.00     0.163 HD
HETATM   24  O   UNL     1      -9.263   0.466 -32.980  1.00  0.00    -0.272 OA
BRANCH  22  25
HETATM   25  C   UNL     1      -7.261  -0.971 -34.293  1.00  0.00     0.113 C 
HETATM   26  C   UNL     1      -7.018   0.022 -35.439  1.00  0.00     0.037 C 
BRANCH  25  27
HETATM   27  C   UNL     1      -6.386  -2.220 -34.388  1.00  0.00    -0.036 A 
HETATM   28  C   UNL     1      -5.034  -2.219 -34.004  1.00  0.00     0.009 A 
HETATM   29  C   UNL     1      -4.260  -3.382 -34.071  1.00  0.00     0.001 A 
HETATM   30  C   UNL     1      -4.829  -4.578 -34.501  1.00  0.00     0.000 A 
HETATM   31  C   UNL     1      -6.174  -4.613 -34.851  1.00  0.00     0.001 A 
HETATM   32  C   UNL     1      -6.945  -3.449 -34.787  1.00  0.00     0.009 A 
ENDBRANCH  25  27
ENDBRANCH  22  25
ENDBRANCH  20  21
ENDBRANCH   1  20
BRANCH   8  33
HETATM   33  C   UNL     1      -1.854   7.075 -31.125  1.00  0.00     0.098 A 
HETATM   34  C   UNL     1      -0.583   6.570 -30.804  1.00  0.00     0.086 A 
HETATM   35  C   UNL     1       0.152   7.127 -29.758  1.00  0.00     0.038 A 
HETATM   36  C   UNL     1      -0.387   8.169 -29.010  1.00  0.00     0.005 A 
HETATM   37  C   UNL     1      -1.646   8.686 -29.333  1.00  0.00     0.038 A 
HETATM   38  C   UNL     1      -2.385   8.158 -30.400  1.00  0.00     0.086 A 
BRANCH  34  39
HETATM   39  O   UNL     1       0.032   5.613 -31.569  1.00  0.00    -0.355 OA
HETATM   40  C   UNL     1       1.089   4.980 -30.851  1.00  0.00     0.210 C 
ENDBRANCH  34  39
BRANCH  38  41
HETATM   41  O   UNL     1      -3.599   8.642 -30.801  1.00  0.00    -0.355 OA
HETATM   42  C   UNL     1      -3.928   9.983 -30.457  1.00  0.00     0.210 C 
ENDBRANCH  38  41
ENDBRANCH   8  33
TORSDOF 8
ENDMDL
MODEL 4
REMARK VINA RESULT:      -8.9      2.013      9.124
REMARK  8 active torsions:
REMARK  status: ('A' for Active; 'I' for Inactive)
REMARK    1  A    between atoms: C_2  and  N_3 
REMARK    2  A    between atoms: C_2  and  C_36 
REMARK       I    between atoms: N_3  and  C_4 
REMARK    3  A    between atoms: C_4  and  C_5 
REMARK    4  A    between atoms: C_5  and  N_6 
REMARK       I    between atoms: N_12  and  C_13 
REMARK    5  A    between atoms: C_13  and  C_14 
REMARK    6  A    between atoms: C_15  and  O_16 
REMARK    7  A    between atoms: C_21  and  O_22 
REMARK    8  A    between atoms: N_27  and  C_28 
ROOT
HETATM    1  N   UNL     1      -7.211   2.496 -31.361  1.00  0.00    -0.325 N 
HETATM    2  C   UNL     1      -5.909   2.723 -31.761  1.00  0.00     0.250 C 
HETATM    3  O   UNL     1      -5.043   1.867 -31.879  1.00  0.00    -0.270 OA
HETATM    4  C   UNL     1      -5.735   4.245 -31.947  1.00  0.00     0.118 C 
HETATM    5  C   UNL     1      -5.050   4.504 -33.302  1.00  0.00     0.061 C 
HETATM    6  C   UNL     1      -3.530   4.432 -33.222  1.00  0.00     0.129 C 
HETATM    7  N   UNL     1      -3.031   5.143 -32.055  1.00  0.00    -0.348 N 
HETATM    8  C   UNL     1      -2.549   6.449 -32.210  1.00  0.00     0.259 C 
HETATM    9  O   UNL     1      -2.603   7.065 -33.272  1.00  0.00    -0.267 OA
HETATM   10  C   UNL     1      -3.480   4.577 -30.791  1.00  0.00     0.129 C 
HETATM   11  C   UNL     1      -4.996   4.731 -30.679  1.00  0.00     0.061 C 
HETATM   12  N   UNL     1      -7.151   4.710 -31.949  1.00  0.00    -0.346 N 
HETATM   13  C   UNL     1      -8.047   3.651 -31.509  1.00  0.00     0.254 C 
ENDROOT
BRANCH  12  14
HETATM   14  C   UNL     1      -7.626   6.000 -32.108  1.00  0.00     0.032 A 
HETATM   15  C   UNL     1      -8.925   6.293 -32.558  1.00  0.00     0.029 A 
HETATM   16  C   UNL     1      -9.400   7.605 -32.695  1.00  0.00     0.002 A 
HETATM   17  C   UNL     1      -8.583   8.681 -32.384  1.00  0.00     0.000 A 
HETATM   18  C   UNL     1      -7.292   8.439 -31.937  1.00  0.00     0.002 A 
HETATM   19  C   UNL     1      -6.829   7.122 -31.804  1.00  0.00     0.029 A 
ENDBRANCH  12  14
BRANCH   1  20
HETATM   20  C   UNL     1      -7.761   1.165 -31.158  1.00  0.00     0.230 C 
BRANCH  20  21
HETATM   21  C   UNL     1      -8.105   0.405 -32.450  1.00  0.00     0.236 C 
HETATM   22  N   UNL     1      -7.056  -0.300 -33.003  1.00  0.00    -0.351 N 
HETATM   23  H   UNL     1      -6.114  -0.114 -32.686  1.00  0.00     0.163 HD
HETATM   24  O   UNL     1      -9.213   0.455 -32.979  1.00  0.00    -0.272 OA
BRANCH  22  25
HETATM   25  C   UNL     1      -7.216  -1.009 -34.271  1.00  0.00     0.113 C 
HETATM   26  C   UNL     1      -6.991  -0.013 -35.419  1.00  0.00     0.037 C 
BRANCH  25  27
HETATM   27  C   UNL     1      -6.328  -2.248 -34.370  1.00  0.00    -0.036 A 
HETATM   28  C   UNL     1      -4.997  -2.253 -33.916  1.00  0.00     0.009 A 
HETATM   29  C   UNL     1      -4.211  -3.408 -33.990  1.00  0.00     0.001 A 
HETATM   30  C   UNL     1      -4.747  -4.589 -34.494  1.00  0.00     0.000 A 
HETATM   31  C   UNL     1      -6.072  -4.619 -34.915  1.00  0.00     0.001 A 
HETATM   32  C   UNL     1      -6.855  -3.463 -34.844  1.00  0.00     0.009 A 
ENDBRANCH  25  27
ENDBRANCH  22  25
ENDBRANCH  20  21
ENDBRANCH   1  20
BRANCH   8  33
HETATM   33  C   UNL     1      -1.830   7.073 -31.073  1.00  0.00     0.098 A 
HETATM   34  C   UNL     1      -2.511   8.031 -30.304  1.00  0.00     0.086 A 
HETATM   35  C   UNL     1      -1.882   8.636 -29.216  1.00  0.00     0.038 A 
HETATM   36  C   UNL     1      -0.565   8.309 -28.907  1.00  0.00     0.005 A 
HETATM   37  C   UNL     1       0.114   7.346 -29.661  1.00  0.00     0.038 A 
HETATM   38  C   UNL     1      -0.514   6.707 -30.738  1.00  0.00     0.086 A 
BRANCH  34  39
HETATM   39  O   UNL     1      -3.837   8.316 -30.506  1.00  0.00    -0.355 OA
HETATM   40  C   UNL     1      -4.540   8.404 -29.269  1.00  0.00     0.210 C 
ENDBRANCH  34  39
BRANCH  38  41
HETATM   41  O   UNL     1       0.071   5.725 -31.489  1.00  0.00    -0.355 OA
HETATM   42  C   UNL     1       1.028   4.884 -30.855  1.00  0.00     0.210 C 
ENDBRANCH  38  41
ENDBRANCH   8  33
TORSDOF 8
ENDMDL
MODEL 5
REMARK VINA RESULT:      -8.9      2.149      4.274
REMARK  8 active torsions:
REMARK  status: ('A' for Active; 'I' for Inactive)
REMARK    1  A    between atoms: C_2  and  N_3 
REMARK    2  A    between atoms: C_2  and  C_36 
REMARK       I    between atoms: N_3  and  C_4 
REMARK    3  A    between atoms: C_4  and  C_5 
REMARK    4  A    between atoms: C_5  and  N_6 
REMARK       I    between atoms: N_12  and  C_13 
REMARK    5  A    between atoms: C_13  and  C_14 
REMARK    6  A    between atoms: C_15  and  O_16 
REMARK    7  A    between atoms: C_21  and  O_22 
REMARK    8  A    between atoms: N_27  and  C_28 
ROOT
HETATM    1  N   UNL     1      -5.105   6.455 -28.424  1.00  0.00    -0.325 N 
HETATM    2  C   UNL     1      -6.151   5.920 -29.149  1.00  0.00     0.250 C 
HETATM    3  O   UNL     1      -7.301   5.795 -28.749  1.00  0.00    -0.270 OA
HETATM    4  C   UNL     1      -5.587   5.441 -30.502  1.00  0.00     0.118 C 
HETATM    5  C   UNL     1      -6.498   5.960 -31.631  1.00  0.00     0.061 C 
HETATM    6  C   UNL     1      -7.683   5.044 -31.905  1.00  0.00     0.129 C 
HETATM    7  N   UNL     1      -7.272   3.650 -31.943  1.00  0.00    -0.348 N 
HETATM    8  C   UNL     1      -7.044   3.042 -33.185  1.00  0.00     0.259 C 
HETATM    9  O   UNL     1      -7.090   3.652 -34.251  1.00  0.00    -0.267 OA
HETATM   10  C   UNL     1      -6.734   3.165 -30.681  1.00  0.00     0.129 C 
HETATM   11  C   UNL     1      -5.437   3.909 -30.366  1.00  0.00     0.061 C 
HETATM   12  N   UNL     1      -4.253   6.107 -30.522  1.00  0.00    -0.346 N 
HETATM   13  C   UNL     1      -3.927   6.659 -29.216  1.00  0.00     0.254 C 
ENDROOT
BRANCH  12  14
HETATM   14  C   UNL     1      -3.292   6.063 -31.517  1.00  0.00     0.032 A 
HETATM   15  C   UNL     1      -2.441   4.963 -31.717  1.00  0.00     0.029 A 
HETATM   16  C   UNL     1      -1.485   4.923 -32.742  1.00  0.00     0.002 A 
HETATM   17  C   UNL     1      -1.347   5.994 -33.612  1.00  0.00     0.000 A 
HETATM   18  C   UNL     1      -2.166   7.102 -33.452  1.00  0.00     0.002 A 
HETATM   19  C   UNL     1      -3.118   7.129 -32.422  1.00  0.00     0.029 A 
ENDBRANCH  12  14
BRANCH   1  20
HETATM   20  C   UNL     1      -5.275   7.075 -27.119  1.00  0.00     0.230 C 
BRANCH  20  21
HETATM   21  C   UNL     1      -3.965   7.363 -26.366  1.00  0.00     0.236 C 
HETATM   22  N   UNL     1      -3.049   6.332 -26.382  1.00  0.00    -0.351 N 
HETATM   23  H   UNL     1      -3.348   5.410 -26.671  1.00  0.00     0.163 HD
HETATM   24  O   UNL     1      -3.762   8.411 -25.757  1.00  0.00    -0.272 OA
BRANCH  22  25
HETATM   25  C   UNL     1      -1.791   6.436 -25.646  1.00  0.00     0.113 C 
HETATM   26  C   UNL     1      -1.431   5.047 -25.098  1.00  0.00     0.037 C 
BRANCH  25  27
HETATM   27  C   UNL     1      -0.672   7.061 -26.477  1.00  0.00    -0.036 A 
HETATM   28  C   UNL     1      -0.284   6.539 -27.724  1.00  0.00     0.009 A 
HETATM   29  C   UNL     1       0.724   7.146 -28.481  1.00  0.00     0.001 A 
HETATM   30  C   UNL     1       1.347   8.301 -28.019  1.00  0.00     0.000 A 
HETATM   31  C   UNL     1       0.955   8.857 -26.807  1.00  0.00     0.001 A 
HETATM   32  C   UNL     1      -0.049   8.248 -26.049  1.00  0.00     0.009 A 
ENDBRANCH  25  27
ENDBRANCH  22  25
ENDBRANCH  20  21
ENDBRANCH   1  20
BRANCH   8  33
HETATM   33  C   UNL     1      -6.859   1.572 -33.226  1.00  0.00     0.098 A 
HETATM   34  C   UNL     1      -5.550   1.066 -33.150  1.00  0.00     0.086 A 
HETATM   35  C   UNL     1      -5.326  -0.311 -33.170  1.00  0.00     0.038 A 
HETATM   36  C   UNL     1      -6.400  -1.186 -33.293  1.00  0.00     0.005 A 
HETATM   37  C   UNL     1      -7.706  -0.690 -33.354  1.00  0.00     0.038 A 
HETATM   38  C   UNL     1      -7.951   0.689 -33.305  1.00  0.00     0.086 A 
BRANCH  34  39
HETATM   39  O   UNL     1      -4.469   1.879 -32.931  1.00  0.00    -0.355 OA
HETATM   40  C   UNL     1      -3.525   1.259 -32.061  1.00  0.00     0.210 C 
ENDBRANCH  34  39
BRANCH  38  41
HETATM   41  O   UNL     1      -9.202   1.243 -33.314  1.00  0.00    -0.355 OA
HETATM   42  C   UNL     1     -10.314   0.377 -33.125  1.00  0.00     0.210 C 
ENDBRANCH  38  41
ENDBRANCH   8  33
TORSDOF 8
ENDMDL
MODEL 6
REMARK VINA RESULT:      -8.8      2.138      4.597
REMARK  8 active torsions:
REMARK  status: ('A' for Active; 'I' for Inactive)
REMARK    1  A    between atoms: C_2  and  N_3 
REMARK    2  A    between atoms: C_2  and  C_36 
REMARK       I    between atoms: N_3  and  C_4 
REMARK    3  A    between atoms: C_4  and  C_5 
REMARK    4  A    between atoms: C_5  and  N_6 
REMARK       I    between atoms: N_12  and  C_13 
REMARK    5  A    between atoms: C_13  and  C_14 
REMARK    6  A    between atoms: C_15  and  O_16 
REMARK    7  A    between atoms: C_21  and  O_22 
REMARK    8  A    between atoms: N_27  and  C_28 
ROOT
HETATM    1  N   UNL     1      -5.111   6.503 -28.521  1.00  0.00    -0.325 N 
HETATM    2  C   UNL     1      -6.168   5.952 -29.218  1.00  0.00     0.250 C 
HETATM    3  O   UNL     1      -7.306   5.813 -28.791  1.00  0.00    -0.270 OA
HETATM    4  C   UNL     1      -5.630   5.475 -30.583  1.00  0.00     0.118 C 
HETATM    5  C   UNL     1      -6.574   5.977 -31.692  1.00  0.00     0.061 C 
HETATM    6  C   UNL     1      -7.754   5.045 -31.934  1.00  0.00     0.129 C 
HETATM    7  N   UNL     1      -7.326   3.656 -31.977  1.00  0.00    -0.348 N 
HETATM    8  C   UNL     1      -7.119   3.047 -33.222  1.00  0.00     0.259 C 
HETATM    9  O   UNL     1      -7.199   3.652 -34.289  1.00  0.00    -0.267 OA
HETATM   10  C   UNL     1      -6.751   3.183 -30.727  1.00  0.00     0.129 C 
HETATM   11  C   UNL     1      -5.457   3.945 -30.445  1.00  0.00     0.061 C 
HETATM   12  N   UNL     1      -4.306   6.158 -30.638  1.00  0.00    -0.346 N 
HETATM   13  C   UNL     1      -3.956   6.719 -29.341  1.00  0.00     0.254 C 
ENDROOT
BRANCH  12  14
HETATM   14  C   UNL     1      -3.368   6.122 -31.655  1.00  0.00     0.032 A 
HETATM   15  C   UNL     1      -2.855   4.928 -32.188  1.00  0.00     0.029 A 
HETATM   16  C   UNL     1      -1.920   4.906 -33.233  1.00  0.00     0.002 A 
HETATM   17  C   UNL     1      -1.463   6.092 -33.787  1.00  0.00     0.000 A 
HETATM   18  C   UNL     1      -1.942   7.295 -33.293  1.00  0.00     0.002 A 
HETATM   19  C   UNL     1      -2.877   7.303 -32.247  1.00  0.00     0.029 A 
ENDBRANCH  12  14
BRANCH   1  20
HETATM   20  C   UNL     1      -5.258   7.126 -27.214  1.00  0.00     0.230 C 
BRANCH  20  21
HETATM   21  C   UNL     1      -3.936   7.405 -26.481  1.00  0.00     0.236 C 
HETATM   22  N   UNL     1      -3.083   6.324 -26.392  1.00  0.00    -0.351 N 
HETATM   23  H   UNL     1      -3.437   5.398 -26.595  1.00  0.00     0.163 HD
HETATM   24  O   UNL     1      -3.672   8.491 -25.971  1.00  0.00    -0.272 OA
BRANCH  22  25
HETATM   25  C   UNL     1      -1.824   6.421 -25.657  1.00  0.00     0.113 C 
HETATM   26  C   UNL     1      -1.464   5.028 -25.119  1.00  0.00     0.037 C 
BRANCH  25  27
HETATM   27  C   UNL     1      -0.706   7.051 -26.486  1.00  0.00    -0.036 A 
HETATM   28  C   UNL     1      -0.348   6.562 -27.756  1.00  0.00     0.009 A 
HETATM   29  C   UNL     1       0.659   7.173 -28.510  1.00  0.00     0.001 A 
HETATM   30  C   UNL     1       1.313   8.300 -28.022  1.00  0.00     0.000 A 
HETATM   31  C   UNL     1       0.952   8.825 -26.786  1.00  0.00     0.001 A 
HETATM   32  C   UNL     1      -0.053   8.211 -26.032  1.00  0.00     0.009 A 
ENDBRANCH  25  27
ENDBRANCH  22  25
ENDBRANCH  20  21
ENDBRANCH   1  20
BRANCH   8  33
HETATM   33  C   UNL     1      -6.916   1.579 -33.262  1.00  0.00     0.098 A 
HETATM   34  C   UNL     1      -8.036   0.759 -33.480  1.00  0.00     0.086 A 
HETATM   35  C   UNL     1      -7.893  -0.627 -33.540  1.00  0.00     0.038 A 
HETATM   36  C   UNL     1      -6.640  -1.202 -33.357  1.00  0.00     0.005 A 
HETATM   37  C   UNL     1      -5.518  -0.392 -33.153  1.00  0.00     0.038 A 
HETATM   38  C   UNL     1      -5.640   1.003 -33.120  1.00  0.00     0.086 A 
BRANCH  34  39
HETATM   39  O   UNL     1      -9.272   1.280 -33.763  1.00  0.00    -0.355 OA
HETATM   40  C   UNL     1     -10.310   0.468 -33.220  1.00  0.00     0.210 C 
ENDBRANCH  34  39
BRANCH  38  41
HETATM   41  O   UNL     1      -4.583   1.858 -32.971  1.00  0.00    -0.355 OA
HETATM   42  C   UNL     1      -3.470   1.414 -32.203  1.00  0.00     0.210 C 
ENDBRANCH  38  41
ENDBRANCH   8  33
TORSDOF 8
ENDMDL
MODEL 7
REMARK VINA RESULT:      -8.5      2.623      5.180
REMARK  8 active torsions:
REMARK  status: ('A' for Active; 'I' for Inactive)
REMARK    1  A    between atoms: C_2  and  N_3 
REMARK    2  A    between atoms: C_2  and  C_36 
REMARK       I    between atoms: N_3  and  C_4 
REMARK    3  A    between atoms: C_4  and  C_5 
REMARK    4  A    between atoms: C_5  and  N_6 
REMARK       I    between atoms: N_12  and  C_13 
REMARK    5  A    between atoms: C_13  and  C_14 
REMARK    6  A    between atoms: C_15  and  O_16 
REMARK    7  A    between atoms: C_21  and  O_22 
REMARK    8  A    between atoms: N_27  and  C_28 
ROOT
HETATM    1  N   UNL     1      -3.346   7.115 -28.649  1.00  0.00    -0.325 N 
HETATM    2  C   UNL     1      -4.657   6.925 -29.040  1.00  0.00     0.250 C 
HETATM    3  O   UNL     1      -5.643   7.151 -28.352  1.00  0.00    -0.270 OA
HETATM    4  C   UNL     1      -4.639   6.306 -30.453  1.00  0.00     0.118 C 
HETATM    5  C   UNL     1      -5.624   7.082 -31.347  1.00  0.00     0.061 C 
HETATM    6  C   UNL     1      -7.054   6.569 -31.239  1.00  0.00     0.129 C 
HETATM    7  N   UNL     1      -7.095   5.116 -31.277  1.00  0.00    -0.348 N 
HETATM    8  C   UNL     1      -7.394   4.475 -32.486  1.00  0.00     0.259 C 
HETATM    9  O   UNL     1      -7.542   5.077 -33.548  1.00  0.00    -0.267 OA
HETATM   10  C   UNL     1      -6.407   4.484 -30.161  1.00  0.00     0.129 C 
HETATM   11  C   UNL     1      -4.914   4.799 -30.244  1.00  0.00     0.061 C 
HETATM   12  N   UNL     1      -3.225   6.537 -30.863  1.00  0.00    -0.346 N 
HETATM   13  C   UNL     1      -2.416   6.958 -29.727  1.00  0.00     0.254 C 
ENDROOT
BRANCH  12  14
HETATM   14  C   UNL     1      -2.620   6.211 -32.064  1.00  0.00     0.032 A 
HETATM   15  C   UNL     1      -1.854   7.121 -32.812  1.00  0.00     0.029 A 
HETATM   16  C   UNL     1      -1.229   6.772 -34.018  1.00  0.00     0.002 A 
HETATM   17  C   UNL     1      -1.350   5.485 -34.521  1.00  0.00     0.000 A 
HETATM   18  C   UNL     1      -2.097   4.554 -33.816  1.00  0.00     0.002 A 
HETATM   19  C   UNL     1      -2.717   4.916 -32.611  1.00  0.00     0.029 A 
ENDBRANCH  12  14
BRANCH   1  20
HETATM   20  C   UNL     1      -2.973   7.749 -27.394  1.00  0.00     0.230 C 
BRANCH  20  21
HETATM   21  C   UNL     1      -1.560   7.409 -26.894  1.00  0.00     0.236 C 
HETATM   22  N   UNL     1      -0.639   8.427 -27.022  1.00  0.00    -0.351 N 
HETATM   23  H   UNL     1      -0.858   9.221 -27.611  1.00  0.00     0.163 HD
HETATM   24  O   UNL     1      -1.256   6.302 -26.455  1.00  0.00    -0.272 OA
BRANCH  22  25
HETATM   25  C   UNL     1       0.762   8.222 -26.658  1.00  0.00     0.113 C 
HETATM   26  C   UNL     1       1.643   8.687 -27.826  1.00  0.00     0.037 C 
BRANCH  25  27
HETATM   27  C   UNL     1       1.128   8.883 -25.330  1.00  0.00    -0.036 A 
HETATM   28  C   UNL     1       0.207   9.655 -24.599  1.00  0.00     0.009 A 
HETATM   29  C   UNL     1       0.555  10.228 -23.371  1.00  0.00     0.001 A 
HETATM   30  C   UNL     1       1.823  10.019 -22.836  1.00  0.00     0.000 A 
HETATM   31  C   UNL     1       2.738   9.229 -23.522  1.00  0.00     0.001 A 
HETATM   32  C   UNL     1       2.390   8.661 -24.751  1.00  0.00     0.009 A 
ENDBRANCH  25  27
ENDBRANCH  22  25
ENDBRANCH  20  21
ENDBRANCH   1  20
BRANCH   8  33
HETATM   33  C   UNL     1      -7.665   3.018 -32.463  1.00  0.00     0.098 A 
HETATM   34  C   UNL     1      -6.614   2.142 -32.784  1.00  0.00     0.086 A 
HETATM   35  C   UNL     1      -6.816   0.762 -32.762  1.00  0.00     0.038 A 
HETATM   36  C   UNL     1      -8.071   0.251 -32.446  1.00  0.00     0.005 A 
HETATM   37  C   UNL     1      -9.118   1.116 -32.112  1.00  0.00     0.038 A 
HETATM   38  C   UNL     1      -8.923   2.504 -32.100  1.00  0.00     0.086 A 
BRANCH  34  39
HETATM   39  O   UNL     1      -5.338   2.591 -33.006  1.00  0.00    -0.355 OA
HETATM   40  C   UNL     1      -4.376   1.730 -32.400  1.00  0.00     0.210 C 
ENDBRANCH  34  39
BRANCH  38  41
HETATM   41  O   UNL     1      -9.886   3.406 -31.739  1.00  0.00    -0.355 OA
HETATM   42  C   UNL     1     -11.085   3.442 -32.504  1.00  0.00     0.210 C 
ENDBRANCH  38  41
ENDBRANCH   8  33
TORSDOF 8
ENDMDL
MODEL 8
REMARK VINA RESULT:      -8.5      3.077      6.674
REMARK  8 active torsions:
REMARK  status: ('A' for Active; 'I' for Inactive)
REMARK    1  A    between atoms: C_2  and  N_3 
REMARK    2  A    between atoms: C_2  and  C_36 
REMARK       I    between atoms: N_3  and  C_4 
REMARK    3  A    between atoms: C_4  and  C_5 
REMARK    4  A    between atoms: C_5  and  N_6 
REMARK       I    between atoms: N_12  and  C_13 
REMARK    5  A    between atoms: C_13  and  C_14 
REMARK    6  A    between atoms: C_15  and  O_16 
REMARK    7  A    between atoms: C_21  and  O_22 
REMARK    8  A    between atoms: N_27  and  C_28 
ROOT
HETATM    1  N   UNL     1      -6.658   4.152 -30.111  1.00  0.00    -0.325 N 
HETATM    2  C   UNL     1      -7.717   4.782 -30.733  1.00  0.00     0.250 C 
HETATM    3  O   UNL     1      -8.174   5.874 -30.424  1.00  0.00    -0.270 OA
HETATM    4  C   UNL     1      -8.259   3.827 -31.817  1.00  0.00     0.118 C 
HETATM    5  C   UNL     1      -8.430   4.614 -33.130  1.00  0.00     0.061 C 
HETATM    6  C   UNL     1      -9.770   5.332 -33.221  1.00  0.00     0.129 C 
HETATM    7  N   UNL     1     -10.859   4.468 -32.795  1.00  0.00    -0.348 N 
HETATM    8  C   UNL     1     -11.618   3.800 -33.765  1.00  0.00     0.259 C 
HETATM    9  O   UNL     1     -11.358   3.838 -34.966  1.00  0.00    -0.267 OA
HETATM   10  C   UNL     1     -10.769   4.062 -31.400  1.00  0.00     0.129 C 
HETATM   11  C   UNL     1      -9.529   3.191 -31.206  1.00  0.00     0.061 C 
HETATM   12  N   UNL     1      -7.157   2.828 -31.913  1.00  0.00    -0.346 N 
HETATM   13  C   UNL     1      -6.217   2.982 -30.812  1.00  0.00     0.254 C 
ENDROOT
BRANCH  12  14
HETATM   14  C   UNL     1      -7.070   1.732 -32.753  1.00  0.00     0.032 A 
HETATM   15  C   UNL     1      -7.007   0.408 -32.286  1.00  0.00     0.029 A 
HETATM   16  C   UNL     1      -6.941  -0.696 -33.148  1.00  0.00     0.002 A 
HETATM   17  C   UNL     1      -6.934  -0.511 -34.522  1.00  0.00     0.000 A 
HETATM   18  C   UNL     1      -6.994   0.779 -35.028  1.00  0.00     0.002 A 
HETATM   19  C   UNL     1      -7.061   1.874 -34.154  1.00  0.00     0.029 A 
ENDBRANCH  12  14
BRANCH   1  20
HETATM   20  C   UNL     1      -5.850   4.783 -29.078  1.00  0.00     0.230 C 
BRANCH  20  21
HETATM   21  C   UNL     1      -4.941   5.919 -29.575  1.00  0.00     0.236 C 
HETATM   22  N   UNL     1      -3.769   5.504 -30.174  1.00  0.00    -0.351 N 
HETATM   23  H   UNL     1      -3.471   4.543 -30.062  1.00  0.00     0.163 HD
HETATM   24  O   UNL     1      -5.209   7.107 -29.414  1.00  0.00    -0.272 OA
BRANCH  22  25
HETATM   25  C   UNL     1      -2.774   6.473 -30.628  1.00  0.00     0.113 C 
HETATM   26  C   UNL     1      -1.667   6.567 -29.568  1.00  0.00     0.037 C 
BRANCH  25  27
HETATM   27  C   UNL     1      -2.242   6.162 -32.025  1.00  0.00    -0.036 A 
HETATM   28  C   UNL     1      -2.442   4.913 -32.641  1.00  0.00     0.009 A 
HETATM   29  C   UNL     1      -1.970   4.660 -33.934  1.00  0.00     0.001 A 
HETATM   30  C   UNL     1      -1.313   5.658 -34.648  1.00  0.00     0.000 A 
HETATM   31  C   UNL     1      -1.136   6.912 -34.074  1.00  0.00     0.001 A 
HETATM   32  C   UNL     1      -1.604   7.163 -32.781  1.00  0.00     0.009 A 
ENDBRANCH  25  27
ENDBRANCH  22  25
ENDBRANCH  20  21
ENDBRANCH   1  20
BRANCH   8  33
HETATM   33  C   UNL     1     -12.862   3.117 -33.338  1.00  0.00     0.098 A 
HETATM   34  C   UNL     1     -13.888   3.896 -32.778  1.00  0.00     0.086 A 
HETATM   35  C   UNL     1     -15.083   3.301 -32.374  1.00  0.00     0.038 A 
HETATM   36  C   UNL     1     -15.250   1.926 -32.502  1.00  0.00     0.005 A 
HETATM   37  C   UNL     1     -14.238   1.147 -33.072  1.00  0.00     0.038 A 
HETATM   38  C   UNL     1     -13.044   1.733 -33.510  1.00  0.00     0.086 A 
BRANCH  34  39
HETATM   39  O   UNL     1     -13.812   5.264 -32.720  1.00  0.00    -0.355 OA
HETATM   40  C   UNL     1     -14.697   5.789 -31.733  1.00  0.00     0.210 C 
ENDBRANCH  34  39
BRANCH  38  41
HETATM   41  O   UNL     1     -12.032   1.041 -34.118  1.00  0.00    -0.355 OA
HETATM   42  C   UNL     1     -10.997   0.517 -33.295  1.00  0.00     0.210 C 
ENDBRANCH  38  41
ENDBRANCH   8  33
TORSDOF 8
ENDMDL
MODEL 9
REMARK VINA RESULT:      -8.4      5.306      9.993
REMARK  8 active torsions:
REMARK  status: ('A' for Active; 'I' for Inactive)
REMARK    1  A    between atoms: C_2  and  N_3 
REMARK    2  A    between atoms: C_2  and  C_36 
REMARK       I    between atoms: N_3  and  C_4 
REMARK    3  A    between atoms: C_4  and  C_5 
REMARK    4  A    between atoms: C_5  and  N_6 
REMARK       I    between atoms: N_12  and  C_13 
REMARK    5  A    between atoms: C_13  and  C_14 
REMARK    6  A    between atoms: C_15  and  O_16 
REMARK    7  A    between atoms: C_21  and  O_22 
REMARK    8  A    between atoms: N_27  and  C_28 
ROOT
HETATM    1  N   UNL     1      -8.464   2.295 -32.288  1.00  0.00    -0.325 N 
HETATM    2  C   UNL     1      -8.673   3.496 -32.937  1.00  0.00     0.250 C 
HETATM    3  O   UNL     1      -7.841   4.381 -33.078  1.00  0.00    -0.270 OA
HETATM    4  C   UNL     1     -10.153   3.542 -33.371  1.00  0.00     0.118 C 
HETATM    5  C   UNL     1     -10.223   3.974 -34.848  1.00  0.00     0.061 C 
HETATM    6  C   UNL     1     -10.219   5.487 -35.024  1.00  0.00     0.129 C 
HETATM    7  N   UNL     1     -11.120   6.128 -34.079  1.00  0.00    -0.348 N 
HETATM    8  C   UNL     1     -12.403   6.496 -34.506  1.00  0.00     0.259 C 
HETATM    9  O   UNL     1     -12.844   6.228 -35.621  1.00  0.00    -0.267 OA
HETATM   10  C   UNL     1     -10.741   5.932 -32.688  1.00  0.00     0.129 C 
HETATM   11  C   UNL     1     -10.856   4.450 -32.337  1.00  0.00     0.061 C 
HETATM   12  N   UNL     1     -10.561   2.119 -33.195  1.00  0.00    -0.346 N 
HETATM   13  C   UNL     1      -9.551   1.376 -32.455  1.00  0.00     0.254 C 
ENDROOT
BRANCH  12  14
HETATM   14  C   UNL     1     -11.793   1.545 -33.457  1.00  0.00     0.032 A 
HETATM   15  C   UNL     1     -12.935   2.293 -33.788  1.00  0.00     0.029 A 
HETATM   16  C   UNL     1     -14.173   1.698 -34.071  1.00  0.00     0.002 A 
HETATM   17  C   UNL     1     -14.311   0.319 -34.031  1.00  0.00     0.000 A 
HETATM   18  C   UNL     1     -13.210  -0.460 -33.709  1.00  0.00     0.002 A 
HETATM   19  C   UNL     1     -11.977   0.148 -33.428  1.00  0.00     0.029 A 
ENDBRANCH  12  14
BRANCH   1  20
HETATM   20  C   UNL     1      -7.161   1.870 -31.799  1.00  0.00     0.230 C 
BRANCH  20  21
HETATM   21  C   UNL     1      -6.221   1.306 -32.877  1.00  0.00     0.236 C 
HETATM   22  N   UNL     1      -5.762   0.027 -32.634  1.00  0.00    -0.351 N 
HETATM   23  H   UNL     1      -5.872  -0.369 -31.709  1.00  0.00     0.163 HD
HETATM   24  O   UNL     1      -5.865   1.954 -33.858  1.00  0.00    -0.272 OA
BRANCH  22  25
HETATM   25  C   UNL     1      -4.803  -0.608 -33.535  1.00  0.00     0.113 C 
HETATM   26  C   UNL     1      -3.418  -0.578 -32.872  1.00  0.00     0.037 C 
BRANCH  25  27
HETATM   27  C   UNL     1      -5.234  -2.011 -33.958  1.00  0.00    -0.036 A 
HETATM   28  C   UNL     1      -6.545  -2.298 -34.378  1.00  0.00     0.009 A 
HETATM   29  C   UNL     1      -6.910  -3.584 -34.790  1.00  0.00     0.001 A 
HETATM   30  C   UNL     1      -5.964  -4.605 -34.815  1.00  0.00     0.000 A 
HETATM   31  C   UNL     1      -4.652  -4.338 -34.440  1.00  0.00     0.001 A 
HETATM   32  C   UNL     1      -4.290  -3.053 -34.025  1.00  0.00     0.009 A 
ENDBRANCH  25  27
ENDBRANCH  22  25
ENDBRANCH  20  21
ENDBRANCH   1  20
BRANCH   8  33
HETATM   33  C   UNL     1     -13.221   7.354 -33.615  1.00  0.00     0.098 A 
HETATM   34  C   UNL     1     -13.012   8.743 -33.657  1.00  0.00     0.086 A 
HETATM   35  C   UNL     1     -13.767   9.593 -32.849  1.00  0.00     0.038 A 
HETATM   36  C   UNL     1     -14.713   9.061 -31.978  1.00  0.00     0.005 A 
HETATM   37  C   UNL     1     -14.936   7.681 -31.942  1.00  0.00     0.038 A 
HETATM   38  C   UNL     1     -14.207   6.816 -32.769  1.00  0.00     0.086 A 
BRANCH  34  39
HETATM   39  O   UNL     1     -12.164   9.322 -34.565  1.00  0.00    -0.355 OA
HETATM   40  C   UNL     1     -11.020   9.877 -33.920  1.00  0.00     0.210 C 
ENDBRANCH  34  39
BRANCH  38  41
HETATM   41  O   UNL     1     -14.403   5.463 -32.820  1.00  0.00    -0.355 OA
HETATM   42  C   UNL     1     -14.692   4.786 -31.603  1.00  0.00     0.210 C 
ENDBRANCH  38  41
ENDBRANCH   8  33
TORSDOF 8
ENDMDL
MODEL 10
REMARK VINA RESULT:      -8.4      2.627      5.472
REMARK  8 active torsions:
REMARK  status: ('A' for Active; 'I' for Inactive)
REMARK    1  A    between atoms: C_2  and  N_3 
REMARK    2  A    between atoms: C_2  and  C_36 
REMARK       I    between atoms: N_3  and  C_4 
REMARK    3  A    between atoms: C_4  and  C_5 
REMARK    4  A    between atoms: C_5  and  N_6 
REMARK       I    between atoms: N_12  and  C_13 
REMARK    5  A    between atoms: C_13  and  C_14 
REMARK    6  A    between atoms: C_15  and  O_16 
REMARK    7  A    between atoms: C_21  and  O_22 
REMARK    8  A    between atoms: N_27  and  C_28 
ROOT
HETATM    1  N   UNL     1      -3.448   7.092 -28.546  1.00  0.00    -0.325 N 
HETATM    2  C   UNL     1      -4.761   6.875 -28.916  1.00  0.00     0.250 C 
HETATM    3  O   UNL     1      -5.739   7.065 -28.207  1.00  0.00    -0.270 OA
HETATM    4  C   UNL     1      -4.753   6.279 -30.339  1.00  0.00     0.118 C 
HETATM    5  C   UNL     1      -5.774   7.044 -31.203  1.00  0.00     0.061 C 
HETATM    6  C   UNL     1      -7.188   6.493 -31.078  1.00  0.00     0.129 C 
HETATM    7  N   UNL     1      -7.193   5.040 -31.138  1.00  0.00    -0.348 N 
HETATM    8  C   UNL     1      -7.498   4.411 -32.352  1.00  0.00     0.259 C 
HETATM    9  O   UNL     1      -7.681   5.025 -33.401  1.00  0.00    -0.267 OA
HETATM   10  C   UNL     1      -6.469   4.408 -30.045  1.00  0.00     0.129 C 
HETATM   11  C   UNL     1      -4.986   4.762 -30.150  1.00  0.00     0.061 C 
HETATM   12  N   UNL     1      -3.353   6.553 -30.771  1.00  0.00    -0.346 N 
HETATM   13  C   UNL     1      -2.534   6.976 -29.644  1.00  0.00     0.254 C 
ENDROOT
BRANCH  12  14
HETATM   14  C   UNL     1      -2.762   6.261 -31.988  1.00  0.00     0.032 A 
HETATM   15  C   UNL     1      -2.322   7.248 -32.887  1.00  0.00     0.029 A 
HETATM   16  C   UNL     1      -1.707   6.938 -34.108  1.00  0.00     0.002 A 
HETATM   17  C   UNL     1      -1.508   5.616 -34.476  1.00  0.00     0.000 A 
HETATM   18  C   UNL     1      -1.927   4.608 -33.620  1.00  0.00     0.002 A 
HETATM   19  C   UNL     1      -2.541   4.932 -32.401  1.00  0.00     0.029 A 
ENDBRANCH  12  14
BRANCH   1  20
HETATM   20  C   UNL     1      -3.068   7.716 -27.288  1.00  0.00     0.230 C 
BRANCH  20  21
HETATM   21  C   UNL     1      -1.652   7.372 -26.799  1.00  0.00     0.236 C 
HETATM   22  N   UNL     1      -0.725   8.382 -26.951  1.00  0.00    -0.351 N 
HETATM   23  H   UNL     1      -0.945   9.169 -27.547  1.00  0.00     0.163 HD
HETATM   24  O   UNL     1      -1.351   6.268 -26.349  1.00  0.00    -0.272 OA
BRANCH  22  25
HETATM   25  C   UNL     1       0.678   8.171 -26.598  1.00  0.00     0.113 C 
HETATM   26  C   UNL     1       1.547   8.551 -27.806  1.00  0.00     0.037 C 
BRANCH  25  27
HETATM   27  C   UNL     1       1.080   8.901 -25.318  1.00  0.00    -0.036 A 
HETATM   28  C   UNL     1       0.169   9.681 -24.583  1.00  0.00     0.009 A 
HETATM   29  C   UNL     1       0.552  10.317 -23.397  1.00  0.00     0.001 A 
HETATM   30  C   UNL     1       1.845  10.165 -22.907  1.00  0.00     0.000 A 
HETATM   31  C   UNL     1       2.753   9.368 -23.596  1.00  0.00     0.001 A 
HETATM   32  C   UNL     1       2.371   8.736 -24.783  1.00  0.00     0.009 A 
ENDBRANCH  25  27
ENDBRANCH  22  25
ENDBRANCH  20  21
ENDBRANCH   1  20
BRANCH   8  33
HETATM   33  C   UNL     1      -7.732   2.947 -32.347  1.00  0.00     0.098 A 
HETATM   34  C   UNL     1      -9.033   2.484 -32.090  1.00  0.00     0.086 A 
HETATM   35  C   UNL     1      -9.306   1.116 -32.088  1.00  0.00     0.038 A 
HETATM   36  C   UNL     1      -8.280   0.205 -32.316  1.00  0.00     0.005 A 
HETATM   37  C   UNL     1      -6.985   0.659 -32.586  1.00  0.00     0.038 A 
HETATM   38  C   UNL     1      -6.700   2.031 -32.621  1.00  0.00     0.086 A 
BRANCH  34  39
HETATM   39  O   UNL     1     -10.096   3.340 -31.956  1.00  0.00    -0.355 OA
HETATM   40  C   UNL     1     -11.043   3.154 -33.005  1.00  0.00     0.210 C 
ENDBRANCH  34  39
BRANCH  38  41
HETATM   41  O   UNL     1      -5.471   2.548 -32.924  1.00  0.00    -0.355 OA
HETATM   42  C   UNL     1      -4.322   1.848 -32.460  1.00  0.00     0.210 C 
ENDBRANCH  38  41
ENDBRANCH   8  33
TORSDOF 8
ENDMDL
