MODEL 1
REMARK VINA RESULT:      -8.7      0.000      0.000
REMARK  8 active torsions:
REMARK  status: ('A' for Active; 'I' for Inactive)
REMARK    1  A    between atoms: O_2  and  C_3 
REMARK    2  A    between atoms: C_6  and  C_7 
REMARK    3  A    between atoms: C_7  and  N_8 
REMARK    4  A    between atoms: C_7  and  C_27 
REMARK    5  A    between atoms: N_8  and  C_11 
REMARK    6  A    between atoms: C_11  and  C_12 
REMARK       I    between atoms: C_12  and  N_13 
REMARK    7  A    between atoms: N_13  and  C_14 
REMARK    8  A    between atoms: C_17  and  N_18 
ROOT
HETATM    1  N   UNL     1      -3.252   6.316 -29.101  1.00  0.00    -0.055 N 
HETATM    2  H   UNL     1      -2.918   5.352 -29.277  1.00  0.00     0.278 HD
HETATM    3  H   UNL     1      -3.325   6.358 -28.079  1.00  0.00     0.278 HD
ENDROOT
BRANCH   1   4
HETATM    4  C   UNL     1      -2.200   7.266 -29.570  1.00  0.00     0.252 C 
BRANCH   4   5
HETATM    5  C   UNL     1      -1.027   7.422 -28.610  1.00  0.00    -0.023 A 
HETATM    6  C   UNL     1       0.187   8.035 -28.974  1.00  0.00     0.012 A 
HETATM    7  C   UNL     1       1.238   8.158 -28.056  1.00  0.00     0.037 A 
HETATM    8  C   UNL     1       1.093   7.683 -26.755  1.00  0.00     0.068 A 
HETATM    9  C   UNL     1      -0.108   7.082 -26.382  1.00  0.00     0.037 A 
HETATM   10  C   UNL     1      -1.161   6.957 -27.293  1.00  0.00     0.012 A 
BRANCH   8  11
HETATM   11  O   UNL     1       2.035   7.740 -25.768  1.00  0.00    -0.356 OA
HETATM   12  C   UNL     1       2.420   9.030 -25.307  1.00  0.00     0.210 C 
ENDBRANCH   8  11
ENDBRANCH   4   5
BRANCH   4  13
HETATM   13  C   UNL     1      -1.806   6.898 -30.991  1.00  0.00    -0.023 A 
HETATM   14  C   UNL     1      -2.014   7.824 -32.029  1.00  0.00     0.009 A 
HETATM   15  C   UNL     1      -1.728   7.489 -33.354  1.00  0.00     0.001 A 
HETATM   16  C   UNL     1      -1.235   6.225 -33.665  1.00  0.00     0.000 A 
HETATM   17  C   UNL     1      -1.026   5.294 -32.652  1.00  0.00     0.001 A 
HETATM   18  C   UNL     1      -1.313   5.623 -31.326  1.00  0.00     0.009 A 
ENDBRANCH   4  13
ENDBRANCH   1   4
BRANCH   1  19
HETATM   19  C   UNL     1      -4.607   6.415 -29.746  1.00  0.00     0.336 C 
BRANCH  19  20
HETATM   20  C   UNL     1      -4.749   5.274 -30.751  1.00  0.00     0.248 C 
HETATM   21  N   UNL     1      -4.399   4.032 -30.262  1.00  0.00    -0.326 N 
HETATM   22  H   UNL     1      -4.032   3.957 -29.320  1.00  0.00     0.169 HD
HETATM   23  O   UNL     1      -5.037   5.568 -31.909  1.00  0.00    -0.271 OA
BRANCH  21  24
HETATM   24  C   UNL     1      -4.439   2.811 -30.968  1.00  0.00     0.034 A 
HETATM   25  C   UNL     1      -3.460   2.396 -31.866  1.00  0.00     0.032 A 
HETATM   26  C   UNL     1      -3.604   1.189 -32.567  1.00  0.00     0.032 A 
HETATM   27  C   UNL     1      -4.717   0.361 -32.382  1.00  0.00     0.037 A 
HETATM   28  C   UNL     1      -5.679   0.775 -31.451  1.00  0.00     0.032 A 
HETATM   29  C   UNL     1      -5.551   1.990 -30.766  1.00  0.00     0.032 A 
BRANCH  27  30
HETATM   30  N   UNL     1      -4.887  -0.846 -33.111  1.00  0.00    -0.318 N 
HETATM   31  C   UNL     1      -4.118  -2.014 -32.969  1.00  0.00     0.224 C 
HETATM   32  O   UNL     1      -3.216  -2.253 -32.181  1.00  0.00    -0.273 OA
HETATM   33  C   UNL     1      -4.530  -2.972 -34.063  1.00  0.00     0.105 C 
HETATM   34  C   UNL     1      -5.889  -2.452 -34.483  1.00  0.00     0.029 C 
HETATM   35  C   UNL     1      -5.780  -0.960 -34.242  1.00  0.00     0.133 C 
ENDBRANCH  27  30
ENDBRANCH  21  24
ENDBRANCH  19  20
ENDBRANCH   1  19
TORSDOF 8
ENDMDL
MODEL 2
REMARK VINA RESULT:      -8.6      2.165      4.554
REMARK  8 active torsions:
REMARK  status: ('A' for Active; 'I' for Inactive)
REMARK    1  A    between atoms: O_2  and  C_3 
REMARK    2  A    between atoms: C_6  and  C_7 
REMARK    3  A    between atoms: C_7  and  N_8 
REMARK    4  A    between atoms: C_7  and  C_27 
REMARK    5  A    between atoms: N_8  and  C_11 
REMARK    6  A    between atoms: C_11  and  C_12 
REMARK       I    between atoms: C_12  and  N_13 
REMARK    7  A    between atoms: N_13  and  C_14 
REMARK    8  A    between atoms: C_17  and  N_18 
ROOT
HETATM    1  N   UNL     1      -3.247   7.824 -28.636  1.00  0.00    -0.055 N 
HETATM    2  H   UNL     1      -3.102   8.484 -27.852  1.00  0.00     0.278 HD
HETATM    3  H   UNL     1      -3.578   8.427 -29.396  1.00  0.00     0.278 HD
ENDROOT
BRANCH   1   4
HETATM    4  C   UNL     1      -1.923   7.236 -29.000  1.00  0.00     0.252 C 
BRANCH   4   5
HETATM    5  C   UNL     1      -1.709   7.061 -30.498  1.00  0.00    -0.023 A 
HETATM    6  C   UNL     1      -1.823   8.120 -31.419  1.00  0.00     0.012 A 
HETATM    7  C   UNL     1      -1.615   7.911 -32.789  1.00  0.00     0.037 A 
HETATM    8  C   UNL     1      -1.278   6.647 -33.264  1.00  0.00     0.068 A 
HETATM    9  C   UNL     1      -1.154   5.593 -32.359  1.00  0.00     0.037 A 
HETATM   10  C   UNL     1      -1.359   5.795 -30.991  1.00  0.00     0.012 A 
BRANCH   8  11
HETATM   11  O   UNL     1      -1.049   6.311 -34.567  1.00  0.00    -0.356 OA
HETATM   12  C   UNL     1      -1.599   5.084 -35.031  1.00  0.00     0.210 C 
ENDBRANCH   8  11
ENDBRANCH   4   5
BRANCH   4  13
HETATM   13  C   UNL     1      -0.829   8.020 -28.294  1.00  0.00    -0.023 A 
HETATM   14  C   UNL     1      -1.173   9.137 -27.512  1.00  0.00     0.009 A 
HETATM   15  C   UNL     1      -0.185   9.919 -26.910  1.00  0.00     0.001 A 
HETATM   16  C   UNL     1       1.159   9.601 -27.080  1.00  0.00     0.000 A 
HETATM   17  C   UNL     1       1.519   8.501 -27.853  1.00  0.00     0.001 A 
HETATM   18  C   UNL     1       0.536   7.718 -28.461  1.00  0.00     0.009 A 
ENDBRANCH   4  13
ENDBRANCH   1   4
BRANCH   1  19
HETATM   19  C   UNL     1      -4.324   6.873 -28.190  1.00  0.00     0.336 C 
BRANCH  19  20
HETATM   20  C   UNL     1      -4.890   6.172 -29.423  1.00  0.00     0.248 C 
HETATM   21  N   UNL     1      -4.839   4.794 -29.374  1.00  0.00    -0.326 N 
HETATM   22  H   UNL     1      -4.399   4.344 -28.579  1.00  0.00     0.169 HD
HETATM   23  O   UNL     1      -5.219   6.874 -30.376  1.00  0.00    -0.271 OA
BRANCH  21  24
HETATM   24  C   UNL     1      -5.294   3.901 -30.367  1.00  0.00     0.034 A 
HETATM   25  C   UNL     1      -6.613   3.476 -30.488  1.00  0.00     0.032 A 
HETATM   26  C   UNL     1      -6.972   2.542 -31.474  1.00  0.00     0.032 A 
HETATM   27  C   UNL     1      -6.030   2.022 -32.369  1.00  0.00     0.037 A 
HETATM   28  C   UNL     1      -4.713   2.485 -32.257  1.00  0.00     0.032 A 
HETATM   29  C   UNL     1      -4.345   3.398 -31.261  1.00  0.00     0.032 A 
BRANCH  27  30
HETATM   30  N   UNL     1      -6.378   1.055 -33.349  1.00  0.00    -0.318 N 
HETATM   31  C   UNL     1      -6.185  -0.334 -33.246  1.00  0.00     0.224 C 
HETATM   32  O   UNL     1      -5.751  -0.985 -32.308  1.00  0.00    -0.273 OA
HETATM   33  C   UNL     1      -6.530  -0.947 -34.583  1.00  0.00     0.105 C 
HETATM   34  C   UNL     1      -7.381   0.120 -35.242  1.00  0.00     0.029 C 
HETATM   35  C   UNL     1      -6.820   1.409 -34.679  1.00  0.00     0.133 C 
ENDBRANCH  27  30
ENDBRANCH  21  24
ENDBRANCH  19  20
ENDBRANCH   1  19
TORSDOF 8
ENDMDL
MODEL 3
REMARK VINA RESULT:      -8.6      3.679     10.006
REMARK  8 active torsions:
REMARK  status: ('A' for Active; 'I' for Inactive)
REMARK    1  A    between atoms: O_2  and  C_3 
REMARK    2  A    between atoms: C_6  and  C_7 
REMARK    3  A    between atoms: C_7  and  N_8 
REMARK    4  A    between atoms: C_7  and  C_27 
REMARK    5  A    between atoms: N_8  and  C_11 
REMARK    6  A    between atoms: C_11  and  C_12 
REMARK       I    between atoms: C_12  and  N_13 
REMARK    7  A    between atoms: N_13  and  C_14 
REMARK    8  A    between atoms: C_17  and  N_18 
ROOT
HETATM    1  N   UNL     1      -9.392   1.539 -31.402  1.00  0.00    -0.055 N 
HETATM    2  H   UNL     1     -10.354   1.235 -31.173  1.00  0.00     0.278 HD
HETATM    3  H   UNL     1      -8.805   0.823 -30.963  1.00  0.00     0.278 HD
ENDROOT
BRANCH   1   4
HETATM    4  C   UNL     1      -9.227   1.484 -32.886  1.00  0.00     0.252 C 
BRANCH   4   5
HETATM    5  C   UNL     1      -8.137   0.531 -33.357  1.00  0.00    -0.023 A 
HETATM    6  C   UNL     1      -7.966   0.167 -34.706  1.00  0.00     0.012 A 
HETATM    7  C   UNL     1      -6.947  -0.713 -35.094  1.00  0.00     0.037 A 
HETATM    8  C   UNL     1      -6.071  -1.234 -34.146  1.00  0.00     0.068 A 
HETATM    9  C   UNL     1      -6.226  -0.873 -32.808  1.00  0.00     0.037 A 
HETATM   10  C   UNL     1      -7.240   0.004 -32.415  1.00  0.00     0.012 A 
BRANCH   8  11
HETATM   11  O   UNL     1      -5.041  -2.096 -34.389  1.00  0.00    -0.356 OA
HETATM   12  C   UNL     1      -5.367  -3.364 -34.945  1.00  0.00     0.210 C 
ENDBRANCH   8  11
ENDBRANCH   4   5
BRANCH   4  13
HETATM   13  C   UNL     1     -10.588   1.248 -33.520  1.00  0.00    -0.023 A 
HETATM   14  C   UNL     1     -11.095   2.186 -34.438  1.00  0.00     0.009 A 
HETATM   15  C   UNL     1     -12.371   2.033 -34.984  1.00  0.00     0.001 A 
HETATM   16  C   UNL     1     -13.162   0.946 -34.621  1.00  0.00     0.000 A 
HETATM   17  C   UNL     1     -12.679   0.011 -33.711  1.00  0.00     0.001 A 
HETATM   18  C   UNL     1     -11.405   0.161 -33.160  1.00  0.00     0.009 A 
ENDBRANCH   4  13
ENDBRANCH   1   4
BRANCH   1  19
HETATM   19  C   UNL     1      -9.204   2.875 -30.738  1.00  0.00     0.336 C 
BRANCH  19  20
HETATM   20  C   UNL     1      -7.708   3.119 -30.555  1.00  0.00     0.248 C 
HETATM   21  N   UNL     1      -7.174   4.069 -31.401  1.00  0.00    -0.326 N 
HETATM   22  H   UNL     1      -7.768   4.497 -32.102  1.00  0.00     0.169 HD
HETATM   23  O   UNL     1      -7.102   2.383 -29.780  1.00  0.00    -0.271 OA
BRANCH  21  24
HETATM   24  C   UNL     1      -5.828   4.493 -31.444  1.00  0.00     0.034 A 
HETATM   25  C   UNL     1      -4.864   3.945 -32.285  1.00  0.00     0.032 A 
HETATM   26  C   UNL     1      -3.534   4.389 -32.226  1.00  0.00     0.032 A 
HETATM   27  C   UNL     1      -3.135   5.396 -31.340  1.00  0.00     0.037 A 
HETATM   28  C   UNL     1      -4.122   5.961 -30.522  1.00  0.00     0.032 A 
HETATM   29  C   UNL     1      -5.446   5.506 -30.561  1.00  0.00     0.032 A 
BRANCH  27  30
HETATM   30  N   UNL     1      -1.785   5.829 -31.251  1.00  0.00    -0.318 N 
HETATM   31  C   UNL     1      -1.247   6.988 -31.836  1.00  0.00     0.224 C 
HETATM   32  O   UNL     1      -1.813   7.866 -32.470  1.00  0.00    -0.273 OA
HETATM   33  C   UNL     1       0.250   6.952 -31.637  1.00  0.00     0.105 C 
HETATM   34  C   UNL     1       0.422   5.972 -30.495  1.00  0.00     0.029 C 
HETATM   35  C   UNL     1      -0.736   5.013 -30.683  1.00  0.00     0.133 C 
ENDBRANCH  27  30
ENDBRANCH  21  24
ENDBRANCH  19  20
ENDBRANCH   1  19
TORSDOF 8
ENDMDL
MODEL 4
REMARK VINA RESULT:      -8.4      2.623     10.307
REMARK  8 active torsions:
REMARK  status: ('A' for Active; 'I' for Inactive)
REMARK    1  A    between atoms: O_2  and  C_3 
REMARK    2  A    between atoms: C_6  and  C_7 
REMARK    3  A    between atoms: C_7  and  N_8 
REMARK    4  A    between atoms: C_7  and  C_27 
REMARK    5  A    between atoms: N_8  and  C_11 
REMARK    6  A    between atoms: C_11  and  C_12 
REMARK       I    between atoms: C_12  and  N_13 
REMARK    7  A    between atoms: N_13  and  C_14 
REMARK    8  A    between atoms: C_17  and  N_18 
ROOT
HETATM    1  N   UNL     1      -6.228   1.737 -32.832  1.00  0.00    -0.055 N 
HETATM    2  H   UNL     1      -7.008   1.988 -32.200  1.00  0.00     0.278 HD
HETATM    3  H   UNL     1      -5.606   1.185 -32.234  1.00  0.00     0.278 HD
ENDROOT
BRANCH   1   4
HETATM    4  C   UNL     1      -6.773   0.875 -33.924  1.00  0.00     0.252 C 
BRANCH   4   5
HETATM    5  C   UNL     1      -6.073  -0.470 -34.063  1.00  0.00    -0.023 A 
HETATM    6  C   UNL     1      -6.493  -1.464 -34.968  1.00  0.00     0.012 A 
HETATM    7  C   UNL     1      -5.816  -2.687 -35.064  1.00  0.00     0.037 A 
HETATM    8  C   UNL     1      -4.702  -2.937 -34.268  1.00  0.00     0.068 A 
HETATM    9  C   UNL     1      -4.273  -1.956 -33.374  1.00  0.00     0.037 A 
HETATM   10  C   UNL     1      -4.943  -0.734 -33.275  1.00  0.00     0.012 A 
BRANCH   8  11
HETATM   11  O   UNL     1      -3.956  -4.081 -34.263  1.00  0.00    -0.356 OA
HETATM   12  C   UNL     1      -3.351  -4.460 -33.032  1.00  0.00     0.210 C 
ENDBRANCH   8  11
ENDBRANCH   4   5
BRANCH   4  13
HETATM   13  C   UNL     1      -8.283   0.788 -33.771  1.00  0.00    -0.023 A 
HETATM   14  C   UNL     1      -9.098   1.747 -34.398  1.00  0.00     0.009 A 
HETATM   15  C   UNL     1     -10.483   1.735 -34.218  1.00  0.00     0.001 A 
HETATM   16  C   UNL     1     -11.075   0.769 -33.410  1.00  0.00     0.000 A 
HETATM   17  C   UNL     1     -10.284  -0.186 -32.778  1.00  0.00     0.001 A 
HETATM   18  C   UNL     1      -8.899  -0.176 -32.952  1.00  0.00     0.009 A 
ENDBRANCH   4  13
ENDBRANCH   1   4
BRANCH   1  19
HETATM   19  C   UNL     1      -5.583   3.034 -33.236  1.00  0.00     0.336 C 
BRANCH  19  20
HETATM   20  C   UNL     1      -4.671   3.495 -32.101  1.00  0.00     0.248 C 
HETATM   21  N   UNL     1      -3.856   4.562 -32.417  1.00  0.00    -0.326 N 
HETATM   22  H   UNL     1      -3.869   4.931 -33.362  1.00  0.00     0.169 HD
HETATM   23  O   UNL     1      -4.654   2.819 -31.075  1.00  0.00    -0.271 OA
BRANCH  21  24
HETATM   24  C   UNL     1      -2.925   5.190 -31.561  1.00  0.00     0.034 A 
HETATM   25  C   UNL     1      -1.559   4.927 -31.568  1.00  0.00     0.032 A 
HETATM   26  C   UNL     1      -0.710   5.558 -30.644  1.00  0.00     0.032 A 
HETATM   27  C   UNL     1      -1.197   6.472 -29.704  1.00  0.00     0.037 A 
HETATM   28  C   UNL     1      -2.570   6.752 -29.731  1.00  0.00     0.032 A 
HETATM   29  C   UNL     1      -3.425   6.109 -30.635  1.00  0.00     0.032 A 
BRANCH  27  30
HETATM   30  N   UNL     1      -0.351   7.091 -28.746  1.00  0.00    -0.318 N 
HETATM   31  C   UNL     1      -0.352   8.452 -28.397  1.00  0.00     0.224 C 
HETATM   32  O   UNL     1      -1.088   9.347 -28.781  1.00  0.00    -0.273 OA
HETATM   33  C   UNL     1       0.826   8.693 -27.482  1.00  0.00     0.105 C 
HETATM   34  C   UNL     1       1.157   7.305 -26.973  1.00  0.00     0.029 C 
HETATM   35  C   UNL     1       0.764   6.408 -28.129  1.00  0.00     0.133 C 
ENDBRANCH  27  30
ENDBRANCH  21  24
ENDBRANCH  19  20
ENDBRANCH   1  19
TORSDOF 8
ENDMDL
MODEL 5
REMARK VINA RESULT:      -8.3      3.931     10.054
REMARK  8 active torsions:
REMARK  status: ('A' for Active; 'I' for Inactive)
REMARK    1  A    between atoms: O_2  and  C_3 
REMARK    2  A    between atoms: C_6  and  C_7 
REMARK    3  A    between atoms: C_7  and  N_8 
REMARK    4  A    between atoms: C_7  and  C_27 
REMARK    5  A    between atoms: N_8  and  C_11 
REMARK    6  A    between atoms: C_11  and  C_12 
REMARK       I    between atoms: C_12  and  N_13 
REMARK    7  A    between atoms: N_13  and  C_14 
REMARK    8  A    between atoms: C_17  and  N_18 
ROOT
HETATM    1  N   UNL     1      -9.350   2.964 -32.737  1.00  0.00    -0.055 N 
HETATM    2  H   UNL     1     -10.242   2.869 -32.221  1.00  0.00     0.278 HD
HETATM    3  H   UNL     1      -8.654   2.606 -32.076  1.00  0.00     0.278 HD
ENDROOT
BRANCH   1   4
HETATM    4  C   UNL     1      -9.410   2.075 -33.936  1.00  0.00     0.252 C 
BRANCH   4   5
HETATM    5  C   UNL     1      -8.368   0.965 -33.941  1.00  0.00    -0.023 A 
HETATM    6  C   UNL     1      -7.984   0.277 -35.109  1.00  0.00     0.012 A 
HETATM    7  C   UNL     1      -7.018  -0.737 -35.066  1.00  0.00     0.037 A 
HETATM    8  C   UNL     1      -6.409  -1.076 -33.861  1.00  0.00     0.068 A 
HETATM    9  C   UNL     1      -6.776  -0.395 -32.700  1.00  0.00     0.037 A 
HETATM   10  C   UNL     1      -7.737   0.618 -32.737  1.00  0.00     0.012 A 
BRANCH   8  11
HETATM   11  O   UNL     1      -5.458  -2.039 -33.682  1.00  0.00    -0.356 OA
HETATM   12  C   UNL     1      -4.104  -1.612 -33.595  1.00  0.00     0.210 C 
ENDBRANCH   8  11
ENDBRANCH   4   5
BRANCH   4  13
HETATM   13  C   UNL     1     -10.841   1.597 -34.119  1.00  0.00    -0.023 A 
HETATM   14  C   UNL     1     -11.718   2.337 -34.933  1.00  0.00     0.009 A 
HETATM   15  C   UNL     1     -13.057   1.962 -35.065  1.00  0.00     0.001 A 
HETATM   16  C   UNL     1     -13.542   0.849 -34.386  1.00  0.00     0.000 A 
HETATM   17  C   UNL     1     -12.691   0.107 -33.573  1.00  0.00     0.001 A 
HETATM   18  C   UNL     1     -11.352   0.479 -33.435  1.00  0.00     0.009 A 
ENDBRANCH   4  13
ENDBRANCH   1   4
BRANCH   1  19
HETATM   19  C   UNL     1      -9.160   4.436 -32.980  1.00  0.00     0.336 C 
BRANCH  19  20
HETATM   20  C   UNL     1      -7.665   4.716 -33.109  1.00  0.00     0.248 C 
HETATM   21  N   UNL     1      -7.023   4.969 -31.915  1.00  0.00    -0.326 N 
HETATM   22  H   UNL     1      -7.566   5.004 -31.059  1.00  0.00     0.169 HD
HETATM   23  O   UNL     1      -7.200   4.812 -34.243  1.00  0.00    -0.271 OA
BRANCH  21  24
HETATM   24  C   UNL     1      -5.651   5.252 -31.743  1.00  0.00     0.034 A 
HETATM   25  C   UNL     1      -4.671   4.281 -31.558  1.00  0.00     0.032 A 
HETATM   26  C   UNL     1      -3.335   4.652 -31.341  1.00  0.00     0.032 A 
HETATM   27  C   UNL     1      -2.941   5.994 -31.315  1.00  0.00     0.037 A 
HETATM   28  C   UNL     1      -3.931   6.960 -31.535  1.00  0.00     0.032 A 
HETATM   29  C   UNL     1      -5.270   6.596 -31.730  1.00  0.00     0.032 A 
BRANCH  27  30
HETATM   30  N   UNL     1      -1.597   6.379 -31.064  1.00  0.00    -0.318 N 
HETATM   31  C   UNL     1      -0.665   6.808 -32.025  1.00  0.00     0.224 C 
HETATM   32  O   UNL     1      -0.820   6.990 -33.222  1.00  0.00    -0.273 OA
HETATM   33  C   UNL     1       0.676   6.935 -31.341  1.00  0.00     0.105 C 
HETATM   34  C   UNL     1       0.307   7.030 -29.875  1.00  0.00     0.029 C 
HETATM   35  C   UNL     1      -0.957   6.201 -29.780  1.00  0.00     0.133 C 
ENDBRANCH  27  30
ENDBRANCH  21  24
ENDBRANCH  19  20
ENDBRANCH   1  19
TORSDOF 8
ENDMDL
MODEL 6
REMARK VINA RESULT:      -8.3      5.588      9.774
REMARK  8 active torsions:
REMARK  status: ('A' for Active; 'I' for Inactive)
REMARK    1  A    between atoms: O_2  and  C_3 
REMARK    2  A    between atoms: C_6  and  C_7 
REMARK    3  A    between atoms: C_7  and  N_8 
REMARK    4  A    between atoms: C_7  and  C_27 
REMARK    5  A    between atoms: N_8  and  C_11 
REMARK    6  A    between atoms: C_11  and  C_12 
REMARK       I    between atoms: C_12  and  N_13 
REMARK    7  A    between atoms: N_13  and  C_14 
REMARK    8  A    between atoms: C_17  and  N_18 
ROOT
HETATM    1  N   UNL     1      -6.519  -0.969 -34.453  1.00  0.00    -0.055 N 
HETATM    2  H   UNL     1      -6.345  -1.653 -35.211  1.00  0.00     0.278 HD
HETATM    3  H   UNL     1      -7.123  -1.483 -33.804  1.00  0.00     0.278 HD
ENDROOT
BRANCH   1   4
HETATM    4  C   UNL     1      -5.215  -0.664 -33.793  1.00  0.00     0.252 C 
BRANCH   4   5
HETATM    5  C   UNL     1      -5.325   0.277 -32.600  1.00  0.00    -0.023 A 
HETATM    6  C   UNL     1      -6.064  -0.033 -31.443  1.00  0.00     0.012 A 
HETATM    7  C   UNL     1      -6.135   0.863 -30.368  1.00  0.00     0.037 A 
HETATM    8  C   UNL     1      -5.460   2.080 -30.423  1.00  0.00     0.068 A 
HETATM    9  C   UNL     1      -4.718   2.393 -31.562  1.00  0.00     0.037 A 
HETATM   10  C   UNL     1      -4.643   1.503 -32.636  1.00  0.00     0.012 A 
BRANCH   8  11
HETATM   11  O   UNL     1      -5.447   3.037 -29.451  1.00  0.00    -0.356 OA
HETATM   12  C   UNL     1      -6.144   4.248 -29.717  1.00  0.00     0.210 C 
ENDBRANCH   8  11
ENDBRANCH   4   5
BRANCH   4  13
HETATM   13  C   UNL     1      -4.496  -1.971 -33.501  1.00  0.00    -0.023 A 
HETATM   14  C   UNL     1      -4.707  -3.079 -34.341  1.00  0.00     0.009 A 
HETATM   15  C   UNL     1      -4.117  -4.312 -34.059  1.00  0.00     0.001 A 
HETATM   16  C   UNL     1      -3.312  -4.461 -32.933  1.00  0.00     0.000 A 
HETATM   17  C   UNL     1      -3.096  -3.378 -32.087  1.00  0.00     0.001 A 
HETATM   18  C   UNL     1      -3.686  -2.143 -32.364  1.00  0.00     0.009 A 
ENDBRANCH   4  13
ENDBRANCH   1   4
BRANCH   1  19
HETATM   19  C   UNL     1      -7.256   0.179 -35.086  1.00  0.00     0.336 C 
BRANCH  19  20
HETATM   20  C   UNL     1      -8.587   0.359 -34.359  1.00  0.00     0.248 C 
HETATM   21  N   UNL     1      -9.337   1.432 -34.794  1.00  0.00    -0.326 N 
HETATM   22  H   UNL     1      -8.956   2.046 -35.505  1.00  0.00     0.169 HD
HETATM   23  O   UNL     1      -8.812  -0.370 -33.396  1.00  0.00    -0.271 OA
BRANCH  21  24
HETATM   24  C   UNL     1     -10.601   1.826 -34.304  1.00  0.00     0.034 A 
HETATM   25  C   UNL     1     -11.805   1.562 -34.951  1.00  0.00     0.032 A 
HETATM   26  C   UNL     1     -13.015   2.037 -34.421  1.00  0.00     0.032 A 
HETATM   27  C   UNL     1     -13.057   2.772 -33.230  1.00  0.00     0.037 A 
HETATM   28  C   UNL     1     -11.842   3.000 -32.573  1.00  0.00     0.032 A 
HETATM   29  C   UNL     1     -10.629   2.549 -33.109  1.00  0.00     0.032 A 
BRANCH  27  30
HETATM   30  N   UNL     1     -14.273   3.283 -32.704  1.00  0.00    -0.318 N 
HETATM   31  C   UNL     1     -14.620   4.640 -32.589  1.00  0.00     0.224 C 
HETATM   32  O   UNL     1     -14.003   5.627 -32.956  1.00  0.00    -0.273 OA
HETATM   33  C   UNL     1     -15.914   4.720 -31.813  1.00  0.00     0.105 C 
HETATM   34  C   UNL     1     -16.486   3.323 -31.951  1.00  0.00     0.029 C 
HETATM   35  C   UNL     1     -15.252   2.450 -32.041  1.00  0.00     0.133 C 
ENDBRANCH  27  30
ENDBRANCH  21  24
ENDBRANCH  19  20
ENDBRANCH   1  19
TORSDOF 8
ENDMDL
MODEL 7
REMARK VINA RESULT:      -8.0      3.689      8.778
REMARK  8 active torsions:
REMARK  status: ('A' for Active; 'I' for Inactive)
REMARK    1  A    between atoms: O_2  and  C_3 
REMARK    2  A    between atoms: C_6  and  C_7 
REMARK    3  A    between atoms: C_7  and  N_8 
REMARK    4  A    between atoms: C_7  and  C_27 
REMARK    5  A    between atoms: N_8  and  C_11 
REMARK    6  A    between atoms: C_11  and  C_12 
REMARK       I    between atoms: C_12  and  N_13 
REMARK    7  A    between atoms: N_13  and  C_14 
REMARK    8  A    between atoms: C_17  and  N_18 
ROOT
HETATM    1  N   UNL     1      -7.467  -0.002 -31.808  1.00  0.00    -0.055 N 
HETATM    2  H   UNL     1      -7.702  -1.008 -31.868  1.00  0.00     0.278 HD
HETATM    3  H   UNL     1      -6.944   0.067 -30.930  1.00  0.00     0.278 HD
ENDROOT
BRANCH   1   4
HETATM    4  C   UNL     1      -6.572   0.335 -32.955  1.00  0.00     0.252 C 
BRANCH   4   5
HETATM    5  C   UNL     1      -5.423   1.268 -32.596  1.00  0.00    -0.023 A 
HETATM    6  C   UNL     1      -5.235   2.525 -33.203  1.00  0.00     0.012 A 
HETATM    7  C   UNL     1      -4.164   3.351 -32.838  1.00  0.00     0.037 A 
HETATM    8  C   UNL     1      -3.267   2.945 -31.854  1.00  0.00     0.068 A 
HETATM    9  C   UNL     1      -3.449   1.705 -31.241  1.00  0.00     0.037 A 
HETATM   10  C   UNL     1      -4.516   0.878 -31.599  1.00  0.00     0.012 A 
BRANCH   8  11
HETATM   11  O   UNL     1      -2.187   3.650 -31.408  1.00  0.00    -0.356 OA
HETATM   12  C   UNL     1      -1.746   4.742 -32.206  1.00  0.00     0.210 C 
ENDBRANCH   8  11
ENDBRANCH   4   5
BRANCH   4  13
HETATM   13  C   UNL     1      -6.147  -0.954 -33.640  1.00  0.00    -0.023 A 
HETATM   14  C   UNL     1      -7.129  -1.850 -34.099  1.00  0.00     0.009 A 
HETATM   15  C   UNL     1      -6.770  -3.073 -34.668  1.00  0.00     0.001 A 
HETATM   16  C   UNL     1      -5.428  -3.423 -34.785  1.00  0.00     0.000 A 
HETATM   17  C   UNL     1      -4.442  -2.552 -34.333  1.00  0.00     0.001 A 
HETATM   18  C   UNL     1      -4.796  -1.328 -33.761  1.00  0.00     0.009 A 
ENDBRANCH   4  13
ENDBRANCH   1   4
BRANCH   1  19
HETATM   19  C   UNL     1      -8.777   0.731 -31.718  1.00  0.00     0.336 C 
BRANCH  19  20
HETATM   20  C   UNL     1      -8.488   2.210 -31.471  1.00  0.00     0.248 C 
HETATM   21  N   UNL     1      -7.840   2.477 -30.283  1.00  0.00    -0.326 N 
HETATM   22  H   UNL     1      -7.646   1.715 -29.643  1.00  0.00     0.169 HD
HETATM   23  O   UNL     1      -8.954   3.021 -32.269  1.00  0.00    -0.271 OA
BRANCH  21  24
HETATM   24  C   UNL     1      -7.450   3.748 -29.808  1.00  0.00     0.034 A 
HETATM   25  C   UNL     1      -8.340   4.764 -29.475  1.00  0.00     0.032 A 
HETATM   26  C   UNL     1      -7.864   6.018 -29.061  1.00  0.00     0.032 A 
HETATM   27  C   UNL     1      -6.495   6.286 -28.956  1.00  0.00     0.037 A 
HETATM   28  C   UNL     1      -5.611   5.243 -29.263  1.00  0.00     0.032 A 
HETATM   29  C   UNL     1      -6.079   3.997 -29.698  1.00  0.00     0.032 A 
BRANCH  27  30
HETATM   30  N   UNL     1      -6.005   7.561 -28.568  1.00  0.00    -0.318 N 
HETATM   31  C   UNL     1      -5.421   7.882 -27.331  1.00  0.00     0.224 C 
HETATM   32  O   UNL     1      -5.165   7.153 -26.385  1.00  0.00    -0.273 OA
HETATM   33  C   UNL     1      -5.219   9.379 -27.292  1.00  0.00     0.105 C 
HETATM   34  C   UNL     1      -5.268   9.772 -28.755  1.00  0.00     0.029 C 
HETATM   35  C   UNL     1      -6.217   8.755 -29.355  1.00  0.00     0.133 C 
ENDBRANCH  27  30
ENDBRANCH  21  24
ENDBRANCH  19  20
ENDBRANCH   1  19
TORSDOF 8
ENDMDL
MODEL 8
REMARK VINA RESULT:      -7.8      4.675     10.710
REMARK  8 active torsions:
REMARK  status: ('A' for Active; 'I' for Inactive)
REMARK    1  A    between atoms: O_2  and  C_3 
REMARK    2  A    between atoms: C_6  and  C_7 
REMARK    3  A    between atoms: C_7  and  N_8 
REMARK    4  A    between atoms: C_7  and  C_27 
REMARK    5  A    between atoms: N_8  and  C_11 
REMARK    6  A    between atoms: C_11  and  C_12 
REMARK       I    between atoms: C_12  and  N_13 
REMARK    7  A    between atoms: N_13  and  C_14 
REMARK    8  A    between atoms: C_17  and  N_18 
ROOT
HETATM    1  N   UNL     1      -8.531   3.281 -34.424  1.00  0.00    -0.055 N 
HETATM    2  H   UNL     1      -7.506   3.140 -34.458  1.00  0.00     0.278 HD
HETATM    3  H   UNL     1      -8.810   3.228 -35.408  1.00  0.00     0.278 HD
ENDROOT
BRANCH   1   4
HETATM    4  C   UNL     1      -9.133   2.143 -33.667  1.00  0.00     0.252 C 
BRANCH   4   5
HETATM    5  C   UNL     1     -10.587   1.860 -34.019  1.00  0.00    -0.023 A 
HETATM    6  C   UNL     1     -11.302   2.598 -34.982  1.00  0.00     0.012 A 
HETATM    7  C   UNL     1     -12.640   2.300 -35.275  1.00  0.00     0.037 A 
HETATM    8  C   UNL     1     -13.284   1.252 -34.623  1.00  0.00     0.068 A 
HETATM    9  C   UNL     1     -12.583   0.509 -33.674  1.00  0.00     0.037 A 
HETATM   10  C   UNL     1     -11.249   0.801 -33.378  1.00  0.00     0.012 A 
BRANCH   8  11
HETATM   11  O   UNL     1     -14.577   0.859 -34.815  1.00  0.00    -0.356 OA
HETATM   12  C   UNL     1     -15.500   1.115 -33.763  1.00  0.00     0.210 C 
ENDBRANCH   8  11
ENDBRANCH   4   5
BRANCH   4  13
HETATM   13  C   UNL     1      -8.212   0.940 -33.778  1.00  0.00    -0.023 A 
HETATM   14  C   UNL     1      -7.549   0.467 -32.630  1.00  0.00     0.009 A 
HETATM   15  C   UNL     1      -6.643  -0.592 -32.714  1.00  0.00     0.001 A 
HETATM   16  C   UNL     1      -6.381  -1.193 -33.941  1.00  0.00     0.000 A 
HETATM   17  C   UNL     1      -7.023  -0.737 -35.088  1.00  0.00     0.001 A 
HETATM   18  C   UNL     1      -7.928   0.324 -35.011  1.00  0.00     0.009 A 
ENDBRANCH   4  13
ENDBRANCH   1   4
BRANCH   1  19
HETATM   19  C   UNL     1      -8.745   4.664 -33.874  1.00  0.00     0.336 C 
BRANCH  19  20
HETATM   20  C   UNL     1      -7.629   4.968 -32.877  1.00  0.00     0.248 C 
HETATM   21  N   UNL     1      -6.361   4.972 -33.420  1.00  0.00    -0.326 N 
HETATM   22  H   UNL     1      -6.240   4.732 -34.397  1.00  0.00     0.169 HD
HETATM   23  O   UNL     1      -7.935   5.056 -31.690  1.00  0.00    -0.271 OA
BRANCH  21  24
HETATM   24  C   UNL     1      -5.154   5.225 -32.732  1.00  0.00     0.034 A 
HETATM   25  C   UNL     1      -4.676   6.499 -32.439  1.00  0.00     0.032 A 
HETATM   26  C   UNL     1      -3.438   6.663 -31.798  1.00  0.00     0.032 A 
HETATM   27  C   UNL     1      -2.655   5.566 -31.421  1.00  0.00     0.037 A 
HETATM   28  C   UNL     1      -3.165   4.289 -31.692  1.00  0.00     0.032 A 
HETATM   29  C   UNL     1      -4.388   4.120 -32.352  1.00  0.00     0.032 A 
BRANCH  27  30
HETATM   30  N   UNL     1      -1.388   5.724 -30.801  1.00  0.00    -0.318 N 
HETATM   31  C   UNL     1      -1.113   6.506 -29.666  1.00  0.00     0.224 C 
HETATM   32  O   UNL     1      -1.882   7.144 -28.964  1.00  0.00    -0.273 OA
HETATM   33  C   UNL     1       0.386   6.524 -29.471  1.00  0.00     0.105 C 
HETATM   34  C   UNL     1       0.850   5.317 -30.261  1.00  0.00     0.029 C 
HETATM   35  C   UNL     1      -0.162   5.226 -31.384  1.00  0.00     0.133 C 
ENDBRANCH  27  30
ENDBRANCH  21  24
ENDBRANCH  19  20
ENDBRANCH   1  19
TORSDOF 8
ENDMDL
MODEL 9
REMARK VINA RESULT:      -7.8      6.162     11.058
REMARK  8 active torsions:
REMARK  status: ('A' for Active; 'I' for Inactive)
REMARK    1  A    between atoms: O_2  and  C_3 
REMARK    2  A    between atoms: C_6  and  C_7 
REMARK    3  A    between atoms: C_7  and  N_8 
REMARK    4  A    between atoms: C_7  and  C_27 
REMARK    5  A    between atoms: N_8  and  C_11 
REMARK    6  A    between atoms: C_11  and  C_12 
REMARK       I    between atoms: C_12  and  N_13 
REMARK    7  A    between atoms: N_13  and  C_14 
REMARK    8  A    between atoms: C_17  and  N_18 
ROOT
HETATM    1  N   UNL     1     -10.505   1.550 -32.301  1.00  0.00    -0.055 N 
HETATM    2  H   UNL     1     -10.199   2.254 -31.606  1.00  0.00     0.278 HD
HETATM    3  H   UNL     1     -11.136   0.946 -31.764  1.00  0.00     0.278 HD
ENDROOT
BRANCH   1   4
HETATM    4  C   UNL     1     -11.271   2.255 -33.371  1.00  0.00     0.252 C 
BRANCH   4   5
HETATM    5  C   UNL     1     -12.781   2.234 -33.174  1.00  0.00    -0.023 A 
HETATM    6  C   UNL     1     -13.472   3.209 -32.429  1.00  0.00     0.012 A 
HETATM    7  C   UNL     1     -14.864   3.150 -32.277  1.00  0.00     0.037 A 
HETATM    8  C   UNL     1     -15.593   2.125 -32.873  1.00  0.00     0.068 A 
HETATM    9  C   UNL     1     -14.919   1.159 -33.619  1.00  0.00     0.037 A 
HETATM   10  C   UNL     1     -13.532   1.213 -33.776  1.00  0.00     0.012 A 
BRANCH   8  11
HETATM   11  O   UNL     1     -16.945   1.953 -32.802  1.00  0.00    -0.356 OA
HETATM   12  C   UNL     1     -17.650   2.713 -31.829  1.00  0.00     0.210 C 
ENDBRANCH   8  11
ENDBRANCH   4   5
BRANCH   4  13
HETATM   13  C   UNL     1     -10.680   3.642 -33.563  1.00  0.00    -0.023 A 
HETATM   14  C   UNL     1     -10.551   4.166 -34.862  1.00  0.00     0.009 A 
HETATM   15  C   UNL     1      -9.948   5.407 -35.076  1.00  0.00     0.001 A 
HETATM   16  C   UNL     1      -9.461   6.142 -34.000  1.00  0.00     0.000 A 
HETATM   17  C   UNL     1      -9.576   5.640 -32.707  1.00  0.00     0.001 A 
HETATM   18  C   UNL     1     -10.176   4.398 -32.489  1.00  0.00     0.009 A 
ENDBRANCH   4  13
ENDBRANCH   1   4
BRANCH   1  19
HETATM   19  C   UNL     1      -9.266   0.806 -32.717  1.00  0.00     0.336 C 
BRANCH  19  20
HETATM   20  C   UNL     1      -8.049   1.665 -32.380  1.00  0.00     0.248 C 
HETATM   21  N   UNL     1      -7.384   2.173 -33.477  1.00  0.00    -0.326 N 
HETATM   22  H   UNL     1      -7.696   1.917 -34.407  1.00  0.00     0.169 HD
HETATM   23  O   UNL     1      -7.704   1.725 -31.202  1.00  0.00    -0.271 OA
BRANCH  21  24
HETATM   24  C   UNL     1      -6.238   2.997 -33.455  1.00  0.00     0.034 A 
HETATM   25  C   UNL     1      -5.025   2.632 -32.879  1.00  0.00     0.032 A 
HETATM   26  C   UNL     1      -3.950   3.534 -32.854  1.00  0.00     0.032 A 
HETATM   27  C   UNL     1      -4.052   4.813 -33.414  1.00  0.00     0.037 A 
HETATM   28  C   UNL     1      -5.268   5.155 -34.020  1.00  0.00     0.032 A 
HETATM   29  C   UNL     1      -6.351   4.267 -34.027  1.00  0.00     0.032 A 
BRANCH  27  30
HETATM   30  N   UNL     1      -2.980   5.743 -33.365  1.00  0.00    -0.318 N 
HETATM   31  C   UNL     1      -1.874   5.778 -34.232  1.00  0.00     0.224 C 
HETATM   32  O   UNL     1      -1.637   5.084 -35.209  1.00  0.00    -0.273 OA
HETATM   33  C   UNL     1      -0.905   6.808 -33.701  1.00  0.00     0.105 C 
HETATM   34  C   UNL     1      -1.770   7.659 -32.793  1.00  0.00     0.029 C 
HETATM   35  C   UNL     1      -2.802   6.679 -32.278  1.00  0.00     0.133 C 
ENDBRANCH  27  30
ENDBRANCH  21  24
ENDBRANCH  19  20
ENDBRANCH   1  19
TORSDOF 8
ENDMDL
MODEL 10
REMARK VINA RESULT:      -7.7      2.717     10.075
REMARK  8 active torsions:
REMARK  status: ('A' for Active; 'I' for Inactive)
REMARK    1  A    between atoms: O_2  and  C_3 
REMARK    2  A    between atoms: C_6  and  C_7 
REMARK    3  A    between atoms: C_7  and  N_8 
REMARK    4  A    between atoms: C_7  and  C_27 
REMARK    5  A    between atoms: N_8  and  C_11 
REMARK    6  A    between atoms: C_11  and  C_12 
REMARK       I    between atoms: C_12  and  N_13 
REMARK    7  A    between atoms: N_13  and  C_14 
REMARK    8  A    between atoms: C_17  and  N_18 
ROOT
HETATM    1  N   UNL     1      -5.626   3.190 -33.456  1.00  0.00    -0.055 N 
HETATM    2  H   UNL     1      -5.961   3.624 -32.579  1.00  0.00     0.278 HD
HETATM    3  H   UNL     1      -4.838   2.611 -33.149  1.00  0.00     0.278 HD
ENDROOT
BRANCH   1   4
HETATM    4  C   UNL     1      -6.715   2.318 -33.989  1.00  0.00     0.252 C 
BRANCH   4   5
HETATM    5  C   UNL     1      -6.345   0.843 -34.076  1.00  0.00    -0.023 A 
HETATM    6  C   UNL     1      -5.276   0.275 -33.358  1.00  0.00     0.012 A 
HETATM    7  C   UNL     1      -4.974  -1.089 -33.468  1.00  0.00     0.037 A 
HETATM    8  C   UNL     1      -5.741  -1.914 -34.287  1.00  0.00     0.068 A 
HETATM    9  C   UNL     1      -6.807  -1.363 -34.997  1.00  0.00     0.037 A 
HETATM   10  C   UNL     1      -7.114  -0.004 -34.890  1.00  0.00     0.012 A 
BRANCH   8  11
HETATM   11  O   UNL     1      -5.555  -3.252 -34.482  1.00  0.00    -0.356 OA
HETATM   12  C   UNL     1      -6.660  -4.000 -34.973  1.00  0.00     0.210 C 
ENDBRANCH   8  11
ENDBRANCH   4   5
BRANCH   4  13
HETATM   13  C   UNL     1      -7.992   2.603 -33.217  1.00  0.00    -0.023 A 
HETATM   14  C   UNL     1      -9.030   3.322 -33.837  1.00  0.00     0.009 A 
HETATM   15  C   UNL     1     -10.186   3.660 -33.131  1.00  0.00     0.001 A 
HETATM   16  C   UNL     1     -10.324   3.290 -31.796  1.00  0.00     0.000 A 
HETATM   17  C   UNL     1      -9.307   2.581 -31.164  1.00  0.00     0.001 A 
HETATM   18  C   UNL     1      -8.147   2.243 -31.865  1.00  0.00     0.009 A 
ENDBRANCH   4  13
ENDBRANCH   1   4
BRANCH   1  19
HETATM   19  C   UNL     1      -5.159   4.320 -34.332  1.00  0.00     0.336 C 
BRANCH  19  20
HETATM   20  C   UNL     1      -4.205   5.197 -33.523  1.00  0.00     0.248 C 
HETATM   21  N   UNL     1      -3.962   4.749 -32.241  1.00  0.00    -0.326 N 
HETATM   22  H   UNL     1      -4.449   3.926 -31.904  1.00  0.00     0.169 HD
HETATM   23  O   UNL     1      -3.846   6.260 -34.025  1.00  0.00    -0.271 OA
BRANCH  21  24
HETATM   24  C   UNL     1      -3.122   5.358 -31.284  1.00  0.00     0.034 A 
HETATM   25  C   UNL     1      -3.556   6.286 -30.343  1.00  0.00     0.032 A 
HETATM   26  C   UNL     1      -2.643   6.885 -29.461  1.00  0.00     0.032 A 
HETATM   27  C   UNL     1      -1.281   6.566 -29.487  1.00  0.00     0.037 A 
HETATM   28  C   UNL     1      -0.863   5.605 -30.417  1.00  0.00     0.032 A 
HETATM   29  C   UNL     1      -1.766   5.022 -31.314  1.00  0.00     0.032 A 
BRANCH  27  30
HETATM   30  N   UNL     1      -0.345   7.190 -28.620  1.00  0.00    -0.318 N 
HETATM   31  C   UNL     1      -0.276   8.563 -28.326  1.00  0.00     0.224 C 
HETATM   32  O   UNL     1      -1.011   9.467 -28.691  1.00  0.00    -0.273 OA
HETATM   33  C   UNL     1       0.975   8.797 -27.512  1.00  0.00     0.105 C 
HETATM   34  C   UNL     1       1.299   7.418 -26.974  1.00  0.00     0.029 C 
HETATM   35  C   UNL     1       0.791   6.493 -28.060  1.00  0.00     0.133 C 
ENDBRANCH  27  30
ENDBRANCH  21  24
ENDBRANCH  19  20
ENDBRANCH   1  19
TORSDOF 8
ENDMDL
