MODEL 1
REMARK VINA RESULT:      -8.4      0.000      0.000
REMARK  3 active torsions:
REMARK  status: ('A' for Active; 'I' for Inactive)
REMARK    1  A    between atoms: C_5  and  C_6 
REMARK    2  A    between atoms: C_8  and  N_9 
REMARK       I    between atoms: N_9  and  C_10 
REMARK    3  A    between atoms: C_10  and  C_11 
ROOT
HETATM    1  C   UNL     1      -5.763  -0.314 -32.805  1.00  0.00     0.010 A 
HETATM    2  C   UNL     1      -4.976   0.791 -33.154  1.00  0.00     0.044 A 
HETATM    3  C   UNL     1      -5.163   2.026 -32.531  1.00  0.00     0.035 A 
HETATM    4  C   UNL     1      -6.164   2.145 -31.561  1.00  0.00     0.029 A 
HETATM    5  C   UNL     1      -6.961   1.049 -31.220  1.00  0.00     0.003 A 
HETATM    6  C   UNL     1      -6.760  -0.186 -31.837  1.00  0.00     0.015 A 
ENDROOT
BRANCH   3   7
HETATM    7  N   UNL     1      -4.373   3.163 -32.798  1.00  0.00    -0.323 N 
HETATM    8  C   UNL     1      -3.207   3.549 -32.169  1.00  0.00     0.259 C 
HETATM    9  O   UNL     1      -2.618   2.871 -31.326  1.00  0.00    -0.267 OA
HETATM   10  H   UNL     1      -4.742   3.799 -33.501  1.00  0.00     0.169 HD
BRANCH   8  11
HETATM   11  C   UNL     1      -2.646   4.878 -32.599  1.00  0.00     0.070 A 
HETATM   12  C   UNL     1      -2.749   6.196 -31.868  1.00  0.00     0.116 A 
HETATM   13  S   UNL     1      -3.536   6.504 -30.416  1.00  0.00    -0.059 SA
HETATM   14  N   UNL     1      -2.115   7.273 -32.461  1.00  0.00    -0.356 N 
HETATM   15  C   UNL     1      -1.420   7.209 -33.639  1.00  0.00     0.089 A 
HETATM   16  H   UNL     1      -2.169   8.163 -31.974  1.00  0.00     0.166 HD
HETATM   17  C   UNL     1      -1.324   6.050 -34.295  1.00  0.00     0.018 A 
HETATM   18  C   UNL     1      -1.948   4.867 -33.755  1.00  0.00     0.022 A 
ENDBRANCH   8  11
ENDBRANCH   3   7
BRANCH   1  19
HETATM   19  C   UNL     1      -5.497  -1.633 -33.464  1.00  0.00     0.116 A 
HETATM   20  N   UNL     1      -6.306  -2.320 -34.283  1.00  0.00    -0.344 N 
HETATM   21  C   UNL     1      -5.749  -3.531 -34.669  1.00  0.00     0.029 A 
HETATM   22  H   UNL     1      -7.228  -2.000 -34.559  1.00  0.00     0.167 HD
HETATM   23  C   UNL     1      -6.445  -4.496 -35.538  1.00  0.00     0.070 C 
HETATM   24  C   UNL     1      -4.504  -3.572 -34.074  1.00  0.00     0.029 A 
HETATM   25  N   UNL     1      -4.400  -2.395 -33.353  1.00  0.00    -0.344 N 
HETATM   26  C   UNL     1      -3.438  -4.589 -34.107  1.00  0.00     0.070 C 
HETATM   27  H   UNL     1      -3.588  -2.133 -32.798  1.00  0.00     0.167 HD
ENDBRANCH   1  19
TORSDOF 3
ENDMDL
MODEL 2
REMARK VINA RESULT:      -8.2      1.341      1.820
REMARK  3 active torsions:
REMARK  status: ('A' for Active; 'I' for Inactive)
REMARK    1  A    between atoms: C_5  and  C_6 
REMARK    2  A    between atoms: C_8  and  N_9 
REMARK       I    between atoms: N_9  and  C_10 
REMARK    3  A    between atoms: C_10  and  C_11 
ROOT
HETATM    1  C   UNL     1      -6.248  -0.093 -33.165  1.00  0.00     0.010 A 
HETATM    2  C   UNL     1      -5.328   0.952 -33.312  1.00  0.00     0.044 A 
HETATM    3  C   UNL     1      -5.613   2.228 -32.825  1.00  0.00     0.035 A 
HETATM    4  C   UNL     1      -6.846   2.450 -32.202  1.00  0.00     0.029 A 
HETATM    5  C   UNL     1      -7.774   1.413 -32.067  1.00  0.00     0.003 A 
HETATM    6  C   UNL     1      -7.476   0.137 -32.542  1.00  0.00     0.015 A 
ENDROOT
BRANCH   3   7
HETATM    7  N   UNL     1      -4.712   3.311 -32.894  1.00  0.00    -0.323 N 
HETATM    8  C   UNL     1      -4.748   4.386 -33.757  1.00  0.00     0.259 C 
HETATM    9  O   UNL     1      -5.665   4.610 -34.547  1.00  0.00    -0.267 OA
HETATM   10  H   UNL     1      -3.913   3.257 -32.267  1.00  0.00     0.169 HD
BRANCH   8  11
HETATM   11  C   UNL     1      -3.579   5.331 -33.666  1.00  0.00     0.070 A 
HETATM   12  C   UNL     1      -3.427   6.514 -32.739  1.00  0.00     0.116 A 
HETATM   13  S   UNL     1      -4.534   7.080 -31.608  1.00  0.00    -0.059 SA
HETATM   14  N   UNL     1      -2.234   7.209 -32.829  1.00  0.00    -0.356 N 
HETATM   15  C   UNL     1      -1.216   6.890 -33.687  1.00  0.00     0.089 A 
HETATM   16  H   UNL     1      -2.116   8.002 -32.204  1.00  0.00     0.166 HD
HETATM   17  C   UNL     1      -1.339   5.848 -34.512  1.00  0.00     0.018 A 
HETATM   18  C   UNL     1      -2.546   5.057 -34.491  1.00  0.00     0.022 A 
ENDBRANCH   8  11
ENDBRANCH   3   7
BRANCH   1  19
HETATM   19  C   UNL     1      -5.883  -1.460 -33.658  1.00  0.00     0.116 A 
HETATM   20  N   UNL     1      -4.735  -2.126 -33.460  1.00  0.00    -0.344 N 
HETATM   21  C   UNL     1      -4.728  -3.354 -34.106  1.00  0.00     0.029 A 
HETATM   22  H   UNL     1      -3.957  -1.755 -32.926  1.00  0.00     0.167 HD
HETATM   23  C   UNL     1      -3.573  -4.269 -34.082  1.00  0.00     0.070 C 
HETATM   24  C   UNL     1      -5.965  -3.462 -34.710  1.00  0.00     0.029 A 
HETATM   25  N   UNL     1      -6.629  -2.285 -34.408  1.00  0.00    -0.344 N 
HETATM   26  C   UNL     1      -6.562  -4.529 -35.532  1.00  0.00     0.070 C 
HETATM   27  H   UNL     1      -7.572  -2.063 -34.716  1.00  0.00     0.167 HD
ENDBRANCH   1  19
TORSDOF 3
ENDMDL
MODEL 3
REMARK VINA RESULT:      -8.1      5.385      7.770
REMARK  3 active torsions:
REMARK  status: ('A' for Active; 'I' for Inactive)
REMARK    1  A    between atoms: C_5  and  C_6 
REMARK    2  A    between atoms: C_8  and  N_9 
REMARK       I    between atoms: N_9  and  C_10 
REMARK    3  A    between atoms: C_10  and  C_11 
ROOT
HETATM    1  C   UNL     1      -7.241  -0.412 -33.065  1.00  0.00     0.010 A 
HETATM    2  C   UNL     1      -8.635  -0.337 -33.171  1.00  0.00     0.044 A 
HETATM    3  C   UNL     1      -9.331   0.763 -32.668  1.00  0.00     0.035 A 
HETATM    4  C   UNL     1      -8.610   1.784 -32.038  1.00  0.00     0.029 A 
HETATM    5  C   UNL     1      -7.220   1.706 -31.917  1.00  0.00     0.003 A 
HETATM    6  C   UNL     1      -6.530   0.611 -32.435  1.00  0.00     0.015 A 
ENDROOT
BRANCH   3   7
HETATM    7  N   UNL     1     -10.726   0.926 -32.786  1.00  0.00    -0.323 N 
HETATM    8  C   UNL     1     -11.415   1.648 -33.740  1.00  0.00     0.259 C 
HETATM    9  O   UNL     1     -10.889   2.184 -34.716  1.00  0.00    -0.267 OA
HETATM   10  H   UNL     1     -11.282   0.505 -32.046  1.00  0.00     0.169 HD
BRANCH   8  11
HETATM   11  C   UNL     1     -12.905   1.730 -33.541  1.00  0.00     0.070 A 
HETATM   12  C   UNL     1     -13.665   2.737 -32.711  1.00  0.00     0.116 A 
HETATM   13  S   UNL     1     -13.033   3.989 -31.786  1.00  0.00    -0.059 SA
HETATM   14  N   UNL     1     -15.043   2.617 -32.719  1.00  0.00    -0.356 N 
HETATM   15  C   UNL     1     -15.733   1.663 -33.419  1.00  0.00     0.089 A 
HETATM   16  H   UNL     1     -15.567   3.294 -32.171  1.00  0.00     0.166 HD
HETATM   17  C   UNL     1     -15.072   0.767 -34.155  1.00  0.00     0.018 A 
HETATM   18  C   UNL     1     -13.631   0.812 -34.215  1.00  0.00     0.022 A 
ENDBRANCH   8  11
ENDBRANCH   3   7
BRANCH   1  19
HETATM   19  C   UNL     1      -6.528  -1.587 -33.662  1.00  0.00     0.116 A 
HETATM   20  N   UNL     1      -7.034  -2.535 -34.464  1.00  0.00    -0.344 N 
HETATM   21  C   UNL     1      -6.091  -3.500 -34.789  1.00  0.00     0.029 A 
HETATM   22  H   UNL     1      -8.001  -2.555 -34.768  1.00  0.00     0.167 HD
HETATM   23  C   UNL     1      -6.396  -4.673 -35.626  1.00  0.00     0.070 C 
HETATM   24  C   UNL     1      -4.922  -3.097 -34.173  1.00  0.00     0.029 A 
HETATM   25  N   UNL     1      -5.241  -1.930 -33.501  1.00  0.00    -0.344 N 
HETATM   26  C   UNL     1      -3.576  -3.695 -34.145  1.00  0.00     0.070 C 
HETATM   27  H   UNL     1      -4.582  -1.390 -32.945  1.00  0.00     0.167 HD
ENDBRANCH   1  19
TORSDOF 3
ENDMDL
MODEL 4
REMARK VINA RESULT:      -8.0      3.005      8.139
REMARK  3 active torsions:
REMARK  status: ('A' for Active; 'I' for Inactive)
REMARK    1  A    between atoms: C_5  and  C_6 
REMARK    2  A    between atoms: C_8  and  N_9 
REMARK       I    between atoms: N_9  and  C_10 
REMARK    3  A    between atoms: C_10  and  C_11 
ROOT
HETATM    1  C   UNL     1      -4.033   2.706 -31.523  1.00  0.00     0.010 A 
HETATM    2  C   UNL     1      -4.194   1.507 -32.227  1.00  0.00     0.044 A 
HETATM    3  C   UNL     1      -5.179   0.589 -31.859  1.00  0.00     0.035 A 
HETATM    4  C   UNL     1      -5.993   0.882 -30.760  1.00  0.00     0.029 A 
HETATM    5  C   UNL     1      -5.826   2.071 -30.045  1.00  0.00     0.003 A 
HETATM    6  C   UNL     1      -4.850   2.990 -30.427  1.00  0.00     0.015 A 
ENDROOT
BRANCH   3   7
HETATM    7  N   UNL     1      -5.428  -0.612 -32.555  1.00  0.00    -0.323 N 
HETATM    8  C   UNL     1      -4.504  -1.484 -33.093  1.00  0.00     0.259 C 
HETATM    9  O   UNL     1      -3.286  -1.382 -32.943  1.00  0.00    -0.267 OA
HETATM   10  H   UNL     1      -6.407  -0.826 -32.725  1.00  0.00     0.169 HD
BRANCH   8  11
HETATM   11  C   UNL     1      -5.077  -2.632 -33.881  1.00  0.00     0.070 A 
HETATM   12  C   UNL     1      -4.555  -4.048 -33.949  1.00  0.00     0.116 A 
HETATM   13  S   UNL     1      -3.196  -4.677 -33.188  1.00  0.00    -0.059 SA
HETATM   14  N   UNL     1      -5.286  -4.930 -34.725  1.00  0.00    -0.356 N 
HETATM   15  C   UNL     1      -6.422  -4.597 -35.413  1.00  0.00     0.089 A 
HETATM   16  H   UNL     1      -4.950  -5.888 -34.772  1.00  0.00     0.166 HD
HETATM   17  C   UNL     1      -6.892  -3.348 -35.362  1.00  0.00     0.018 A 
HETATM   18  C   UNL     1      -6.202  -2.355 -34.575  1.00  0.00     0.022 A 
ENDBRANCH   8  11
ENDBRANCH   3   7
BRANCH   1  19
HETATM   19  C   UNL     1      -2.996   3.686 -31.982  1.00  0.00     0.116 A 
HETATM   20  N   UNL     1      -2.773   4.123 -33.229  1.00  0.00    -0.344 N 
HETATM   21  C   UNL     1      -1.696   4.996 -33.290  1.00  0.00     0.029 A 
HETATM   22  H   UNL     1      -3.313   3.823 -34.034  1.00  0.00     0.167 HD
HETATM   23  C   UNL     1      -1.214   5.593 -34.548  1.00  0.00     0.070 C 
HETATM   24  C   UNL     1      -1.252   5.127 -31.989  1.00  0.00     0.029 A 
HETATM   25  N   UNL     1      -2.075   4.311 -31.233  1.00  0.00    -0.344 N 
HETATM   26  C   UNL     1      -0.151   5.914 -31.407  1.00  0.00     0.070 C 
HETATM   27  H   UNL     1      -1.996   4.192 -30.226  1.00  0.00     0.167 HD
ENDBRANCH   1  19
TORSDOF 3
ENDMDL
MODEL 5
REMARK VINA RESULT:      -7.9      4.785      6.303
REMARK  3 active torsions:
REMARK  status: ('A' for Active; 'I' for Inactive)
REMARK    1  A    between atoms: C_5  and  C_6 
REMARK    2  A    between atoms: C_8  and  N_9 
REMARK       I    between atoms: N_9  and  C_10 
REMARK    3  A    between atoms: C_10  and  C_11 
ROOT
HETATM    1  C   UNL     1      -5.770  -0.127 -33.625  1.00  0.00     0.010 A 
HETATM    2  C   UNL     1      -6.994   0.444 -33.995  1.00  0.00     0.044 A 
HETATM    3  C   UNL     1      -7.273   1.782 -33.710  1.00  0.00     0.035 A 
HETATM    4  C   UNL     1      -6.313   2.539 -33.030  1.00  0.00     0.029 A 
HETATM    5  C   UNL     1      -5.096   1.968 -32.646  1.00  0.00     0.003 A 
HETATM    6  C   UNL     1      -4.818   0.636 -32.947  1.00  0.00     0.015 A 
ENDROOT
BRANCH   3   7
HETATM    7  N   UNL     1      -8.462   2.432 -34.098  1.00  0.00    -0.323 N 
HETATM    8  C   UNL     1      -9.683   2.417 -33.456  1.00  0.00     0.259 C 
HETATM    9  O   UNL     1      -9.880   1.897 -32.357  1.00  0.00    -0.267 OA
HETATM   10  H   UNL     1      -8.423   2.924 -34.988  1.00  0.00     0.169 HD
BRANCH   8  11
HETATM   11  C   UNL     1     -10.804   3.119 -34.174  1.00  0.00     0.070 A 
HETATM   12  C   UNL     1     -12.188   2.585 -34.457  1.00  0.00     0.116 A 
HETATM   13  S   UNL     1     -12.802   1.070 -34.066  1.00  0.00    -0.059 SA
HETATM   14  N   UNL     1     -13.052   3.446 -35.109  1.00  0.00    -0.356 N 
HETATM   15  C   UNL     1     -12.729   4.718 -35.498  1.00  0.00     0.089 A 
HETATM   16  H   UNL     1     -13.990   3.101 -35.297  1.00  0.00     0.166 HD
HETATM   17  C   UNL     1     -11.508   5.202 -35.255  1.00  0.00     0.018 A 
HETATM   18  C   UNL     1     -10.536   4.380 -34.576  1.00  0.00     0.022 A 
ENDBRANCH   8  11
ENDBRANCH   3   7
BRANCH   1  19
HETATM   19  C   UNL     1      -5.491  -1.552 -33.994  1.00  0.00     0.116 A 
HETATM   20  N   UNL     1      -6.251  -2.374 -34.733  1.00  0.00    -0.344 N 
HETATM   21  C   UNL     1      -5.700  -3.644 -34.831  1.00  0.00     0.029 A 
HETATM   22  H   UNL     1      -7.137  -2.101 -35.143  1.00  0.00     0.167 HD
HETATM   23  C   UNL     1      -6.352  -4.749 -35.555  1.00  0.00     0.070 C 
HETATM   24  C   UNL     1      -4.509  -3.585 -34.135  1.00  0.00     0.029 A 
HETATM   25  N   UNL     1      -4.429  -2.293 -33.646  1.00  0.00    -0.344 N 
HETATM   26  C   UNL     1      -3.475  -4.603 -33.881  1.00  0.00     0.070 C 
HETATM   27  H   UNL     1      -3.658  -1.939 -33.084  1.00  0.00     0.167 HD
ENDBRANCH   1  19
TORSDOF 3
ENDMDL
MODEL 6
REMARK VINA RESULT:      -7.8      5.319      7.531
REMARK  3 active torsions:
REMARK  status: ('A' for Active; 'I' for Inactive)
REMARK    1  A    between atoms: C_5  and  C_6 
REMARK    2  A    between atoms: C_8  and  N_9 
REMARK       I    between atoms: N_9  and  C_10 
REMARK    3  A    between atoms: C_10  and  C_11 
ROOT
HETATM    1  C   UNL     1      -6.868  -0.063 -33.192  1.00  0.00     0.010 A 
HETATM    2  C   UNL     1      -8.255   0.088 -33.070  1.00  0.00     0.044 A 
HETATM    3  C   UNL     1      -8.806   1.290 -32.624  1.00  0.00     0.035 A 
HETATM    4  C   UNL     1      -7.945   2.339 -32.282  1.00  0.00     0.029 A 
HETATM    5  C   UNL     1      -6.559   2.187 -32.388  1.00  0.00     0.003 A 
HETATM    6  C   UNL     1      -6.016   0.988 -32.848  1.00  0.00     0.015 A 
ENDROOT
BRANCH   3   7
HETATM    7  N   UNL     1     -10.193   1.527 -32.528  1.00  0.00    -0.323 N 
HETATM    8  C   UNL     1     -11.018   2.110 -33.467  1.00  0.00     0.259 C 
HETATM    9  O   UNL     1     -10.661   2.424 -34.603  1.00  0.00    -0.267 OA
HETATM   10  H   UNL     1     -10.619   1.286 -31.636  1.00  0.00     0.169 HD
BRANCH   8  11
HETATM   11  C   UNL     1     -12.442   2.331 -33.033  1.00  0.00     0.070 A 
HETATM   12  C   UNL     1     -13.598   1.367 -33.158  1.00  0.00     0.116 A 
HETATM   13  S   UNL     1     -13.583  -0.170 -33.836  1.00  0.00    -0.059 SA
HETATM   14  N   UNL     1     -14.810   1.800 -32.649  1.00  0.00    -0.356 N 
HETATM   15  C   UNL     1     -15.009   3.017 -32.055  1.00  0.00     0.089 A 
HETATM   16  H   UNL     1     -15.594   1.156 -32.718  1.00  0.00     0.166 HD
HETATM   17  C   UNL     1     -13.995   3.879 -31.940  1.00  0.00     0.018 A 
HETATM   18  C   UNL     1     -12.690   3.518 -32.438  1.00  0.00     0.022 A 
ENDBRANCH   8  11
ENDBRANCH   3   7
BRANCH   1  19
HETATM   19  C   UNL     1      -6.320  -1.353 -33.721  1.00  0.00     0.116 A 
HETATM   20  N   UNL     1      -6.947  -2.261 -34.484  1.00  0.00    -0.344 N 
HETATM   21  C   UNL     1      -6.144  -3.361 -34.748  1.00  0.00     0.029 A 
HETATM   22  H   UNL     1      -7.905  -2.162 -34.800  1.00  0.00     0.167 HD
HETATM   23  C   UNL     1      -6.602  -4.522 -35.532  1.00  0.00     0.070 C 
HETATM   24  C   UNL     1      -4.935  -3.094 -34.135  1.00  0.00     0.029 A 
HETATM   25  N   UNL     1      -5.095  -1.862 -33.525  1.00  0.00    -0.344 N 
HETATM   26  C   UNL     1      -3.685  -3.869 -34.060  1.00  0.00     0.070 C 
HETATM   27  H   UNL     1      -4.371  -1.391 -32.987  1.00  0.00     0.167 HD
ENDBRANCH   1  19
TORSDOF 3
ENDMDL
MODEL 7
REMARK VINA RESULT:      -7.8      5.065      8.168
REMARK  3 active torsions:
REMARK  status: ('A' for Active; 'I' for Inactive)
REMARK    1  A    between atoms: C_5  and  C_6 
REMARK    2  A    between atoms: C_8  and  N_9 
REMARK       I    between atoms: N_9  and  C_10 
REMARK    3  A    between atoms: C_10  and  C_11 
ROOT
HETATM    1  C   UNL     1     -10.445   2.195 -33.630  1.00  0.00     0.010 A 
HETATM    2  C   UNL     1      -9.653   1.053 -33.799  1.00  0.00     0.044 A 
HETATM    3  C   UNL     1      -8.265   1.154 -33.898  1.00  0.00     0.035 A 
HETATM    4  C   UNL     1      -7.678   2.423 -33.844  1.00  0.00     0.029 A 
HETATM    5  C   UNL     1      -8.466   3.567 -33.690  1.00  0.00     0.003 A 
HETATM    6  C   UNL     1      -9.851   3.457 -33.577  1.00  0.00     0.015 A 
ENDROOT
BRANCH   3   7
HETATM    7  N   UNL     1      -7.406   0.042 -34.017  1.00  0.00    -0.323 N 
HETATM    8  C   UNL     1      -6.687  -0.582 -33.019  1.00  0.00     0.259 C 
HETATM    9  O   UNL     1      -6.781  -0.306 -31.822  1.00  0.00    -0.267 OA
HETATM   10  H   UNL     1      -7.262  -0.302 -34.964  1.00  0.00     0.169 HD
BRANCH   8  11
HETATM   11  C   UNL     1      -5.764  -1.682 -33.472  1.00  0.00     0.070 A 
HETATM   12  C   UNL     1      -4.339  -1.922 -33.033  1.00  0.00     0.116 A 
HETATM   13  S   UNL     1      -3.430  -1.006 -31.957  1.00  0.00    -0.059 SA
HETATM   14  N   UNL     1      -3.712  -3.029 -33.577  1.00  0.00    -0.356 N 
HETATM   15  C   UNL     1      -4.299  -3.892 -34.464  1.00  0.00     0.089 A 
HETATM   16  H   UNL     1      -2.756  -3.207 -33.282  1.00  0.00     0.166 HD
HETATM   17  C   UNL     1      -5.557  -3.689 -34.860  1.00  0.00     0.018 A 
HETATM   18  C   UNL     1      -6.297  -2.562 -34.346  1.00  0.00     0.022 A 
ENDBRANCH   8  11
ENDBRANCH   3   7
BRANCH   1  19
HETATM   19  C   UNL     1     -11.927   2.037 -33.478  1.00  0.00     0.116 A 
HETATM   20  N   UNL     1     -12.722   2.589 -32.550  1.00  0.00    -0.344 N 
HETATM   21  C   UNL     1     -14.042   2.184 -32.687  1.00  0.00     0.029 A 
HETATM   22  H   UNL     1     -12.385   3.205 -31.817  1.00  0.00     0.167 HD
HETATM   23  C   UNL     1     -15.114   2.614 -31.773  1.00  0.00     0.070 C 
HETATM   24  C   UNL     1     -14.062   1.357 -33.793  1.00  0.00     0.029 A 
HETATM   25  N   UNL     1     -12.752   1.301 -34.237  1.00  0.00    -0.344 N 
HETATM   26  C   UNL     1     -15.161   0.625 -34.445  1.00  0.00     0.070 C 
HETATM   27  H   UNL     1     -12.443   0.763 -35.043  1.00  0.00     0.167 HD
ENDBRANCH   1  19
TORSDOF 3
ENDMDL
MODEL 8
REMARK VINA RESULT:      -7.7      4.620      8.001
REMARK  3 active torsions:
REMARK  status: ('A' for Active; 'I' for Inactive)
REMARK    1  A    between atoms: C_5  and  C_6 
REMARK    2  A    between atoms: C_8  and  N_9 
REMARK       I    between atoms: N_9  and  C_10 
REMARK    3  A    between atoms: C_10  and  C_11 
ROOT
HETATM    1  C   UNL     1      -9.128   2.170 -32.089  1.00  0.00     0.010 A 
HETATM    2  C   UNL     1      -8.430   1.061 -32.581  1.00  0.00     0.044 A 
HETATM    3  C   UNL     1      -7.237   0.647 -31.988  1.00  0.00     0.035 A 
HETATM    4  C   UNL     1      -6.739   1.373 -30.901  1.00  0.00     0.029 A 
HETATM    5  C   UNL     1      -7.425   2.490 -30.415  1.00  0.00     0.003 A 
HETATM    6  C   UNL     1      -8.624   2.889 -31.003  1.00  0.00     0.015 A 
ENDROOT
BRANCH   3   7
HETATM    7  N   UNL     1      -6.512  -0.490 -32.401  1.00  0.00    -0.323 N 
HETATM    8  C   UNL     1      -6.032  -0.774 -33.663  1.00  0.00     0.259 C 
HETATM    9  O   UNL     1      -6.084   0.005 -34.615  1.00  0.00    -0.267 OA
HETATM   10  H   UNL     1      -6.378  -1.207 -31.692  1.00  0.00     0.169 HD
BRANCH   8  11
HETATM   11  C   UNL     1      -5.388  -2.125 -33.824  1.00  0.00     0.070 A 
HETATM   12  C   UNL     1      -4.135  -2.630 -33.150  1.00  0.00     0.116 A 
HETATM   13  S   UNL     1      -3.139  -1.799 -32.082  1.00  0.00    -0.059 SA
HETATM   14  N   UNL     1      -3.767  -3.931 -33.443  1.00  0.00    -0.356 N 
HETATM   15  C   UNL     1      -4.459  -4.760 -34.285  1.00  0.00     0.089 A 
HETATM   16  H   UNL     1      -2.930  -4.286 -32.988  1.00  0.00     0.166 HD
HETATM   17  C   UNL     1      -5.568  -4.325 -34.888  1.00  0.00     0.018 A 
HETATM   18  C   UNL     1      -6.036  -2.981 -34.643  1.00  0.00     0.022 A 
ENDBRANCH   8  11
ENDBRANCH   3   7
BRANCH   1  19
HETATM   19  C   UNL     1     -10.431   2.552 -32.723  1.00  0.00     0.116 A 
HETATM   20  N   UNL     1     -10.708   2.656 -34.031  1.00  0.00    -0.344 N 
HETATM   21  C   UNL     1     -12.011   3.079 -34.254  1.00  0.00     0.029 A 
HETATM   22  H   UNL     1     -10.031   2.475 -34.764  1.00  0.00     0.167 HD
HETATM   23  C   UNL     1     -12.561   3.311 -35.601  1.00  0.00     0.070 C 
HETATM   24  C   UNL     1     -12.577   3.209 -33.002  1.00  0.00     0.029 A 
HETATM   25  N   UNL     1     -11.576   2.877 -32.106  1.00  0.00    -0.344 N 
HETATM   26  C   UNL     1     -13.928   3.616 -32.578  1.00  0.00     0.070 C 
HETATM   27  H   UNL     1     -11.687   2.879 -31.095  1.00  0.00     0.167 HD
ENDBRANCH   1  19
TORSDOF 3
ENDMDL
MODEL 9
REMARK VINA RESULT:      -7.5      3.849      6.132
REMARK  3 active torsions:
REMARK  status: ('A' for Active; 'I' for Inactive)
REMARK    1  A    between atoms: C_5  and  C_6 
REMARK    2  A    between atoms: C_8  and  N_9 
REMARK       I    between atoms: N_9  and  C_10 
REMARK    3  A    between atoms: C_10  and  C_11 
ROOT
HETATM    1  C   UNL     1      -2.553   3.931 -32.007  1.00  0.00     0.010 A 
HETATM    2  C   UNL     1      -2.091   4.675 -30.914  1.00  0.00     0.044 A 
HETATM    3  C   UNL     1      -1.308   5.814 -31.105  1.00  0.00     0.035 A 
HETATM    4  C   UNL     1      -0.975   6.190 -32.411  1.00  0.00     0.029 A 
HETATM    5  C   UNL     1      -1.421   5.442 -33.504  1.00  0.00     0.003 A 
HETATM    6  C   UNL     1      -2.216   4.313 -33.307  1.00  0.00     0.015 A 
ENDROOT
BRANCH   3   7
HETATM    7  N   UNL     1      -0.854   6.637 -30.053  1.00  0.00    -0.323 N 
HETATM    8  C   UNL     1       0.050   6.318 -29.061  1.00  0.00     0.259 C 
HETATM    9  O   UNL     1       0.686   5.265 -29.016  1.00  0.00    -0.267 OA
HETATM   10  H   UNL     1      -1.290   7.554 -29.993  1.00  0.00     0.169 HD
BRANCH   8  11
HETATM   11  C   UNL     1       0.254   7.371 -28.005  1.00  0.00     0.070 A 
HETATM   12  C   UNL     1      -0.558   7.579 -26.749  1.00  0.00     0.116 A 
HETATM   13  S   UNL     1      -1.901   6.706 -26.240  1.00  0.00    -0.059 SA
HETATM   14  N   UNL     1      -0.144   8.605 -25.918  1.00  0.00    -0.356 N 
HETATM   15  C   UNL     1       0.931   9.415 -26.167  1.00  0.00     0.089 A 
HETATM   16  H   UNL     1      -0.677   8.749 -25.064  1.00  0.00     0.166 HD
HETATM   17  C   UNL     1       1.656   9.242 -27.275  1.00  0.00     0.018 A 
HETATM   18  C   UNL     1       1.305   8.195 -28.203  1.00  0.00     0.022 A 
ENDBRANCH   8  11
ENDBRANCH   3   7
BRANCH   1  19
HETATM   19  C   UNL     1      -3.432   2.744 -31.759  1.00  0.00     0.116 A 
HETATM   20  N   UNL     1      -4.292   2.554 -30.748  1.00  0.00    -0.344 N 
HETATM   21  C   UNL     1      -4.906   1.311 -30.814  1.00  0.00     0.029 A 
HETATM   22  H   UNL     1      -4.447   3.231 -30.009  1.00  0.00     0.167 HD
HETATM   23  C   UNL     1      -5.867   0.835 -29.804  1.00  0.00     0.070 C 
HETATM   24  C   UNL     1      -4.416   0.716 -31.959  1.00  0.00     0.029 A 
HETATM   25  N   UNL     1      -3.524   1.627 -32.497  1.00  0.00    -0.344 N 
HETATM   26  C   UNL     1      -4.688  -0.596 -32.572  1.00  0.00     0.070 C 
HETATM   27  H   UNL     1      -2.993   1.474 -33.351  1.00  0.00     0.167 HD
ENDBRANCH   1  19
TORSDOF 3
ENDMDL
MODEL 10
REMARK VINA RESULT:      -7.5      3.745      7.835
REMARK  3 active torsions:
REMARK  status: ('A' for Active; 'I' for Inactive)
REMARK    1  A    between atoms: C_5  and  C_6 
REMARK    2  A    between atoms: C_8  and  N_9 
REMARK       I    between atoms: N_9  and  C_10 
REMARK    3  A    between atoms: C_10  and  C_11 
ROOT
HETATM    1  C   UNL     1      -3.917   2.264 -31.955  1.00  0.00     0.010 A 
HETATM    2  C   UNL     1      -5.259   2.426 -32.320  1.00  0.00     0.044 A 
HETATM    3  C   UNL     1      -6.184   1.403 -32.108  1.00  0.00     0.035 A 
HETATM    4  C   UNL     1      -5.743   0.204 -31.538  1.00  0.00     0.029 A 
HETATM    5  C   UNL     1      -4.402   0.034 -31.184  1.00  0.00     0.003 A 
HETATM    6  C   UNL     1      -3.485   1.065 -31.386  1.00  0.00     0.015 A 
ENDROOT
BRANCH   3   7
HETATM    7  N   UNL     1      -7.558   1.519 -32.405  1.00  0.00    -0.323 N 
HETATM    8  C   UNL     1      -8.175   1.354 -33.628  1.00  0.00     0.259 C 
HETATM    9  O   UNL     1      -7.601   0.968 -34.647  1.00  0.00    -0.267 OA
HETATM   10  H   UNL     1      -8.152   1.812 -31.633  1.00  0.00     0.169 HD
BRANCH   8  11
HETATM   11  C   UNL     1      -9.650   1.653 -33.657  1.00  0.00     0.070 A 
HETATM   12  C   UNL     1     -10.311   2.985 -33.922  1.00  0.00     0.116 A 
HETATM   13  S   UNL     1      -9.562   4.460 -34.219  1.00  0.00    -0.059 SA
HETATM   14  N   UNL     1     -11.694   2.989 -33.926  1.00  0.00    -0.356 N 
HETATM   15  C   UNL     1     -12.472   1.883 -33.711  1.00  0.00     0.089 A 
HETATM   16  H   UNL     1     -12.151   3.878 -34.113  1.00  0.00     0.166 HD
HETATM   17  C   UNL     1     -11.900   0.700 -33.474  1.00  0.00     0.018 A 
HETATM   18  C   UNL     1     -10.461   0.592 -33.453  1.00  0.00     0.022 A 
ENDBRANCH   8  11
ENDBRANCH   3   7
BRANCH   1  19
HETATM   19  C   UNL     1      -2.965   3.405 -32.155  1.00  0.00     0.116 A 
HETATM   20  N   UNL     1      -2.276   4.074 -31.220  1.00  0.00    -0.344 N 
HETATM   21  C   UNL     1      -1.524   5.105 -31.766  1.00  0.00     0.029 A 
HETATM   22  H   UNL     1      -2.326   3.865 -30.229  1.00  0.00     0.167 HD
HETATM   23  C   UNL     1      -0.703   6.019 -30.953  1.00  0.00     0.070 C 
HETATM   24  C   UNL     1      -1.742   5.040 -33.128  1.00  0.00     0.029 A 
HETATM   25  N   UNL     1      -2.625   3.990 -33.312  1.00  0.00    -0.344 N 
HETATM   26  C   UNL     1      -1.224   5.856 -34.240  1.00  0.00     0.070 C 
HETATM   27  H   UNL     1      -2.981   3.693 -34.218  1.00  0.00     0.167 HD
ENDBRANCH   1  19
TORSDOF 3
ENDMDL
