MODEL 1
REMARK VINA RESULT:      -8.8      0.000      0.000
REMARK  7 active torsions:
REMARK  status: ('A' for Active; 'I' for Inactive)
REMARK    1  A    between atoms: O_2  and  C_3 
REMARK    2  A    between atoms: C_4  and  C_5 
REMARK    3  A    between atoms: N_10  and  C_12 
REMARK    4  A    between atoms: C_12  and  C_13 
REMARK       I    between atoms: C_13  and  N_14 
REMARK    5  A    between atoms: N_14  and  C_15 
REMARK    6  A    between atoms: C_15  and  C_16 
REMARK    7  A    between atoms: C_16  and  C_17 
ROOT
HETATM    1  C   UNL     1      -7.364   0.109 -33.148  1.00  0.00     0.190 C 
HETATM    2  O   UNL     1      -7.271   0.040 -31.714  1.00  0.00    -0.339 OA
HETATM    3  C   UNL     1      -7.238   1.301 -31.182  1.00  0.00     0.077 A 
HETATM    4  C   UNL     1      -8.378   2.112 -31.198  1.00  0.00     0.001 A 
HETATM    5  C   UNL     1      -9.675   1.598 -31.747  1.00  0.00     0.276 C 
HETATM    6  N   UNL     1      -9.631   1.300 -33.221  1.00  0.00    -0.056 N 
HETATM    7  H   UNL     1      -9.147   2.086 -33.687  1.00  0.00     0.280 HD
HETATM    8  C   UNL     1      -8.848   0.028 -33.569  1.00  0.00     0.273 C 
HETATM    9  C   UNL     1      -6.044   1.737 -30.614  1.00  0.00     0.037 A 
HETATM   10  C   UNL     1      -5.963   3.021 -30.083  1.00  0.00     0.003 A 
HETATM   11  C   UNL     1      -7.080   3.856 -30.112  1.00  0.00     0.001 A 
HETATM   12  C   UNL     1      -8.283   3.404 -30.661  1.00  0.00     0.012 A 
ENDROOT
BRANCH   6  13
HETATM   13  C   UNL     1     -11.022   1.275 -33.852  1.00  0.00     0.337 C 
BRANCH  13  14
HETATM   14  C   UNL     1     -11.314   2.615 -34.527  1.00  0.00     0.243 C 
HETATM   15  N   UNL     1     -10.222   3.294 -35.007  1.00  0.00    -0.359 N 
HETATM   16  H   UNL     1      -9.294   3.006 -34.709  1.00  0.00     0.162 HD
HETATM   17  O   UNL     1     -12.462   3.058 -34.521  1.00  0.00    -0.272 OA
BRANCH  15  18
HETATM   18  C   UNL     1     -10.320   4.697 -35.374  1.00  0.00     0.130 C 
BRANCH  18  19
HETATM   19  C   UNL     1     -10.123   5.634 -34.182  1.00  0.00     0.098 C 
BRANCH  19  20
HETATM   20  C   UNL     1      -8.678   5.686 -33.727  1.00  0.00     0.109 A 
HETATM   21  N   UNL     1      -7.858   4.712 -33.987  1.00  0.00    -0.234 NA
HETATM   22  C   UNL     1      -6.529   4.844 -33.531  1.00  0.00     0.074 A 
HETATM   23  C   UNL     1      -6.090   5.945 -32.789  1.00  0.00     0.061 A 
HETATM   24  C   UNL     1      -5.605   3.842 -33.840  1.00  0.00     0.032 A 
HETATM   25  C   UNL     1      -7.073   6.997 -32.489  1.00  0.00     0.259 A 
HETATM   26  C   UNL     1      -4.766   6.056 -32.355  1.00  0.00     0.019 A 
HETATM   27  O   UNL     1      -6.796   7.986 -31.825  1.00  0.00    -0.267 OA
HETATM   28  N   UNL     1      -8.327   6.795 -33.005  1.00  0.00    -0.311 N 
HETATM   29  H   UNL     1      -8.993   7.526 -32.791  1.00  0.00     0.170 HD
HETATM   30  C   UNL     1      -3.858   5.049 -32.671  1.00  0.00     0.001 A 
HETATM   31  C   UNL     1      -4.276   3.943 -33.413  1.00  0.00     0.002 A 
ENDBRANCH  19  20
ENDBRANCH  18  19
ENDBRANCH  15  18
ENDBRANCH  13  14
ENDBRANCH   6  13
BRANCH   1  32
HETATM   32  C   UNL     1      -6.543  -1.039 -33.716  1.00  0.00     0.006 A 
HETATM   33  C   UNL     1      -5.134  -0.975 -33.715  1.00  0.00     0.077 A 
HETATM   34  C   UNL     1      -4.389  -2.030 -34.253  1.00  0.00     0.037 A 
HETATM   35  C   UNL     1      -5.028  -3.155 -34.773  1.00  0.00     0.003 A 
HETATM   36  C   UNL     1      -6.416  -3.242 -34.751  1.00  0.00     0.001 A 
HETATM   37  C   UNL     1      -7.169  -2.197 -34.218  1.00  0.00     0.012 A 
BRANCH  33  38
HETATM   38  O   UNL     1      -4.582   0.163 -33.187  1.00  0.00    -0.355 OA
HETATM   39  C   UNL     1      -3.301   0.042 -32.576  1.00  0.00     0.210 C 
ENDBRANCH  33  38
ENDBRANCH   1  32
TORSDOF 7
ENDMDL
MODEL 2
REMARK VINA RESULT:      -8.7      3.931      8.878
REMARK  7 active torsions:
REMARK  status: ('A' for Active; 'I' for Inactive)
REMARK    1  A    between atoms: O_2  and  C_3 
REMARK    2  A    between atoms: C_4  and  C_5 
REMARK    3  A    between atoms: N_10  and  C_12 
REMARK    4  A    between atoms: C_12  and  C_13 
REMARK       I    between atoms: C_13  and  N_14 
REMARK    5  A    between atoms: N_14  and  C_15 
REMARK    6  A    between atoms: C_15  and  C_16 
REMARK    7  A    between atoms: C_16  and  C_17 
ROOT
HETATM    1  C   UNL     1      -2.052   6.910 -30.374  1.00  0.00     0.190 C 
HETATM    2  O   UNL     1      -2.116   7.675 -31.591  1.00  0.00    -0.339 OA
HETATM    3  C   UNL     1      -2.204   6.838 -32.670  1.00  0.00     0.077 A 
HETATM    4  C   UNL     1      -3.373   6.109 -32.914  1.00  0.00     0.001 A 
HETATM    5  C   UNL     1      -4.574   6.271 -32.032  1.00  0.00     0.276 C 
HETATM    6  N   UNL     1      -4.351   5.807 -30.617  1.00  0.00    -0.056 N 
HETATM    7  H   UNL     1      -3.856   4.900 -30.657  1.00  0.00     0.280 HD
HETATM    8  C   UNL     1      -3.473   6.755 -29.791  1.00  0.00     0.273 C 
HETATM    9  C   UNL     1      -1.103   6.752 -33.519  1.00  0.00     0.037 A 
HETATM   10  C   UNL     1      -1.145   5.895 -34.614  1.00  0.00     0.003 A 
HETATM   11  C   UNL     1      -2.290   5.139 -34.862  1.00  0.00     0.001 A 
HETATM   12  C   UNL     1      -3.401   5.247 -34.021  1.00  0.00     0.012 A 
ENDROOT
BRANCH   6  13
HETATM   13  C   UNL     1      -5.659   5.502 -29.892  1.00  0.00     0.337 C 
BRANCH  13  14
HETATM   14  C   UNL     1      -5.901   3.993 -29.862  1.00  0.00     0.243 C 
HETATM   15  N   UNL     1      -4.843   3.210 -30.253  1.00  0.00    -0.359 N 
HETATM   16  H   UNL     1      -4.063   3.644 -30.739  1.00  0.00     0.162 HD
HETATM   17  O   UNL     1      -7.023   3.564 -29.595  1.00  0.00    -0.272 OA
BRANCH  15  18
HETATM   18  C   UNL     1      -5.036   1.805 -30.574  1.00  0.00     0.130 C 
BRANCH  18  19
HETATM   19  C   UNL     1      -4.279   1.378 -31.833  1.00  0.00     0.098 C 
BRANCH  19  20
HETATM   20  C   UNL     1      -4.969   0.242 -32.560  1.00  0.00     0.109 A 
HETATM   21  N   UNL     1      -4.296  -0.780 -32.999  1.00  0.00    -0.234 NA
HETATM   22  C   UNL     1      -5.018  -1.796 -33.661  1.00  0.00     0.074 A 
HETATM   23  C   UNL     1      -6.396  -1.717 -33.890  1.00  0.00     0.061 A 
HETATM   24  C   UNL     1      -4.338  -2.935 -34.097  1.00  0.00     0.032 A 
HETATM   25  C   UNL     1      -7.097  -0.518 -33.408  1.00  0.00     0.259 A 
HETATM   26  C   UNL     1      -7.090  -2.741 -34.542  1.00  0.00     0.019 A 
HETATM   27  O   UNL     1      -8.295  -0.342 -33.582  1.00  0.00    -0.267 OA
HETATM   28  N   UNL     1      -6.317   0.394 -32.747  1.00  0.00    -0.311 N 
HETATM   29  H   UNL     1      -6.811   1.214 -32.420  1.00  0.00     0.170 HD
HETATM   30  C   UNL     1      -6.396  -3.869 -34.971  1.00  0.00     0.001 A 
HETATM   31  C   UNL     1      -5.022  -3.968 -34.748  1.00  0.00     0.002 A 
ENDBRANCH  19  20
ENDBRANCH  18  19
ENDBRANCH  15  18
ENDBRANCH  13  14
ENDBRANCH   6  13
BRANCH   1  32
HETATM   32  C   UNL     1      -1.118   7.642 -29.421  1.00  0.00     0.006 A 
HETATM   33  C   UNL     1       0.228   7.239 -29.294  1.00  0.00     0.077 A 
HETATM   34  C   UNL     1       1.074   7.910 -28.405  1.00  0.00     0.037 A 
HETATM   35  C   UNL     1       0.603   8.988 -27.656  1.00  0.00     0.003 A 
HETATM   36  C   UNL     1      -0.713   9.414 -27.797  1.00  0.00     0.001 A 
HETATM   37  C   UNL     1      -1.566   8.753 -28.680  1.00  0.00     0.012 A 
BRANCH  33  38
HETATM   38  O   UNL     1       0.613   6.171 -30.062  1.00  0.00    -0.355 OA
HETATM   39  C   UNL     1       0.940   4.963 -29.381  1.00  0.00     0.210 C 
ENDBRANCH  33  38
ENDBRANCH   1  32
TORSDOF 7
ENDMDL
MODEL 3
REMARK VINA RESULT:      -8.7      3.709      6.699
REMARK  7 active torsions:
REMARK  status: ('A' for Active; 'I' for Inactive)
REMARK    1  A    between atoms: O_2  and  C_3 
REMARK    2  A    between atoms: C_4  and  C_5 
REMARK    3  A    between atoms: N_10  and  C_12 
REMARK    4  A    between atoms: C_12  and  C_13 
REMARK       I    between atoms: C_13  and  N_14 
REMARK    5  A    between atoms: N_14  and  C_15 
REMARK    6  A    between atoms: C_15  and  C_16 
REMARK    7  A    between atoms: C_16  and  C_17 
ROOT
HETATM    1  C   UNL     1      -7.736   0.958 -33.218  1.00  0.00     0.190 C 
HETATM    2  O   UNL     1      -7.775  -0.428 -32.831  1.00  0.00    -0.339 OA
HETATM    3  C   UNL     1      -6.671  -1.081 -33.308  1.00  0.00     0.077 A 
HETATM    4  C   UNL     1      -5.405  -0.832 -32.767  1.00  0.00     0.001 A 
HETATM    5  C   UNL     1      -5.238   0.114 -31.616  1.00  0.00     0.276 C 
HETATM    6  N   UNL     1      -5.588   1.539 -31.950  1.00  0.00    -0.056 N 
HETATM    7  H   UNL     1      -5.165   1.761 -32.868  1.00  0.00     0.280 HD
HETATM    8  C   UNL     1      -7.095   1.787 -32.084  1.00  0.00     0.273 C 
HETATM    9  C   UNL     1      -6.855  -2.008 -34.331  1.00  0.00     0.037 A 
HETATM   10  C   UNL     1      -5.754  -2.676 -34.859  1.00  0.00     0.003 A 
HETATM   11  C   UNL     1      -4.480  -2.424 -34.353  1.00  0.00     0.001 A 
HETATM   12  C   UNL     1      -4.304  -1.511 -33.310  1.00  0.00     0.012 A 
ENDROOT
BRANCH   6  13
HETATM   13  C   UNL     1      -4.953   2.536 -30.983  1.00  0.00     0.337 C 
BRANCH  13  14
HETATM   14  C   UNL     1      -3.650   3.078 -31.571  1.00  0.00     0.243 C 
HETATM   15  N   UNL     1      -3.785   3.950 -32.622  1.00  0.00    -0.359 N 
HETATM   16  H   UNL     1      -4.684   4.020 -33.091  1.00  0.00     0.162 HD
HETATM   17  O   UNL     1      -2.574   2.647 -31.157  1.00  0.00    -0.272 OA
BRANCH  15  18
HETATM   18  C   UNL     1      -2.647   4.283 -33.464  1.00  0.00     0.130 C 
BRANCH  18  19
HETATM   19  C   UNL     1      -2.242   5.754 -33.355  1.00  0.00     0.098 C 
BRANCH  19  20
HETATM   20  C   UNL     1      -1.504   6.051 -32.066  1.00  0.00     0.109 A 
HETATM   21  N   UNL     1      -1.731   7.145 -31.401  1.00  0.00    -0.234 NA
HETATM   22  C   UNL     1      -1.003   7.341 -30.208  1.00  0.00     0.074 A 
HETATM   23  C   UNL     1      -0.038   6.436 -29.754  1.00  0.00     0.061 A 
HETATM   24  C   UNL     1      -1.261   8.477 -29.437  1.00  0.00     0.032 A 
HETATM   25  C   UNL     1       0.206   5.237 -30.569  1.00  0.00     0.259 A 
HETATM   26  C   UNL     1       0.664   6.649 -28.563  1.00  0.00     0.019 A 
HETATM   27  O   UNL     1       1.047   4.400 -30.273  1.00  0.00    -0.267 OA
HETATM   28  N   UNL     1      -0.575   5.119 -31.690  1.00  0.00    -0.311 N 
HETATM   29  H   UNL     1      -0.396   4.290 -32.243  1.00  0.00     0.170 HD
HETATM   30  C   UNL     1       0.396   7.787 -27.808  1.00  0.00     0.001 A 
HETATM   31  C   UNL     1      -0.566   8.700 -28.243  1.00  0.00     0.002 A 
ENDBRANCH  19  20
ENDBRANCH  18  19
ENDBRANCH  15  18
ENDBRANCH  13  14
ENDBRANCH   6  13
BRANCH   1  32
HETATM   32  C   UNL     1      -9.166   1.393 -33.508  1.00  0.00     0.006 A 
HETATM   33  C   UNL     1      -9.425   2.675 -34.036  1.00  0.00     0.077 A 
HETATM   34  C   UNL     1     -10.744   3.070 -34.285  1.00  0.00     0.037 A 
HETATM   35  C   UNL     1     -11.804   2.200 -34.034  1.00  0.00     0.003 A 
HETATM   36  C   UNL     1     -11.556   0.923 -33.544  1.00  0.00     0.001 A 
HETATM   37  C   UNL     1     -10.247   0.517 -33.291  1.00  0.00     0.012 A 
BRANCH  33  38
HETATM   38  O   UNL     1      -8.331   3.471 -34.253  1.00  0.00    -0.355 OA
HETATM   39  C   UNL     1      -8.444   4.845 -33.890  1.00  0.00     0.210 C 
ENDBRANCH  33  38
ENDBRANCH   1  32
TORSDOF 7
ENDMDL
MODEL 4
REMARK VINA RESULT:      -8.4      2.597      5.548
REMARK  7 active torsions:
REMARK  status: ('A' for Active; 'I' for Inactive)
REMARK    1  A    between atoms: O_2  and  C_3 
REMARK    2  A    between atoms: C_4  and  C_5 
REMARK    3  A    between atoms: N_10  and  C_12 
REMARK    4  A    between atoms: C_12  and  C_13 
REMARK       I    between atoms: C_13  and  N_14 
REMARK    5  A    between atoms: N_14  and  C_15 
REMARK    6  A    between atoms: C_15  and  C_16 
REMARK    7  A    between atoms: C_16  and  C_17 
ROOT
HETATM    1  C   UNL     1      -8.766   1.048 -32.994  1.00  0.00     0.190 C 
HETATM    2  O   UNL     1      -8.662  -0.384 -32.908  1.00  0.00    -0.339 OA
HETATM    3  C   UNL     1      -7.378  -0.779 -33.172  1.00  0.00     0.077 A 
HETATM    4  C   UNL     1      -6.350  -0.520 -32.259  1.00  0.00     0.001 A 
HETATM    5  C   UNL     1      -6.641   0.145 -30.948  1.00  0.00     0.276 C 
HETATM    6  N   UNL     1      -7.136   1.560 -31.086  1.00  0.00    -0.056 N 
HETATM    7  H   UNL     1      -6.542   2.035 -31.787  1.00  0.00     0.280 HD
HETATM    8  C   UNL     1      -8.582   1.659 -31.588  1.00  0.00     0.273 C 
HETATM    9  C   UNL     1      -7.138  -1.458 -34.364  1.00  0.00     0.037 A 
HETATM   10  C   UNL     1      -5.842  -1.857 -34.679  1.00  0.00     0.003 A 
HETATM   11  C   UNL     1      -4.797  -1.586 -33.796  1.00  0.00     0.001 A 
HETATM   12  C   UNL     1      -5.048  -0.926 -32.590  1.00  0.00     0.012 A 
ENDROOT
BRANCH   6  13
HETATM   13  C   UNL     1      -6.945   2.371 -29.806  1.00  0.00     0.337 C 
BRANCH  13  14
HETATM   14  C   UNL     1      -6.502   3.793 -30.149  1.00  0.00     0.243 C 
HETATM   15  N   UNL     1      -6.152   4.585 -29.084  1.00  0.00    -0.359 N 
HETATM   16  H   UNL     1      -6.405   4.287 -28.146  1.00  0.00     0.162 HD
HETATM   17  O   UNL     1      -6.572   4.185 -31.314  1.00  0.00    -0.272 OA
BRANCH  15  18
HETATM   18  C   UNL     1      -6.024   6.025 -29.237  1.00  0.00     0.130 C 
BRANCH  18  19
HETATM   19  C   UNL     1      -4.600   6.521 -28.981  1.00  0.00     0.098 C 
BRANCH  19  20
HETATM   20  C   UNL     1      -3.791   6.627 -30.258  1.00  0.00     0.109 A 
HETATM   21  N   UNL     1      -3.519   5.571 -30.967  1.00  0.00    -0.234 NA
HETATM   22  C   UNL     1      -2.764   5.760 -32.145  1.00  0.00     0.074 A 
HETATM   23  C   UNL     1      -2.276   7.010 -32.538  1.00  0.00     0.061 A 
HETATM   24  C   UNL     1      -2.500   4.658 -32.962  1.00  0.00     0.032 A 
HETATM   25  C   UNL     1      -2.580   8.160 -31.674  1.00  0.00     0.259 A 
HETATM   26  C   UNL     1      -1.537   7.171 -33.714  1.00  0.00     0.019 A 
HETATM   27  O   UNL     1      -2.177   9.290 -31.916  1.00  0.00    -0.267 OA
HETATM   28  N   UNL     1      -3.348   7.883 -30.574  1.00  0.00    -0.311 N 
HETATM   29  H   UNL     1      -3.549   8.682 -29.987  1.00  0.00     0.170 HD
HETATM   30  C   UNL     1      -1.281   6.063 -34.517  1.00  0.00     0.001 A 
HETATM   31  C   UNL     1      -1.763   4.807 -34.143  1.00  0.00     0.002 A 
ENDBRANCH  19  20
ENDBRANCH  18  19
ENDBRANCH  15  18
ENDBRANCH  13  14
ENDBRANCH   6  13
BRANCH   1  32
HETATM   32  C   UNL     1     -10.131   1.373 -33.585  1.00  0.00     0.006 A 
HETATM   33  C   UNL     1     -10.313   2.542 -34.354  1.00  0.00     0.077 A 
HETATM   34  C   UNL     1     -11.574   2.839 -34.880  1.00  0.00     0.037 A 
HETATM   35  C   UNL     1     -12.651   1.978 -34.668  1.00  0.00     0.003 A 
HETATM   36  C   UNL     1     -12.475   0.808 -33.938  1.00  0.00     0.001 A 
HETATM   37  C   UNL     1     -11.223   0.501 -33.408  1.00  0.00     0.012 A 
BRANCH  33  38
HETATM   38  O   UNL     1      -9.207   3.336 -34.516  1.00  0.00    -0.355 OA
HETATM   39  C   UNL     1      -9.232   4.620 -33.899  1.00  0.00     0.210 C 
ENDBRANCH  33  38
ENDBRANCH   1  32
TORSDOF 7
ENDMDL
MODEL 5
REMARK VINA RESULT:      -8.0      4.554      7.250
REMARK  7 active torsions:
REMARK  status: ('A' for Active; 'I' for Inactive)
REMARK    1  A    between atoms: O_2  and  C_3 
REMARK    2  A    between atoms: C_4  and  C_5 
REMARK    3  A    between atoms: N_10  and  C_12 
REMARK    4  A    between atoms: C_12  and  C_13 
REMARK       I    between atoms: C_13  and  N_14 
REMARK    5  A    between atoms: N_14  and  C_15 
REMARK    6  A    between atoms: C_15  and  C_16 
REMARK    7  A    between atoms: C_16  and  C_17 
ROOT
HETATM    1  C   UNL     1      -7.399   1.012 -33.170  1.00  0.00     0.190 C 
HETATM    2  O   UNL     1      -7.525  -0.367 -32.781  1.00  0.00    -0.339 OA
HETATM    3  C   UNL     1      -6.475  -1.094 -33.275  1.00  0.00     0.077 A 
HETATM    4  C   UNL     1      -5.187  -0.930 -32.755  1.00  0.00     0.001 A 
HETATM    5  C   UNL     1      -4.938   0.002 -31.608  1.00  0.00     0.276 C 
HETATM    6  N   UNL     1      -5.196   1.448 -31.938  1.00  0.00    -0.056 N 
HETATM    7  H   UNL     1      -4.775   1.640 -32.863  1.00  0.00     0.280 HD
HETATM    8  C   UNL     1      -6.686   1.797 -32.047  1.00  0.00     0.273 C 
HETATM    9  C   UNL     1      -6.738  -2.006 -34.293  1.00  0.00     0.037 A 
HETATM   10  C   UNL     1      -5.694  -2.748 -34.838  1.00  0.00     0.003 A 
HETATM   11  C   UNL     1      -4.397  -2.582 -34.353  1.00  0.00     0.001 A 
HETATM   12  C   UNL     1      -4.144  -1.683 -33.314  1.00  0.00     0.012 A 
ENDROOT
BRANCH   6  13
HETATM   13  C   UNL     1      -4.480   2.400 -30.983  1.00  0.00     0.337 C 
BRANCH  13  14
HETATM   14  C   UNL     1      -3.489   3.270 -31.756  1.00  0.00     0.243 C 
HETATM   15  N   UNL     1      -2.573   3.953 -30.997  1.00  0.00    -0.359 N 
HETATM   16  H   UNL     1      -2.726   4.032 -29.995  1.00  0.00     0.162 HD
HETATM   17  O   UNL     1      -3.615   3.394 -32.974  1.00  0.00    -0.272 OA
BRANCH  15  18
HETATM   18  C   UNL     1      -1.798   5.043 -31.568  1.00  0.00     0.130 C 
BRANCH  18  19
HETATM   19  C   UNL     1      -0.400   5.156 -30.956  1.00  0.00     0.098 C 
BRANCH  19  20
HETATM   20  C   UNL     1      -0.302   6.292 -29.958  1.00  0.00     0.109 A 
HETATM   21  N   UNL     1       0.525   6.234 -28.956  1.00  0.00    -0.234 NA
HETATM   22  C   UNL     1       0.556   7.337 -28.077  1.00  0.00     0.074 A 
HETATM   23  C   UNL     1      -0.286   8.445 -28.224  1.00  0.00     0.061 A 
HETATM   24  C   UNL     1       1.470   7.335 -27.021  1.00  0.00     0.032 A 
HETATM   25  C   UNL     1      -1.229   8.437 -29.351  1.00  0.00     0.259 A 
HETATM   26  C   UNL     1      -0.229   9.530 -27.343  1.00  0.00     0.019 A 
HETATM   27  O   UNL     1      -2.025   9.345 -29.551  1.00  0.00    -0.267 OA
HETATM   28  N   UNL     1      -1.159   7.339 -30.169  1.00  0.00    -0.311 N 
HETATM   29  H   UNL     1      -1.813   7.345 -30.940  1.00  0.00     0.170 HD
HETATM   30  C   UNL     1       0.687   9.512 -26.295  1.00  0.00     0.001 A 
HETATM   31  C   UNL     1       1.537   8.416 -26.134  1.00  0.00     0.002 A 
ENDBRANCH  19  20
ENDBRANCH  18  19
ENDBRANCH  15  18
ENDBRANCH  13  14
ENDBRANCH   6  13
BRANCH   1  32
HETATM   32  C   UNL     1      -8.801   1.542 -33.437  1.00  0.00     0.006 A 
HETATM   33  C   UNL     1      -8.987   2.872 -33.870  1.00  0.00     0.077 A 
HETATM   34  C   UNL     1     -10.281   3.354 -34.098  1.00  0.00     0.037 A 
HETATM   35  C   UNL     1     -11.387   2.524 -33.921  1.00  0.00     0.003 A 
HETATM   36  C   UNL     1     -11.212   1.203 -33.526  1.00  0.00     0.001 A 
HETATM   37  C   UNL     1      -9.929   0.711 -33.294  1.00  0.00     0.012 A 
BRANCH  33  38
HETATM   38  O   UNL     1      -7.851   3.623 -34.019  1.00  0.00    -0.355 OA
HETATM   39  C   UNL     1      -7.941   5.009 -33.701  1.00  0.00     0.210 C 
ENDBRANCH  33  38
ENDBRANCH   1  32
TORSDOF 7
ENDMDL
MODEL 6
REMARK VINA RESULT:      -8.0      2.610      6.085
REMARK  7 active torsions:
REMARK  status: ('A' for Active; 'I' for Inactive)
REMARK    1  A    between atoms: O_2  and  C_3 
REMARK    2  A    between atoms: C_4  and  C_5 
REMARK    3  A    between atoms: N_10  and  C_12 
REMARK    4  A    between atoms: C_12  and  C_13 
REMARK       I    between atoms: C_13  and  N_14 
REMARK    5  A    between atoms: N_14  and  C_15 
REMARK    6  A    between atoms: C_15  and  C_16 
REMARK    7  A    between atoms: C_16  and  C_17 
ROOT
HETATM    1  C   UNL     1      -3.462   4.193 -31.600  1.00  0.00     0.190 C 
HETATM    2  O   UNL     1      -4.216   3.369 -32.508  1.00  0.00    -0.339 OA
HETATM    3  C   UNL     1      -4.404   2.125 -31.968  1.00  0.00     0.077 A 
HETATM    4  C   UNL     1      -5.265   1.941 -30.881  1.00  0.00     0.001 A 
HETATM    5  C   UNL     1      -6.044   3.092 -30.319  1.00  0.00     0.276 C 
HETATM    6  N   UNL     1      -5.181   4.160 -29.701  1.00  0.00    -0.056 N 
HETATM    7  H   UNL     1      -4.462   3.690 -29.125  1.00  0.00     0.280 HD
HETATM    8  C   UNL     1      -4.436   5.019 -30.730  1.00  0.00     0.273 C 
HETATM    9  C   UNL     1      -3.726   1.056 -32.548  1.00  0.00     0.037 A 
HETATM   10  C   UNL     1      -3.872  -0.221 -32.015  1.00  0.00     0.003 A 
HETATM   11  C   UNL     1      -4.705  -0.424 -30.915  1.00  0.00     0.001 A 
HETATM   12  C   UNL     1      -5.402   0.649 -30.353  1.00  0.00     0.012 A 
ENDROOT
BRANCH   6  13
HETATM   13  C   UNL     1      -5.954   5.034 -28.716  1.00  0.00     0.337 C 
BRANCH  13  14
HETATM   14  C   UNL     1      -7.156   5.671 -29.413  1.00  0.00     0.243 C 
HETATM   15  N   UNL     1      -8.330   4.964 -29.345  1.00  0.00    -0.359 N 
HETATM   16  H   UNL     1      -8.303   3.992 -29.050  1.00  0.00     0.162 HD
HETATM   17  O   UNL     1      -7.001   6.703 -30.066  1.00  0.00    -0.272 OA
BRANCH  15  18
HETATM   18  C   UNL     1      -9.446   5.289 -30.219  1.00  0.00     0.130 C 
BRANCH  18  19
HETATM   19  C   UNL     1     -10.137   4.045 -30.781  1.00  0.00     0.098 C 
BRANCH  19  20
HETATM   20  C   UNL     1      -9.270   3.312 -31.784  1.00  0.00     0.109 A 
HETATM   21  N   UNL     1      -9.192   2.014 -31.780  1.00  0.00    -0.234 NA
HETATM   22  C   UNL     1      -8.365   1.412 -32.752  1.00  0.00     0.074 A 
HETATM   23  C   UNL     1      -7.613   2.153 -33.669  1.00  0.00     0.061 A 
HETATM   24  C   UNL     1      -8.300   0.018 -32.814  1.00  0.00     0.032 A 
HETATM   25  C   UNL     1      -7.708   3.618 -33.599  1.00  0.00     0.259 A 
HETATM   26  C   UNL     1      -6.806   1.532 -34.628  1.00  0.00     0.019 A 
HETATM   27  O   UNL     1      -7.070   4.356 -34.338  1.00  0.00    -0.267 OA
HETATM   28  N   UNL     1      -8.564   4.107 -32.646  1.00  0.00    -0.311 N 
HETATM   29  H   UNL     1      -8.620   5.117 -32.607  1.00  0.00     0.170 HD
HETATM   30  C   UNL     1      -6.752   0.142 -34.676  1.00  0.00     0.001 A 
HETATM   31  C   UNL     1      -7.498  -0.616 -33.771  1.00  0.00     0.002 A 
ENDBRANCH  19  20
ENDBRANCH  18  19
ENDBRANCH  15  18
ENDBRANCH  13  14
ENDBRANCH   6  13
BRANCH   1  32
HETATM   32  C   UNL     1      -2.550   5.079 -32.437  1.00  0.00     0.006 A 
HETATM   33  C   UNL     1      -1.521   5.822 -31.821  1.00  0.00     0.077 A 
HETATM   34  C   UNL     1      -0.697   6.644 -32.597  1.00  0.00     0.037 A 
HETATM   35  C   UNL     1      -0.872   6.721 -33.978  1.00  0.00     0.003 A 
HETATM   36  C   UNL     1      -1.864   5.970 -34.599  1.00  0.00     0.001 A 
HETATM   37  C   UNL     1      -2.691   5.147 -33.836  1.00  0.00     0.012 A 
BRANCH  33  38
HETATM   38  O   UNL     1      -1.414   5.693 -30.461  1.00  0.00    -0.355 OA
HETATM   39  C   UNL     1      -0.105   5.529 -29.923  1.00  0.00     0.210 C 
ENDBRANCH  33  38
ENDBRANCH   1  32
TORSDOF 7
ENDMDL
MODEL 7
REMARK VINA RESULT:      -8.0      2.497      5.511
REMARK  7 active torsions:
REMARK  status: ('A' for Active; 'I' for Inactive)
REMARK    1  A    between atoms: O_2  and  C_3 
REMARK    2  A    between atoms: C_4  and  C_5 
REMARK    3  A    between atoms: N_10  and  C_12 
REMARK    4  A    between atoms: C_12  and  C_13 
REMARK       I    between atoms: C_13  and  N_14 
REMARK    5  A    between atoms: N_14  and  C_15 
REMARK    6  A    between atoms: C_15  and  C_16 
REMARK    7  A    between atoms: C_16  and  C_17 
ROOT
HETATM    1  C   UNL     1      -9.045   1.143 -33.043  1.00  0.00     0.190 C 
HETATM    2  O   UNL     1      -8.851  -0.274 -32.890  1.00  0.00    -0.339 OA
HETATM    3  C   UNL     1      -7.548  -0.602 -33.155  1.00  0.00     0.077 A 
HETATM    4  C   UNL     1      -6.526  -0.236 -32.273  1.00  0.00     0.001 A 
HETATM    5  C   UNL     1      -6.841   0.475 -30.990  1.00  0.00     0.276 C 
HETATM    6  N   UNL     1      -7.425   1.848 -31.189  1.00  0.00    -0.056 N 
HETATM    7  H   UNL     1      -6.871   2.323 -31.922  1.00  0.00     0.280 HD
HETATM    8  C   UNL     1      -8.880   1.834 -31.671  1.00  0.00     0.273 C 
HETATM    9  C   UNL     1      -7.283  -1.323 -34.316  1.00  0.00     0.037 A 
HETATM   10  C   UNL     1      -5.969  -1.656 -34.633  1.00  0.00     0.003 A 
HETATM   11  C   UNL     1      -4.931  -1.279 -33.781  1.00  0.00     0.001 A 
HETATM   12  C   UNL     1      -5.207  -0.576 -32.605  1.00  0.00     0.012 A 
ENDROOT
BRANCH   6  13
HETATM   13  C   UNL     1      -7.267   2.732 -29.953  1.00  0.00     0.337 C 
BRANCH  13  14
HETATM   14  C   UNL     1      -7.602   4.182 -30.301  1.00  0.00     0.243 C 
HETATM   15  N   UNL     1      -6.735   4.807 -31.162  1.00  0.00    -0.359 N 
HETATM   16  H   UNL     1      -5.830   4.381 -31.343  1.00  0.00     0.162 HD
HETATM   17  O   UNL     1      -8.545   4.738 -29.737  1.00  0.00    -0.272 OA
BRANCH  15  18
HETATM   18  C   UNL     1      -6.755   6.252 -31.320  1.00  0.00     0.130 C 
BRANCH  18  19
HETATM   19  C   UNL     1      -5.882   6.730 -32.481  1.00  0.00     0.098 C 
BRANCH  19  20
HETATM   20  C   UNL     1      -4.425   6.359 -32.293  1.00  0.00     0.109 A 
HETATM   21  N   UNL     1      -3.777   6.709 -31.221  1.00  0.00    -0.234 NA
HETATM   22  C   UNL     1      -2.424   6.318 -31.125  1.00  0.00     0.074 A 
HETATM   23  C   UNL     1      -1.765   5.620 -32.142  1.00  0.00     0.061 A 
HETATM   24  C   UNL     1      -1.712   6.627 -29.964  1.00  0.00     0.032 A 
HETATM   25  C   UNL     1      -2.536   5.288 -33.348  1.00  0.00     0.259 A 
HETATM   26  C   UNL     1      -0.425   5.237 -32.019  1.00  0.00     0.019 A 
HETATM   27  O   UNL     1      -2.045   4.704 -34.304  1.00  0.00    -0.267 OA
HETATM   28  N   UNL     1      -3.850   5.679 -33.332  1.00  0.00    -0.311 N 
HETATM   29  H   UNL     1      -4.370   5.445 -34.169  1.00  0.00     0.170 HD
HETATM   30  C   UNL     1       0.270   5.554 -30.855  1.00  0.00     0.001 A 
HETATM   31  C   UNL     1      -0.372   6.248 -29.828  1.00  0.00     0.002 A 
ENDBRANCH  19  20
ENDBRANCH  18  19
ENDBRANCH  15  18
ENDBRANCH  13  14
ENDBRANCH   6  13
BRANCH   1  32
HETATM   32  C   UNL     1     -10.435   1.354 -33.627  1.00  0.00     0.006 A 
HETATM   33  C   UNL     1     -10.699   2.471 -34.448  1.00  0.00     0.077 A 
HETATM   34  C   UNL     1     -11.983   2.664 -34.967  1.00  0.00     0.037 A 
HETATM   35  C   UNL     1     -13.001   1.749 -34.697  1.00  0.00     0.003 A 
HETATM   36  C   UNL     1     -12.743   0.629 -33.915  1.00  0.00     0.001 A 
HETATM   37  C   UNL     1     -11.468   0.426 -33.391  1.00  0.00     0.012 A 
BRANCH  33  38
HETATM   38  O   UNL     1      -9.648   3.323 -34.665  1.00  0.00    -0.355 OA
HETATM   39  C   UNL     1      -9.927   4.720 -34.646  1.00  0.00     0.210 C 
ENDBRANCH  33  38
ENDBRANCH   1  32
TORSDOF 7
ENDMDL
MODEL 8
REMARK VINA RESULT:      -7.8      2.204      6.088
REMARK  7 active torsions:
REMARK  status: ('A' for Active; 'I' for Inactive)
REMARK    1  A    between atoms: O_2  and  C_3 
REMARK    2  A    between atoms: C_4  and  C_5 
REMARK    3  A    between atoms: N_10  and  C_12 
REMARK    4  A    between atoms: C_12  and  C_13 
REMARK       I    between atoms: C_13  and  N_14 
REMARK    5  A    between atoms: N_14  and  C_15 
REMARK    6  A    between atoms: C_15  and  C_16 
REMARK    7  A    between atoms: C_16  and  C_17 
ROOT
HETATM    1  C   UNL     1      -4.003   4.258 -32.116  1.00  0.00     0.190 C 
HETATM    2  O   UNL     1      -4.204   3.149 -33.011  1.00  0.00    -0.339 OA
HETATM    3  C   UNL     1      -4.551   2.030 -32.303  1.00  0.00     0.077 A 
HETATM    4  C   UNL     1      -5.805   1.932 -31.691  1.00  0.00     0.001 A 
HETATM    5  C   UNL     1      -6.818   3.026 -31.844  1.00  0.00     0.276 C 
HETATM    6  N   UNL     1      -6.400   4.328 -31.216  1.00  0.00    -0.056 N 
HETATM    7  H   UNL     1      -6.004   4.116 -30.285  1.00  0.00     0.280 HD
HETATM    8  C   UNL     1      -5.312   5.069 -32.003  1.00  0.00     0.273 C 
HETATM    9  C   UNL     1      -3.623   0.994 -32.230  1.00  0.00     0.037 A 
HETATM   10  C   UNL     1      -3.928  -0.152 -31.500  1.00  0.00     0.003 A 
HETATM   11  C   UNL     1      -5.162  -0.260 -30.861  1.00  0.00     0.001 A 
HETATM   12  C   UNL     1      -6.099   0.772 -30.958  1.00  0.00     0.012 A 
ENDROOT
BRANCH   6  13
HETATM   13  C   UNL     1      -7.588   5.244 -30.930  1.00  0.00     0.337 C 
BRANCH  13  14
HETATM   14  C   UNL     1      -8.384   5.485 -32.212  1.00  0.00     0.243 C 
HETATM   15  N   UNL     1      -9.657   4.974 -32.232  1.00  0.00    -0.359 N 
HETATM   16  H   UNL     1      -9.926   4.296 -31.524  1.00  0.00     0.162 HD
HETATM   17  O   UNL     1      -7.833   6.020 -33.175  1.00  0.00    -0.272 OA
BRANCH  15  18
HETATM   18  C   UNL     1     -10.392   4.853 -33.480  1.00  0.00     0.130 C 
BRANCH  18  19
HETATM   19  C   UNL     1     -11.203   3.559 -33.564  1.00  0.00     0.098 C 
BRANCH  19  20
HETATM   20  C   UNL     1     -10.318   2.331 -33.625  1.00  0.00     0.109 A 
HETATM   21  N   UNL     1      -9.186   2.352 -34.264  1.00  0.00    -0.234 NA
HETATM   22  C   UNL     1      -8.421   1.165 -34.266  1.00  0.00     0.074 A 
HETATM   23  C   UNL     1      -8.855  -0.015 -33.653  1.00  0.00     0.061 A 
HETATM   24  C   UNL     1      -7.174   1.166 -34.894  1.00  0.00     0.032 A 
HETATM   25  C   UNL     1     -10.162   0.009 -32.982  1.00  0.00     0.259 A 
HETATM   26  C   UNL     1      -8.074  -1.175 -33.663  1.00  0.00     0.019 A 
HETATM   27  O   UNL     1     -10.643  -0.977 -32.440  1.00  0.00    -0.267 OA
HETATM   28  N   UNL     1     -10.813   1.216 -33.003  1.00  0.00    -0.311 N 
HETATM   29  H   UNL     1     -11.711   1.219 -32.538  1.00  0.00     0.170 HD
HETATM   30  C   UNL     1      -6.834  -1.158 -34.295  1.00  0.00     0.001 A 
HETATM   31  C   UNL     1      -6.383   0.012 -34.909  1.00  0.00     0.002 A 
ENDBRANCH  19  20
ENDBRANCH  18  19
ENDBRANCH  15  18
ENDBRANCH  13  14
ENDBRANCH   6  13
BRANCH   1  32
HETATM   32  C   UNL     1      -2.858   5.093 -32.672  1.00  0.00     0.006 A 
HETATM   33  C   UNL     1      -2.153   5.981 -31.833  1.00  0.00     0.077 A 
HETATM   34  C   UNL     1      -1.112   6.755 -32.358  1.00  0.00     0.037 A 
HETATM   35  C   UNL     1      -0.752   6.641 -33.700  1.00  0.00     0.003 A 
HETATM   36  C   UNL     1      -1.420   5.745 -34.528  1.00  0.00     0.001 A 
HETATM   37  C   UNL     1      -2.459   4.969 -34.017  1.00  0.00     0.012 A 
BRANCH  33  38
HETATM   38  O   UNL     1      -2.568   6.036 -30.528  1.00  0.00    -0.355 OA
HETATM   39  C   UNL     1      -1.877   6.933 -29.663  1.00  0.00     0.210 C 
ENDBRANCH  33  38
ENDBRANCH   1  32
TORSDOF 7
ENDMDL
MODEL 9
REMARK VINA RESULT:      -7.8      3.933      8.345
REMARK  7 active torsions:
REMARK  status: ('A' for Active; 'I' for Inactive)
REMARK    1  A    between atoms: O_2  and  C_3 
REMARK    2  A    between atoms: C_4  and  C_5 
REMARK    3  A    between atoms: N_10  and  C_12 
REMARK    4  A    between atoms: C_12  and  C_13 
REMARK       I    between atoms: C_13  and  N_14 
REMARK    5  A    between atoms: N_14  and  C_15 
REMARK    6  A    between atoms: C_15  and  C_16 
REMARK    7  A    between atoms: C_16  and  C_17 
ROOT
HETATM    1  C   UNL     1      -2.076   7.096 -30.243  1.00  0.00     0.190 C 
HETATM    2  O   UNL     1      -2.070   7.853 -31.466  1.00  0.00    -0.339 OA
HETATM    3  C   UNL     1      -2.233   7.018 -32.538  1.00  0.00     0.077 A 
HETATM    4  C   UNL     1      -3.463   6.395 -32.777  1.00  0.00     0.001 A 
HETATM    5  C   UNL     1      -4.645   6.673 -31.898  1.00  0.00     0.276 C 
HETATM    6  N   UNL     1      -4.465   6.204 -30.479  1.00  0.00    -0.056 N 
HETATM    7  H   UNL     1      -4.054   5.255 -30.511  1.00  0.00     0.280 HD
HETATM    8  C   UNL     1      -3.506   7.076 -29.660  1.00  0.00     0.273 C 
HETATM    9  C   UNL     1      -1.144   6.826 -33.385  1.00  0.00     0.037 A 
HETATM   10  C   UNL     1      -1.263   5.966 -34.473  1.00  0.00     0.003 A 
HETATM   11  C   UNL     1      -2.472   5.315 -34.716  1.00  0.00     0.001 A 
HETATM   12  C   UNL     1      -3.568   5.530 -33.877  1.00  0.00     0.012 A 
ENDROOT
BRANCH   6  13
HETATM   13  C   UNL     1      -5.796   6.024 -29.752  1.00  0.00     0.337 C 
BRANCH  13  14
HETATM   14  C   UNL     1      -6.127   4.537 -29.627  1.00  0.00     0.243 C 
HETATM   15  N   UNL     1      -5.106   3.670 -29.927  1.00  0.00    -0.359 N 
HETATM   16  H   UNL     1      -4.287   4.023 -30.414  1.00  0.00     0.162 HD
HETATM   17  O   UNL     1      -7.280   4.192 -29.370  1.00  0.00    -0.272 OA
BRANCH  15  18
HETATM   18  C   UNL     1      -5.371   2.258 -30.156  1.00  0.00     0.130 C 
BRANCH  18  19
HETATM   19  C   UNL     1      -5.324   1.883 -31.638  1.00  0.00     0.098 C 
BRANCH  19  20
HETATM   20  C   UNL     1      -6.653   2.113 -32.330  1.00  0.00     0.109 A 
HETATM   21  N   UNL     1      -7.578   1.199 -32.324  1.00  0.00    -0.234 NA
HETATM   22  C   UNL     1      -8.787   1.497 -32.988  1.00  0.00     0.074 A 
HETATM   23  C   UNL     1      -8.998   2.699 -33.671  1.00  0.00     0.061 A 
HETATM   24  C   UNL     1      -9.825   0.562 -32.955  1.00  0.00     0.032 A 
HETATM   25  C   UNL     1      -7.901   3.677 -33.679  1.00  0.00     0.259 A 
HETATM   26  C   UNL     1     -10.209   2.973 -34.315  1.00  0.00     0.019 A 
HETATM   27  O   UNL     1      -7.976   4.746 -34.271  1.00  0.00    -0.267 OA
HETATM   28  N   UNL     1      -6.782   3.311 -32.977  1.00  0.00    -0.311 N 
HETATM   29  H   UNL     1      -6.034   3.993 -32.991  1.00  0.00     0.170 HD
HETATM   30  C   UNL     1     -11.232   2.030 -34.274  1.00  0.00     0.001 A 
HETATM   31  C   UNL     1     -11.042   0.826 -33.594  1.00  0.00     0.002 A 
ENDBRANCH  19  20
ENDBRANCH  18  19
ENDBRANCH  15  18
ENDBRANCH  13  14
ENDBRANCH   6  13
BRANCH   1  32
HETATM   32  C   UNL     1      -1.080   7.750 -29.296  1.00  0.00     0.006 A 
HETATM   33  C   UNL     1       0.260   7.310 -29.259  1.00  0.00     0.077 A 
HETATM   34  C   UNL     1       1.164   7.908 -28.374  1.00  0.00     0.037 A 
HETATM   35  C   UNL     1       0.756   8.949 -27.541  1.00  0.00     0.003 A 
HETATM   36  C   UNL     1      -0.555   9.411 -27.592  1.00  0.00     0.001 A 
HETATM   37  C   UNL     1      -1.465   8.823 -28.469  1.00  0.00     0.012 A 
BRANCH  33  38
HETATM   38  O   UNL     1       0.582   6.283 -30.106  1.00  0.00    -0.355 OA
HETATM   39  C   UNL     1       0.801   5.002 -29.522  1.00  0.00     0.210 C 
ENDBRANCH  33  38
ENDBRANCH   1  32
TORSDOF 7
ENDMDL
MODEL 10
REMARK VINA RESULT:      -7.8      2.318      4.768
REMARK  7 active torsions:
REMARK  status: ('A' for Active; 'I' for Inactive)
REMARK    1  A    between atoms: O_2  and  C_3 
REMARK    2  A    between atoms: C_4  and  C_5 
REMARK    3  A    between atoms: N_10  and  C_12 
REMARK    4  A    between atoms: C_12  and  C_13 
REMARK       I    between atoms: C_13  and  N_14 
REMARK    5  A    between atoms: N_14  and  C_15 
REMARK    6  A    between atoms: C_15  and  C_16 
REMARK    7  A    between atoms: C_16  and  C_17 
ROOT
HETATM    1  C   UNL     1      -9.018   1.646 -33.329  1.00  0.00     0.190 C 
HETATM    2  O   UNL     1      -9.973   1.583 -34.404  1.00  0.00    -0.339 OA
HETATM    3  C   UNL     1     -11.228   1.866 -33.936  1.00  0.00     0.077 A 
HETATM    4  C   UNL     1     -11.566   3.163 -33.539  1.00  0.00     0.001 A 
HETATM    5  C   UNL     1     -10.580   4.285 -33.670  1.00  0.00     0.276 C 
HETATM    6  N   UNL     1      -9.366   4.127 -32.794  1.00  0.00    -0.056 N 
HETATM    7  H   UNL     1      -9.690   3.828 -31.858  1.00  0.00     0.280 HD
HETATM    8  C   UNL     1      -8.387   3.055 -33.288  1.00  0.00     0.273 C 
HETATM    9  C   UNL     1     -12.153   0.826 -33.886  1.00  0.00     0.037 A 
HETATM   10  C   UNL     1     -13.433   1.067 -33.395  1.00  0.00     0.003 A 
HETATM   11  C   UNL     1     -13.784   2.348 -32.970  1.00  0.00     0.001 A 
HETATM   12  C   UNL     1     -12.859   3.393 -33.045  1.00  0.00     0.012 A 
ENDROOT
BRANCH   6  13
HETATM   13  C   UNL     1      -8.648   5.453 -32.549  1.00  0.00     0.337 C 
BRANCH  13  14
HETATM   14  C   UNL     1      -8.359   5.623 -31.058  1.00  0.00     0.243 C 
HETATM   15  N   UNL     1      -7.187   6.265 -30.746  1.00  0.00    -0.359 N 
HETATM   16  H   UNL     1      -6.486   6.390 -31.471  1.00  0.00     0.162 HD
HETATM   17  O   UNL     1      -9.112   5.108 -30.232  1.00  0.00    -0.272 OA
BRANCH  15  18
HETATM   18  C   UNL     1      -6.644   6.209 -29.398  1.00  0.00     0.130 C 
BRANCH  18  19
HETATM   19  C   UNL     1      -5.588   5.115 -29.232  1.00  0.00     0.098 C 
BRANCH  19  20
HETATM   20  C   UNL     1      -4.572   5.124 -30.357  1.00  0.00     0.109 A 
HETATM   21  N   UNL     1      -4.176   6.240 -30.894  1.00  0.00    -0.234 NA
HETATM   22  C   UNL     1      -3.225   6.157 -31.933  1.00  0.00     0.074 A 
HETATM   23  C   UNL     1      -2.739   4.939 -32.419  1.00  0.00     0.061 A 
HETATM   24  C   UNL     1      -2.734   7.338 -32.495  1.00  0.00     0.032 A 
HETATM   25  C   UNL     1      -3.255   3.708 -31.802  1.00  0.00     0.259 A 
HETATM   26  C   UNL     1      -1.790   4.885 -33.444  1.00  0.00     0.019 A 
HETATM   27  O   UNL     1      -2.914   2.593 -32.173  1.00  0.00    -0.267 OA
HETATM   28  N   UNL     1      -4.148   3.893 -30.778  1.00  0.00    -0.311 N 
HETATM   29  H   UNL     1      -4.495   3.038 -30.362  1.00  0.00     0.170 HD
HETATM   30  C   UNL     1      -1.312   6.070 -33.995  1.00  0.00     0.001 A 
HETATM   31  C   UNL     1      -1.782   7.297 -33.521  1.00  0.00     0.002 A 
ENDBRANCH  19  20
ENDBRANCH  18  19
ENDBRANCH  15  18
ENDBRANCH  13  14
ENDBRANCH   6  13
BRANCH   1  32
HETATM   32  C   UNL     1      -7.980   0.561 -33.575  1.00  0.00     0.006 A 
HETATM   33  C   UNL     1      -7.182   0.086 -32.512  1.00  0.00     0.077 A 
HETATM   34  C   UNL     1      -6.221  -0.901 -32.751  1.00  0.00     0.037 A 
HETATM   35  C   UNL     1      -6.058  -1.436 -34.028  1.00  0.00     0.003 A 
HETATM   36  C   UNL     1      -6.860  -0.999 -35.076  1.00  0.00     0.001 A 
HETATM   37  C   UNL     1      -7.821  -0.014 -34.850  1.00  0.00     0.012 A 
BRANCH  33  38
HETATM   38  O   UNL     1      -7.402   0.663 -31.288  1.00  0.00    -0.355 OA
HETATM   39  C   UNL     1      -6.360   0.558 -30.322  1.00  0.00     0.210 C 
ENDBRANCH  33  38
ENDBRANCH   1  32
TORSDOF 7
ENDMDL
