MODEL 1
REMARK VINA RESULT:      -9.5      0.000      0.000
REMARK  7 active torsions:
REMARK  status: ('A' for Active; 'I' for Inactive)
REMARK    1  A    between atoms: O_2  and  C_3 
REMARK    2  A    between atoms: C_5  and  C_6 
REMARK    3  A    between atoms: N_8  and  C_9 
REMARK    4  A    between atoms: C_9  and  C_10 
REMARK    5  A    between atoms: C_17  and  C_18 
REMARK       I    between atoms: C_18  and  N_19 
REMARK    6  A    between atoms: N_19  and  N_20 
REMARK       I    between atoms: N_20  and  C_21 
REMARK    7  A    between atoms: C_21  and  C_22 
ROOT
HETATM    1  C   UNL     1      -5.992   0.766 -32.688  1.00  0.00     0.104 A 
HETATM    2  N   UNL     1      -4.933   1.580 -32.516  1.00  0.00    -0.171 NA
HETATM    3  N   UNL     1      -5.425   2.669 -31.908  1.00  0.00    -0.275 N 
HETATM    4  C   UNL     1      -6.759   2.582 -31.650  1.00  0.00     0.132 A 
HETATM    5  C   UNL     1      -7.182   1.358 -32.148  1.00  0.00     0.082 A 
ENDROOT
BRANCH   5   6
HETATM    6  C   UNL     1      -8.548   0.853 -32.131  1.00  0.00     0.274 C 
HETATM    7  N   UNL     1      -9.290   1.173 -33.253  1.00  0.00    -0.263 N 
HETATM    8  H   UNL     1      -8.969   1.856 -33.936  1.00  0.00     0.190 HD
HETATM    9  O   UNL     1      -9.033   0.211 -31.202  1.00  0.00    -0.266 OA
BRANCH   7  10
HETATM   10  N   UNL     1     -10.673   0.927 -33.243  1.00  0.00    -0.262 N 
HETATM   11  C   UNL     1     -11.505   1.865 -33.817  1.00  0.00     0.286 C 
HETATM   12  O   UNL     1     -11.056   2.851 -34.403  1.00  0.00    -0.264 OA
HETATM   13  H   UNL     1     -11.001   0.162 -32.659  1.00  0.00     0.190 HD
BRANCH  11  14
HETATM   14  C   UNL     1     -12.923   1.621 -33.680  1.00  0.00     0.102 A 
HETATM   15  N   UNL     1     -13.646   2.169 -32.639  1.00  0.00    -0.361 N 
HETATM   16  H   UNL     1     -13.239   2.760 -31.924  1.00  0.00     0.165 HD
HETATM   17  C   UNL     1     -14.961   1.801 -32.726  1.00  0.00     0.088 A 
HETATM   18  C   UNL     1     -15.101   1.000 -33.834  1.00  0.00     0.019 A 
HETATM   19  C   UNL     1     -13.822   0.884 -34.436  1.00  0.00     0.036 A 
ENDBRANCH  11  14
ENDBRANCH   7  10
ENDBRANCH   5   6
BRANCH   1  20
HETATM   20  C   UNL     1      -5.786  -0.532 -33.344  1.00  0.00    -0.002 A 
HETATM   21  C   UNL     1      -4.756  -1.400 -32.962  1.00  0.00     0.050 A 
HETATM   22  C   UNL     1      -4.571  -2.628 -33.610  1.00  0.00     0.069 A 
HETATM   23  C   UNL     1      -5.402  -2.980 -34.673  1.00  0.00     0.037 A 
HETATM   24  C   UNL     1      -6.420  -2.116 -35.078  1.00  0.00     0.004 A 
HETATM   25  C   UNL     1      -6.611  -0.902 -34.418  1.00  0.00     0.014 A 
BRANCH  22  26
HETATM   26  O   UNL     1      -3.537  -3.383 -33.123  1.00  0.00    -0.356 OA
HETATM   27  C   UNL     1      -3.478  -4.736 -33.556  1.00  0.00     0.210 C 
ENDBRANCH  22  26
ENDBRANCH   1  20
BRANCH   3  28
HETATM   28  C   UNL     1      -4.533   3.758 -31.532  1.00  0.00     0.189 C 
BRANCH  28  29
HETATM   29  C   UNL     1      -3.781   4.316 -32.716  1.00  0.00    -0.038 A 
HETATM   30  C   UNL     1      -2.380   4.380 -32.708  1.00  0.00     0.009 A 
HETATM   31  C   UNL     1      -1.688   4.870 -33.817  1.00  0.00     0.001 A 
HETATM   32  C   UNL     1      -2.386   5.300 -34.944  1.00  0.00     0.000 A 
HETATM   33  C   UNL     1      -3.778   5.242 -34.964  1.00  0.00     0.001 A 
HETATM   34  C   UNL     1      -4.472   4.751 -33.858  1.00  0.00     0.009 A 
ENDBRANCH  28  29
ENDBRANCH   3  28
TORSDOF 7
ENDMDL
MODEL 2
REMARK VINA RESULT:      -9.3      1.481      2.021
REMARK  7 active torsions:
REMARK  status: ('A' for Active; 'I' for Inactive)
REMARK    1  A    between atoms: O_2  and  C_3 
REMARK    2  A    between atoms: C_5  and  C_6 
REMARK    3  A    between atoms: N_8  and  C_9 
REMARK    4  A    between atoms: C_9  and  C_10 
REMARK    5  A    between atoms: C_17  and  C_18 
REMARK       I    between atoms: C_18  and  N_19 
REMARK    6  A    between atoms: N_19  and  N_20 
REMARK       I    between atoms: N_20  and  C_21 
REMARK    7  A    between atoms: C_21  and  C_22 
ROOT
HETATM    1  C   UNL     1      -5.136   1.224 -33.005  1.00  0.00     0.104 A 
HETATM    2  N   UNL     1      -3.908   1.524 -32.538  1.00  0.00    -0.171 NA
HETATM    3  N   UNL     1      -3.994   2.794 -32.118  1.00  0.00    -0.275 N 
HETATM    4  C   UNL     1      -5.240   3.325 -32.267  1.00  0.00     0.132 A 
HETATM    5  C   UNL     1      -6.024   2.340 -32.850  1.00  0.00     0.082 A 
ENDROOT
BRANCH   5   6
HETATM    6  C   UNL     1      -7.424   2.476 -33.232  1.00  0.00     0.274 C 
HETATM    7  N   UNL     1      -8.323   2.042 -32.274  1.00  0.00    -0.263 N 
HETATM    8  H   UNL     1      -8.029   1.506 -31.461  1.00  0.00     0.190 HD
HETATM    9  O   UNL     1      -7.801   2.918 -34.314  1.00  0.00    -0.266 OA
BRANCH   7  10
HETATM   10  N   UNL     1      -9.678   1.925 -32.622  1.00  0.00    -0.262 N 
HETATM   11  C   UNL     1     -10.141   0.692 -33.033  1.00  0.00     0.286 C 
HETATM   12  O   UNL     1      -9.418  -0.306 -33.012  1.00  0.00    -0.264 OA
HETATM   13  H   UNL     1     -10.204   2.789 -32.726  1.00  0.00     0.190 HD
BRANCH  11  14
HETATM   14  C   UNL     1     -11.512   0.649 -33.487  1.00  0.00     0.102 A 
HETATM   15  N   UNL     1     -12.351  -0.387 -33.130  1.00  0.00    -0.361 N 
HETATM   16  H   UNL     1     -12.067  -1.163 -32.543  1.00  0.00     0.165 HD
HETATM   17  C   UNL     1     -13.593  -0.205 -33.676  1.00  0.00     0.088 A 
HETATM   18  C   UNL     1     -13.565   0.962 -34.402  1.00  0.00     0.019 A 
HETATM   19  C   UNL     1     -12.259   1.502 -34.286  1.00  0.00     0.036 A 
ENDBRANCH  11  14
ENDBRANCH   7  10
ENDBRANCH   5   6
BRANCH   1  20
HETATM   20  C   UNL     1      -5.376  -0.117 -33.551  1.00  0.00    -0.002 A 
HETATM   21  C   UNL     1      -4.527  -1.195 -33.272  1.00  0.00     0.050 A 
HETATM   22  C   UNL     1      -4.769  -2.463 -33.814  1.00  0.00     0.069 A 
HETATM   23  C   UNL     1      -5.852  -2.652 -34.672  1.00  0.00     0.037 A 
HETATM   24  C   UNL     1      -6.695  -1.583 -34.977  1.00  0.00     0.004 A 
HETATM   25  C   UNL     1      -6.460  -0.326 -34.419  1.00  0.00     0.014 A 
BRANCH  22  26
HETATM   26  O   UNL     1      -3.869  -3.426 -33.443  1.00  0.00    -0.356 OA
HETATM   27  C   UNL     1      -3.218  -3.242 -32.192  1.00  0.00     0.210 C 
ENDBRANCH  22  26
ENDBRANCH   1  20
BRANCH   3  28
HETATM   28  C   UNL     1      -2.838   3.440 -31.510  1.00  0.00     0.189 C 
BRANCH  28  29
HETATM   29  C   UNL     1      -2.211   4.465 -32.422  1.00  0.00    -0.038 A 
HETATM   30  C   UNL     1      -2.366   4.374 -33.814  1.00  0.00     0.009 A 
HETATM   31  C   UNL     1      -1.807   5.342 -34.652  1.00  0.00     0.001 A 
HETATM   32  C   UNL     1      -1.092   6.408 -34.111  1.00  0.00     0.000 A 
HETATM   33  C   UNL     1      -0.931   6.509 -32.731  1.00  0.00     0.001 A 
HETATM   34  C   UNL     1      -1.489   5.545 -31.891  1.00  0.00     0.009 A 
ENDBRANCH  28  29
ENDBRANCH   3  28
TORSDOF 7
ENDMDL
MODEL 3
REMARK VINA RESULT:      -9.3      1.152      1.830
REMARK  7 active torsions:
REMARK  status: ('A' for Active; 'I' for Inactive)
REMARK    1  A    between atoms: O_2  and  C_3 
REMARK    2  A    between atoms: C_5  and  C_6 
REMARK    3  A    between atoms: N_8  and  C_9 
REMARK    4  A    between atoms: C_9  and  C_10 
REMARK    5  A    between atoms: C_17  and  C_18 
REMARK       I    between atoms: C_18  and  N_19 
REMARK    6  A    between atoms: N_19  and  N_20 
REMARK       I    between atoms: N_20  and  C_21 
REMARK    7  A    between atoms: C_21  and  C_22 
ROOT
HETATM    1  C   UNL     1      -5.305   1.007 -32.448  1.00  0.00     0.104 A 
HETATM    2  N   UNL     1      -4.371   1.955 -32.240  1.00  0.00    -0.171 NA
HETATM    3  N   UNL     1      -5.060   3.072 -31.965  1.00  0.00    -0.275 N 
HETATM    4  C   UNL     1      -6.408   2.880 -31.957  1.00  0.00     0.132 A 
HETATM    5  C   UNL     1      -6.623   1.547 -32.274  1.00  0.00     0.082 A 
ENDROOT
BRANCH   5   6
HETATM    6  C   UNL     1      -7.920   0.900 -32.420  1.00  0.00     0.274 C 
HETATM    7  N   UNL     1      -8.516   1.086 -33.654  1.00  0.00    -0.263 N 
HETATM    8  H   UNL     1      -8.167   1.766 -34.326  1.00  0.00     0.190 HD
HETATM    9  O   UNL     1      -8.470   0.253 -31.532  1.00  0.00    -0.266 OA
BRANCH   7  10
HETATM   10  N   UNL     1      -9.853   0.694 -33.826  1.00  0.00    -0.262 N 
HETATM   11  C   UNL     1     -10.805   1.679 -33.992  1.00  0.00     0.286 C 
HETATM   12  O   UNL     1     -10.492   2.867 -34.079  1.00  0.00    -0.264 OA
HETATM   13  H   UNL     1     -10.076  -0.280 -33.641  1.00  0.00     0.190 HD
BRANCH  11  14
HETATM   14  C   UNL     1     -12.177   1.231 -34.050  1.00  0.00     0.102 A 
HETATM   15  N   UNL     1     -12.582   0.082 -33.401  1.00  0.00    -0.361 N 
HETATM   16  H   UNL     1     -11.960  -0.505 -32.858  1.00  0.00     0.165 HD
HETATM   17  C   UNL     1     -13.919  -0.133 -33.599  1.00  0.00     0.088 A 
HETATM   18  C   UNL     1     -14.395   0.886 -34.389  1.00  0.00     0.019 A 
HETATM   19  C   UNL     1     -13.303   1.745 -34.675  1.00  0.00     0.036 A 
ENDBRANCH  11  14
ENDBRANCH   7  10
ENDBRANCH   5   6
BRANCH   1  20
HETATM   20  C   UNL     1      -4.868  -0.354 -32.782  1.00  0.00    -0.002 A 
HETATM   21  C   UNL     1      -5.423  -1.071 -33.849  1.00  0.00     0.050 A 
HETATM   22  C   UNL     1      -4.999  -2.373 -34.141  1.00  0.00     0.069 A 
HETATM   23  C   UNL     1      -4.033  -2.981 -33.339  1.00  0.00     0.037 A 
HETATM   24  C   UNL     1      -3.486  -2.287 -32.260  1.00  0.00     0.004 A 
HETATM   25  C   UNL     1      -3.899  -0.984 -31.984  1.00  0.00     0.014 A 
BRANCH  22  26
HETATM   26  O   UNL     1      -5.615  -2.947 -35.222  1.00  0.00    -0.356 OA
HETATM   27  C   UNL     1      -6.560  -3.973 -34.945  1.00  0.00     0.210 C 
ENDBRANCH  22  26
ENDBRANCH   1  20
BRANCH   3  28
HETATM   28  C   UNL     1      -4.352   4.305 -31.648  1.00  0.00     0.189 C 
BRANCH  28  29
HETATM   29  C   UNL     1      -3.394   4.711 -32.741  1.00  0.00    -0.038 A 
HETATM   30  C   UNL     1      -3.860   4.980 -34.037  1.00  0.00     0.009 A 
HETATM   31  C   UNL     1      -2.973   5.383 -35.037  1.00  0.00     0.001 A 
HETATM   32  C   UNL     1      -1.616   5.523 -34.756  1.00  0.00     0.000 A 
HETATM   33  C   UNL     1      -1.141   5.259 -33.473  1.00  0.00     0.001 A 
HETATM   34  C   UNL     1      -2.024   4.858 -32.471  1.00  0.00     0.009 A 
ENDBRANCH  28  29
ENDBRANCH   3  28
TORSDOF 7
ENDMDL
MODEL 4
REMARK VINA RESULT:      -8.9      2.192      5.709
REMARK  7 active torsions:
REMARK  status: ('A' for Active; 'I' for Inactive)
REMARK    1  A    between atoms: O_2  and  C_3 
REMARK    2  A    between atoms: C_5  and  C_6 
REMARK    3  A    between atoms: N_8  and  C_9 
REMARK    4  A    between atoms: C_9  and  C_10 
REMARK    5  A    between atoms: C_17  and  C_18 
REMARK       I    between atoms: C_18  and  N_19 
REMARK    6  A    between atoms: N_19  and  N_20 
REMARK       I    between atoms: N_20  and  C_21 
REMARK    7  A    between atoms: C_21  and  C_22 
ROOT
HETATM    1  C   UNL     1      -5.320   1.722 -32.112  1.00  0.00     0.104 A 
HETATM    2  N   UNL     1      -4.138   1.074 -32.121  1.00  0.00    -0.171 NA
HETATM    3  N   UNL     1      -4.426  -0.182 -31.751  1.00  0.00    -0.275 N 
HETATM    4  C   UNL     1      -5.754  -0.384 -31.530  1.00  0.00     0.132 A 
HETATM    5  C   UNL     1      -6.384   0.833 -31.745  1.00  0.00     0.082 A 
ENDROOT
BRANCH   5   6
HETATM    6  C   UNL     1      -7.807   1.101 -31.585  1.00  0.00     0.274 C 
HETATM    7  N   UNL     1      -8.635   0.161 -32.172  1.00  0.00    -0.263 N 
HETATM    8  H   UNL     1      -8.282  -0.544 -32.815  1.00  0.00     0.190 HD
HETATM    9  O   UNL     1      -8.261   2.081 -30.999  1.00  0.00    -0.266 OA
BRANCH   7  10
HETATM   10  N   UNL     1     -10.009   0.435 -32.266  1.00  0.00    -0.262 N 
HETATM   11  C   UNL     1     -10.502   0.888 -33.472  1.00  0.00     0.286 C 
HETATM   12  O   UNL     1      -9.785   0.967 -34.471  1.00  0.00    -0.264 OA
HETATM   13  H   UNL     1     -10.535   0.458 -31.397  1.00  0.00     0.190 HD
BRANCH  11  14
HETATM   14  C   UNL     1     -11.898   1.263 -33.486  1.00  0.00     0.102 A 
HETATM   15  N   UNL     1     -12.340   2.394 -32.829  1.00  0.00    -0.361 N 
HETATM   16  H   UNL     1     -11.731   3.016 -32.310  1.00  0.00     0.165 HD
HETATM   17  C   UNL     1     -13.691   2.541 -32.988  1.00  0.00     0.088 A 
HETATM   18  C   UNL     1     -14.140   1.492 -33.755  1.00  0.00     0.019 A 
HETATM   19  C   UNL     1     -13.015   0.687 -34.069  1.00  0.00     0.036 A 
ENDBRANCH  11  14
ENDBRANCH   7  10
ENDBRANCH   5   6
BRANCH   1  20
HETATM   20  C   UNL     1      -5.347   3.145 -32.473  1.00  0.00    -0.002 A 
HETATM   21  C   UNL     1      -4.793   4.131 -31.647  1.00  0.00     0.050 A 
HETATM   22  C   UNL     1      -4.842   5.484 -32.006  1.00  0.00     0.069 A 
HETATM   23  C   UNL     1      -5.481   5.862 -33.187  1.00  0.00     0.037 A 
HETATM   24  C   UNL     1      -6.056   4.894 -34.010  1.00  0.00     0.004 A 
HETATM   25  C   UNL     1      -5.989   3.546 -33.656  1.00  0.00     0.014 A 
BRANCH  22  26
HETATM   26  O   UNL     1      -4.246   6.335 -31.115  1.00  0.00    -0.356 OA
HETATM   27  C   UNL     1      -2.847   6.173 -30.916  1.00  0.00     0.210 C 
ENDBRANCH  22  26
ENDBRANCH   1  20
BRANCH   3  28
HETATM   28  C   UNL     1      -3.368  -1.182 -31.688  1.00  0.00     0.189 C 
BRANCH  28  29
HETATM   29  C   UNL     1      -3.642  -2.360 -32.591  1.00  0.00    -0.038 A 
HETATM   30  C   UNL     1      -4.297  -2.183 -33.819  1.00  0.00     0.009 A 
HETATM   31  C   UNL     1      -4.522  -3.272 -34.664  1.00  0.00     0.001 A 
HETATM   32  C   UNL     1      -4.097  -4.546 -34.293  1.00  0.00     0.000 A 
HETATM   33  C   UNL     1      -3.446  -4.735 -33.075  1.00  0.00     0.001 A 
HETATM   34  C   UNL     1      -3.218  -3.649 -32.230  1.00  0.00     0.009 A 
ENDBRANCH  28  29
ENDBRANCH   3  28
TORSDOF 7
ENDMDL
MODEL 5
REMARK VINA RESULT:      -8.9      2.139      7.354
REMARK  7 active torsions:
REMARK  status: ('A' for Active; 'I' for Inactive)
REMARK    1  A    between atoms: O_2  and  C_3 
REMARK    2  A    between atoms: C_5  and  C_6 
REMARK    3  A    between atoms: N_8  and  C_9 
REMARK    4  A    between atoms: C_9  and  C_10 
REMARK    5  A    between atoms: C_17  and  C_18 
REMARK       I    between atoms: C_18  and  N_19 
REMARK    6  A    between atoms: N_19  and  N_20 
REMARK       I    between atoms: N_20  and  C_21 
REMARK    7  A    between atoms: C_21  and  C_22 
ROOT
HETATM    1  C   UNL     1      -7.563  -0.026 -33.270  1.00  0.00     0.104 A 
HETATM    2  N   UNL     1      -8.842  -0.430 -33.398  1.00  0.00    -0.171 NA
HETATM    3  N   UNL     1      -9.580   0.643 -33.083  1.00  0.00    -0.275 N 
HETATM    4  C   UNL     1      -8.831   1.740 -32.782  1.00  0.00     0.132 A 
HETATM    5  C   UNL     1      -7.502   1.354 -32.883  1.00  0.00     0.082 A 
ENDROOT
BRANCH   5   6
HETATM    6  C   UNL     1      -6.344   2.194 -32.609  1.00  0.00     0.274 C 
HETATM    7  N   UNL     1      -5.919   2.950 -33.686  1.00  0.00    -0.263 N 
HETATM    8  H   UNL     1      -6.266   2.790 -34.629  1.00  0.00     0.190 HD
HETATM    9  O   UNL     1      -5.763   2.233 -31.527  1.00  0.00    -0.266 OA
BRANCH   7  10
HETATM   10  N   UNL     1      -4.689   3.623 -33.597  1.00  0.00    -0.262 N 
HETATM   11  C   UNL     1      -4.637   4.941 -34.000  1.00  0.00     0.286 C 
HETATM   12  O   UNL     1      -5.652   5.549 -34.344  1.00  0.00    -0.264 OA
HETATM   13  H   UNL     1      -3.866   3.056 -33.411  1.00  0.00     0.190 HD
BRANCH  11  14
HETATM   14  C   UNL     1      -3.328   5.553 -33.997  1.00  0.00     0.102 A 
HETATM   15  N   UNL     1      -3.059   6.659 -33.215  1.00  0.00    -0.361 N 
HETATM   16  H   UNL     1      -3.742   7.099 -32.611  1.00  0.00     0.165 HD
HETATM   17  C   UNL     1      -1.758   7.053 -33.377  1.00  0.00     0.088 A 
HETATM   18  C   UNL     1      -1.170   6.197 -34.279  1.00  0.00     0.019 A 
HETATM   19  C   UNL     1      -2.154   5.254 -34.670  1.00  0.00     0.036 A 
ENDBRANCH  11  14
ENDBRANCH   7  10
ENDBRANCH   5   6
BRANCH   1  20
HETATM   20  C   UNL     1      -6.488  -0.987 -33.544  1.00  0.00    -0.002 A 
HETATM   21  C   UNL     1      -5.313  -1.025 -32.783  1.00  0.00     0.050 A 
HETATM   22  C   UNL     1      -4.296  -1.943 -33.070  1.00  0.00     0.069 A 
HETATM   23  C   UNL     1      -4.436  -2.812 -34.152  1.00  0.00     0.037 A 
HETATM   24  C   UNL     1      -5.591  -2.773 -34.933  1.00  0.00     0.004 A 
HETATM   25  C   UNL     1      -6.609  -1.869 -34.631  1.00  0.00     0.014 A 
BRANCH  22  26
HETATM   26  O   UNL     1      -3.213  -1.879 -32.234  1.00  0.00    -0.356 OA
HETATM   27  C   UNL     1      -2.951  -0.621 -31.625  1.00  0.00     0.210 C 
ENDBRANCH  22  26
ENDBRANCH   1  20
BRANCH   3  28
HETATM   28  C   UNL     1     -11.034   0.572 -33.152  1.00  0.00     0.189 C 
BRANCH  28  29
HETATM   29  C   UNL     1     -11.635   1.785 -33.819  1.00  0.00    -0.038 A 
HETATM   30  C   UNL     1     -11.785   1.834 -35.213  1.00  0.00     0.009 A 
HETATM   31  C   UNL     1     -12.367   2.946 -35.823  1.00  0.00     0.001 A 
HETATM   32  C   UNL     1     -12.806   4.020 -35.050  1.00  0.00     0.000 A 
HETATM   33  C   UNL     1     -12.662   3.984 -33.665  1.00  0.00     0.001 A 
HETATM   34  C   UNL     1     -12.082   2.873 -33.052  1.00  0.00     0.009 A 
ENDBRANCH  28  29
ENDBRANCH   3  28
TORSDOF 7
ENDMDL
MODEL 6
REMARK VINA RESULT:      -8.8      1.911      2.652
REMARK  7 active torsions:
REMARK  status: ('A' for Active; 'I' for Inactive)
REMARK    1  A    between atoms: O_2  and  C_3 
REMARK    2  A    between atoms: C_5  and  C_6 
REMARK    3  A    between atoms: N_8  and  C_9 
REMARK    4  A    between atoms: C_9  and  C_10 
REMARK    5  A    between atoms: C_17  and  C_18 
REMARK       I    between atoms: C_18  and  N_19 
REMARK    6  A    between atoms: N_19  and  N_20 
REMARK       I    between atoms: N_20  and  C_21 
REMARK    7  A    between atoms: C_21  and  C_22 
ROOT
HETATM    1  C   UNL     1      -4.108   1.340 -32.030  1.00  0.00     0.104 A 
HETATM    2  N   UNL     1      -2.939   1.970 -31.796  1.00  0.00    -0.171 NA
HETATM    3  N   UNL     1      -3.277   3.224 -31.464  1.00  0.00    -0.275 N 
HETATM    4  C   UNL     1      -4.624   3.428 -31.444  1.00  0.00     0.132 A 
HETATM    5  C   UNL     1      -5.214   2.228 -31.814  1.00  0.00     0.082 A 
ENDROOT
BRANCH   5   6
HETATM    6  C   UNL     1      -6.643   1.989 -31.967  1.00  0.00     0.274 C 
HETATM    7  N   UNL     1      -7.150   2.334 -33.207  1.00  0.00    -0.263 N 
HETATM    8  H   UNL     1      -6.613   2.878 -33.878  1.00  0.00     0.190 HD
HETATM    9  O   UNL     1      -7.364   1.537 -31.081  1.00  0.00    -0.266 OA
BRANCH   7  10
HETATM   10  N   UNL     1      -8.543   2.351 -33.387  1.00  0.00    -0.262 N 
HETATM   11  C   UNL     1      -9.133   1.266 -34.002  1.00  0.00     0.286 C 
HETATM   12  O   UNL     1      -8.481   0.266 -34.307  1.00  0.00    -0.264 OA
HETATM   13  H   UNL     1      -9.019   3.233 -33.220  1.00  0.00     0.190 HD
BRANCH  11  14
HETATM   14  C   UNL     1     -10.549   1.381 -34.266  1.00  0.00     0.102 A 
HETATM   15  N   UNL     1     -11.030   2.268 -35.208  1.00  0.00    -0.361 N 
HETATM   16  H   UNL     1     -10.438   2.879 -35.758  1.00  0.00     0.165 HD
HETATM   17  C   UNL     1     -12.395   2.193 -35.282  1.00  0.00     0.088 A 
HETATM   18  C   UNL     1     -12.812   1.247 -34.375  1.00  0.00     0.019 A 
HETATM   19  C   UNL     1     -11.655   0.736 -33.735  1.00  0.00     0.036 A 
ENDBRANCH  11  14
ENDBRANCH   7  10
ENDBRANCH   5   6
BRANCH   1  20
HETATM   20  C   UNL     1      -4.082  -0.073 -32.426  1.00  0.00    -0.002 A 
HETATM   21  C   UNL     1      -4.876  -0.565 -33.470  1.00  0.00     0.050 A 
HETATM   22  C   UNL     1      -4.844  -1.919 -33.823  1.00  0.00     0.069 A 
HETATM   23  C   UNL     1      -4.035  -2.801 -33.105  1.00  0.00     0.037 A 
HETATM   24  C   UNL     1      -3.255  -2.330 -32.050  1.00  0.00     0.004 A 
HETATM   25  C   UNL     1      -3.277  -0.976 -31.714  1.00  0.00     0.014 A 
BRANCH  22  26
HETATM   26  O   UNL     1      -5.657  -2.258 -34.872  1.00  0.00    -0.356 OA
HETATM   27  C   UNL     1      -5.937  -3.642 -35.040  1.00  0.00     0.210 C 
ENDBRANCH  22  26
ENDBRANCH   1  20
BRANCH   3  28
HETATM   28  C   UNL     1      -2.243   4.186 -31.106  1.00  0.00     0.189 C 
BRANCH  28  29
HETATM   29  C   UNL     1      -2.049   5.238 -32.170  1.00  0.00    -0.038 A 
HETATM   30  C   UNL     1      -1.812   4.872 -33.504  1.00  0.00     0.009 A 
HETATM   31  C   UNL     1      -1.662   5.849 -34.490  1.00  0.00     0.001 A 
HETATM   32  C   UNL     1      -1.747   7.199 -34.157  1.00  0.00     0.000 A 
HETATM   33  C   UNL     1      -1.982   7.576 -32.836  1.00  0.00     0.001 A 
HETATM   34  C   UNL     1      -2.134   6.602 -31.849  1.00  0.00     0.009 A 
ENDBRANCH  28  29
ENDBRANCH   3  28
TORSDOF 7
ENDMDL
MODEL 7
REMARK VINA RESULT:      -8.6      2.460      7.805
REMARK  7 active torsions:
REMARK  status: ('A' for Active; 'I' for Inactive)
REMARK    1  A    between atoms: O_2  and  C_3 
REMARK    2  A    between atoms: C_5  and  C_6 
REMARK    3  A    between atoms: N_8  and  C_9 
REMARK    4  A    between atoms: C_9  and  C_10 
REMARK    5  A    between atoms: C_17  and  C_18 
REMARK       I    between atoms: C_18  and  N_19 
REMARK    6  A    between atoms: N_19  and  N_20 
REMARK       I    between atoms: N_20  and  C_21 
REMARK    7  A    between atoms: C_21  and  C_22 
ROOT
HETATM    1  C   UNL     1      -7.298   0.711 -33.326  1.00  0.00     0.104 A 
HETATM    2  N   UNL     1      -8.585   0.355 -33.146  1.00  0.00    -0.171 NA
HETATM    3  N   UNL     1      -9.261   1.510 -33.073  1.00  0.00    -0.275 N 
HETATM    4  C   UNL     1      -8.468   2.606 -33.227  1.00  0.00     0.132 A 
HETATM    5  C   UNL     1      -7.171   2.139 -33.389  1.00  0.00     0.082 A 
ENDROOT
BRANCH   5   6
HETATM    6  C   UNL     1      -5.979   2.961 -33.547  1.00  0.00     0.274 C 
HETATM    7  N   UNL     1      -5.201   3.065 -32.409  1.00  0.00    -0.263 N 
HETATM    8  H   UNL     1      -5.530   2.752 -31.499  1.00  0.00     0.190 HD
HETATM    9  O   UNL     1      -5.677   3.541 -34.588  1.00  0.00    -0.266 OA
BRANCH   7  10
HETATM   10  N   UNL     1      -4.156   4.003 -32.387  1.00  0.00    -0.262 N 
HETATM   11  C   UNL     1      -2.964   3.637 -31.796  1.00  0.00     0.286 C 
HETATM   12  O   UNL     1      -2.779   2.493 -31.377  1.00  0.00    -0.264 OA
HETATM   13  H   UNL     1      -4.388   4.958 -32.645  1.00  0.00     0.190 HD
BRANCH  11  14
HETATM   14  C   UNL     1      -1.961   4.672 -31.698  1.00  0.00     0.102 A 
HETATM   15  N   UNL     1      -1.277   4.894 -30.520  1.00  0.00    -0.361 N 
HETATM   16  H   UNL     1      -1.430   4.361 -29.672  1.00  0.00     0.165 HD
HETATM   17  C   UNL     1      -0.381   5.918 -30.674  1.00  0.00     0.088 A 
HETATM   18  C   UNL     1      -0.483   6.374 -31.967  1.00  0.00     0.019 A 
HETATM   19  C   UNL     1      -1.475   5.594 -32.613  1.00  0.00     0.036 A 
ENDBRANCH  11  14
ENDBRANCH   7  10
ENDBRANCH   5   6
BRANCH   1  20
HETATM   20  C   UNL     1      -6.283  -0.343 -33.442  1.00  0.00    -0.002 A 
HETATM   21  C   UNL     1      -6.379  -1.364 -34.395  1.00  0.00     0.050 A 
HETATM   22  C   UNL     1      -5.405  -2.366 -34.479  1.00  0.00     0.069 A 
HETATM   23  C   UNL     1      -4.338  -2.369 -33.580  1.00  0.00     0.037 A 
HETATM   24  C   UNL     1      -4.239  -1.370 -32.612  1.00  0.00     0.004 A 
HETATM   25  C   UNL     1      -5.203  -0.364 -32.544  1.00  0.00     0.014 A 
BRANCH  22  26
HETATM   26  O   UNL     1      -5.617  -3.290 -35.468  1.00  0.00    -0.356 OA
HETATM   27  C   UNL     1      -6.498  -4.363 -35.159  1.00  0.00     0.210 C 
ENDBRANCH  22  26
ENDBRANCH   1  20
BRANCH   3  28
HETATM   28  C   UNL     1     -10.710   1.497 -32.914  1.00  0.00     0.189 C 
BRANCH  28  29
HETATM   29  C   UNL     1     -11.390   2.519 -33.792  1.00  0.00    -0.038 A 
HETATM   30  C   UNL     1     -11.684   2.228 -35.133  1.00  0.00     0.009 A 
HETATM   31  C   UNL     1     -12.339   3.166 -35.933  1.00  0.00     0.001 A 
HETATM   32  C   UNL     1     -12.708   4.402 -35.404  1.00  0.00     0.000 A 
HETATM   33  C   UNL     1     -12.421   4.703 -34.074  1.00  0.00     0.001 A 
HETATM   34  C   UNL     1     -11.768   3.767 -33.272  1.00  0.00     0.009 A 
ENDBRANCH  28  29
ENDBRANCH   3  28
TORSDOF 7
ENDMDL
MODEL 8
REMARK VINA RESULT:      -8.4      2.374      8.144
REMARK  7 active torsions:
REMARK  status: ('A' for Active; 'I' for Inactive)
REMARK    1  A    between atoms: O_2  and  C_3 
REMARK    2  A    between atoms: C_5  and  C_6 
REMARK    3  A    between atoms: N_8  and  C_9 
REMARK    4  A    between atoms: C_9  and  C_10 
REMARK    5  A    between atoms: C_17  and  C_18 
REMARK       I    between atoms: C_18  and  N_19 
REMARK    6  A    between atoms: N_19  and  N_20 
REMARK       I    between atoms: N_20  and  C_21 
REMARK    7  A    between atoms: C_21  and  C_22 
ROOT
HETATM    1  C   UNL     1      -8.397   1.856 -33.942  1.00  0.00     0.104 A 
HETATM    2  N   UNL     1      -9.582   1.803 -34.581  1.00  0.00    -0.171 NA
HETATM    3  N   UNL     1     -10.100   3.034 -34.459  1.00  0.00    -0.275 N 
HETATM    4  C   UNL     1      -9.284   3.895 -33.790  1.00  0.00     0.132 A 
HETATM    5  C   UNL     1      -8.158   3.171 -33.423  1.00  0.00     0.082 A 
ENDROOT
BRANCH   5   6
HETATM    6  C   UNL     1      -7.031   3.677 -32.651  1.00  0.00     0.274 C 
HETATM    7  N   UNL     1      -5.879   3.884 -33.389  1.00  0.00    -0.263 N 
HETATM    8  H   UNL     1      -5.778   3.537 -34.340  1.00  0.00     0.190 HD
HETATM    9  O   UNL     1      -7.066   3.892 -31.441  1.00  0.00    -0.266 OA
BRANCH   7  10
HETATM   10  N   UNL     1      -4.681   4.158 -32.710  1.00  0.00    -0.262 N 
HETATM   11  C   UNL     1      -3.795   5.046 -33.285  1.00  0.00     0.286 C 
HETATM   12  O   UNL     1      -4.075   5.656 -34.318  1.00  0.00    -0.264 OA
HETATM   13  H   UNL     1      -4.448   3.556 -31.925  1.00  0.00     0.190 HD
BRANCH  11  14
HETATM   14  C   UNL     1      -2.529   5.207 -32.606  1.00  0.00     0.102 A 
HETATM   15  N   UNL     1      -2.384   4.869 -31.276  1.00  0.00    -0.361 N 
HETATM   16  H   UNL     1      -3.135   4.498 -30.706  1.00  0.00     0.165 HD
HETATM   17  C   UNL     1      -1.102   5.105 -30.860  1.00  0.00     0.088 A 
HETATM   18  C   UNL     1      -0.400   5.606 -31.931  1.00  0.00     0.019 A 
HETATM   19  C   UNL     1      -1.294   5.672 -33.029  1.00  0.00     0.036 A 
ENDBRANCH  11  14
ENDBRANCH   7  10
ENDBRANCH   5   6
BRANCH   1  20
HETATM   20  C   UNL     1      -7.569   0.645 -33.890  1.00  0.00    -0.002 A 
HETATM   21  C   UNL     1      -6.754   0.350 -32.790  1.00  0.00     0.050 A 
HETATM   22  C   UNL     1      -5.963  -0.805 -32.767  1.00  0.00     0.069 A 
HETATM   23  C   UNL     1      -5.959  -1.661 -33.868  1.00  0.00     0.037 A 
HETATM   24  C   UNL     1      -6.750  -1.371 -34.980  1.00  0.00     0.004 A 
HETATM   25  C   UNL     1      -7.550  -0.228 -34.990  1.00  0.00     0.014 A 
BRANCH  22  26
HETATM   26  O   UNL     1      -5.229  -0.975 -31.623  1.00  0.00    -0.356 OA
HETATM   27  C   UNL     1      -4.615   0.188 -31.081  1.00  0.00     0.210 C 
ENDBRANCH  22  26
ENDBRANCH   1  20
BRANCH   3  28
HETATM   28  C   UNL     1     -11.383   3.349 -35.075  1.00  0.00     0.189 C 
BRANCH  28  29
HETATM   29  C   UNL     1     -12.538   2.701 -34.352  1.00  0.00    -0.038 A 
HETATM   30  C   UNL     1     -12.963   3.185 -33.105  1.00  0.00     0.009 A 
HETATM   31  C   UNL     1     -14.051   2.601 -32.453  1.00  0.00     0.001 A 
HETATM   32  C   UNL     1     -14.725   1.531 -33.038  1.00  0.00     0.000 A 
HETATM   33  C   UNL     1     -14.313   1.042 -34.275  1.00  0.00     0.001 A 
HETATM   34  C   UNL     1     -13.228   1.624 -34.930  1.00  0.00     0.009 A 
ENDBRANCH  28  29
ENDBRANCH   3  28
TORSDOF 7
ENDMDL
MODEL 9
REMARK VINA RESULT:      -8.3      2.212      3.637
REMARK  7 active torsions:
REMARK  status: ('A' for Active; 'I' for Inactive)
REMARK    1  A    between atoms: O_2  and  C_3 
REMARK    2  A    between atoms: C_5  and  C_6 
REMARK    3  A    between atoms: N_8  and  C_9 
REMARK    4  A    between atoms: C_9  and  C_10 
REMARK    5  A    between atoms: C_17  and  C_18 
REMARK       I    between atoms: C_18  and  N_19 
REMARK    6  A    between atoms: N_19  and  N_20 
REMARK       I    between atoms: N_20  and  C_21 
REMARK    7  A    between atoms: C_21  and  C_22 
ROOT
HETATM    1  C   UNL     1      -4.851   3.414 -32.921  1.00  0.00     0.104 A 
HETATM    2  N   UNL     1      -3.565   3.790 -33.063  1.00  0.00    -0.171 NA
HETATM    3  N   UNL     1      -3.588   4.789 -33.956  1.00  0.00    -0.275 N 
HETATM    4  C   UNL     1      -4.845   5.099 -34.380  1.00  0.00     0.132 A 
HETATM    5  C   UNL     1      -5.709   4.224 -33.738  1.00  0.00     0.082 A 
ENDROOT
BRANCH   5   6
HETATM    6  C   UNL     1      -7.153   4.161 -33.919  1.00  0.00     0.274 C 
HETATM    7  N   UNL     1      -7.689   2.892 -33.802  1.00  0.00    -0.263 N 
HETATM    8  H   UNL     1      -7.105   2.058 -33.781  1.00  0.00     0.190 HD
HETATM    9  O   UNL     1      -7.857   5.135 -34.172  1.00  0.00    -0.266 OA
BRANCH   7  10
HETATM   10  N   UNL     1      -9.028   2.686 -34.172  1.00  0.00    -0.262 N 
HETATM   11  C   UNL     1      -9.943   2.405 -33.178  1.00  0.00     0.286 C 
HETATM   12  O   UNL     1      -9.625   2.422 -31.988  1.00  0.00    -0.264 OA
HETATM   13  H   UNL     1      -9.221   2.577 -35.164  1.00  0.00     0.190 HD
BRANCH  11  14
HETATM   14  C   UNL     1     -11.282   2.090 -33.620  1.00  0.00     0.102 A 
HETATM   15  N   UNL     1     -12.358   2.183 -32.761  1.00  0.00    -0.361 N 
HETATM   16  H   UNL     1     -12.280   2.470 -31.793  1.00  0.00     0.165 HD
HETATM   17  C   UNL     1     -13.516   1.840 -33.407  1.00  0.00     0.088 A 
HETATM   18  C   UNL     1     -13.192   1.515 -34.703  1.00  0.00     0.019 A 
HETATM   19  C   UNL     1     -11.789   1.671 -34.840  1.00  0.00     0.036 A 
ENDBRANCH  11  14
ENDBRANCH   7  10
ENDBRANCH   5   6
BRANCH   1  20
HETATM   20  C   UNL     1      -5.169   2.318 -31.999  1.00  0.00    -0.002 A 
HETATM   21  C   UNL     1      -4.851   0.986 -32.292  1.00  0.00     0.050 A 
HETATM   22  C   UNL     1      -5.175  -0.046 -31.403  1.00  0.00     0.069 A 
HETATM   23  C   UNL     1      -5.855   0.250 -30.221  1.00  0.00     0.037 A 
HETATM   24  C   UNL     1      -6.197   1.569 -29.924  1.00  0.00     0.004 A 
HETATM   25  C   UNL     1      -5.856   2.595 -30.806  1.00  0.00     0.014 A 
BRANCH  22  26
HETATM   26  O   UNL     1      -4.789  -1.296 -31.809  1.00  0.00    -0.356 OA
HETATM   27  C   UNL     1      -3.395  -1.500 -32.003  1.00  0.00     0.210 C 
ENDBRANCH  22  26
ENDBRANCH   1  20
BRANCH   3  28
HETATM   28  C   UNL     1      -2.351   5.466 -34.324  1.00  0.00     0.189 C 
BRANCH  28  29
HETATM   29  C   UNL     1      -1.691   6.133 -33.142  1.00  0.00    -0.038 A 
HETATM   30  C   UNL     1      -2.106   7.403 -32.714  1.00  0.00     0.009 A 
HETATM   31  C   UNL     1      -1.512   8.004 -31.603  1.00  0.00     0.001 A 
HETATM   32  C   UNL     1      -0.500   7.344 -30.907  1.00  0.00     0.000 A 
HETATM   33  C   UNL     1      -0.080   6.082 -31.322  1.00  0.00     0.001 A 
HETATM   34  C   UNL     1      -0.673   5.479 -32.432  1.00  0.00     0.009 A 
ENDBRANCH  28  29
ENDBRANCH   3  28
TORSDOF 7
ENDMDL
MODEL 10
REMARK VINA RESULT:      -8.2      4.312      8.538
REMARK  7 active torsions:
REMARK  status: ('A' for Active; 'I' for Inactive)
REMARK    1  A    between atoms: O_2  and  C_3 
REMARK    2  A    between atoms: C_5  and  C_6 
REMARK    3  A    between atoms: N_8  and  C_9 
REMARK    4  A    between atoms: C_9  and  C_10 
REMARK    5  A    between atoms: C_17  and  C_18 
REMARK       I    between atoms: C_18  and  N_19 
REMARK    6  A    between atoms: N_19  and  N_20 
REMARK       I    between atoms: N_20  and  C_21 
REMARK    7  A    between atoms: C_21  and  C_22 
ROOT
HETATM    1  C   UNL     1      -5.311   3.573 -32.168  1.00  0.00     0.104 A 
HETATM    2  N   UNL     1      -5.763   2.332 -32.433  1.00  0.00    -0.171 NA
HETATM    3  N   UNL     1      -6.611   2.048 -31.434  1.00  0.00    -0.275 N 
HETATM    4  C   UNL     1      -6.751   3.069 -30.543  1.00  0.00     0.132 A 
HETATM    5  C   UNL     1      -5.915   4.090 -30.973  1.00  0.00     0.082 A 
ENDROOT
BRANCH   5   6
HETATM    6  C   UNL     1      -5.709   5.366 -30.303  1.00  0.00     0.274 C 
HETATM    7  N   UNL     1      -4.578   5.419 -29.509  1.00  0.00    -0.263 N 
HETATM    8  H   UNL     1      -4.046   4.585 -29.270  1.00  0.00     0.190 HD
HETATM    9  O   UNL     1      -6.471   6.326 -30.401  1.00  0.00    -0.266 OA
BRANCH   7  10
HETATM   10  N   UNL     1      -4.402   6.518 -28.653  1.00  0.00    -0.262 N 
HETATM   11  C   UNL     1      -4.817   6.396 -27.343  1.00  0.00     0.286 C 
HETATM   12  O   UNL     1      -5.248   5.329 -26.902  1.00  0.00    -0.264 OA
HETATM   13  H   UNL     1      -4.146   7.402 -29.084  1.00  0.00     0.190 HD
BRANCH  11  14
HETATM   14  C   UNL     1      -4.720   7.589 -26.534  1.00  0.00     0.102 A 
HETATM   15  N   UNL     1      -4.087   7.571 -25.307  1.00  0.00    -0.361 N 
HETATM   16  H   UNL     1      -3.662   6.742 -24.907  1.00  0.00     0.165 HD
HETATM   17  C   UNL     1      -4.119   8.813 -24.734  1.00  0.00     0.088 A 
HETATM   18  C   UNL     1      -4.785   9.654 -25.595  1.00  0.00     0.019 A 
HETATM   19  C   UNL     1      -5.164   8.888 -26.726  1.00  0.00     0.036 A 
ENDBRANCH  11  14
ENDBRANCH   7  10
ENDBRANCH   5   6
BRANCH   1  20
HETATM   20  C   UNL     1      -4.344   4.184 -33.088  1.00  0.00    -0.002 A 
HETATM   21  C   UNL     1      -3.018   4.434 -32.713  1.00  0.00     0.050 A 
HETATM   22  C   UNL     1      -2.116   5.028 -33.603  1.00  0.00     0.069 A 
HETATM   23  C   UNL     1      -2.550   5.411 -34.873  1.00  0.00     0.037 A 
HETATM   24  C   UNL     1      -3.873   5.188 -35.254  1.00  0.00     0.004 A 
HETATM   25  C   UNL     1      -4.763   4.578 -34.369  1.00  0.00     0.014 A 
BRANCH  22  26
HETATM   26  O   UNL     1      -0.850   5.197 -33.110  1.00  0.00    -0.356 OA
HETATM   27  C   UNL     1      -0.714   5.213 -31.694  1.00  0.00     0.210 C 
ENDBRANCH  22  26
ENDBRANCH   1  20
BRANCH   3  28
HETATM   28  C   UNL     1      -7.323   0.777 -31.423  1.00  0.00     0.189 C 
BRANCH  28  29
HETATM   29  C   UNL     1      -6.785  -0.189 -32.450  1.00  0.00    -0.038 A 
HETATM   30  C   UNL     1      -7.527  -0.496 -33.601  1.00  0.00     0.009 A 
HETATM   31  C   UNL     1      -7.013  -1.367 -34.563  1.00  0.00     0.001 A 
HETATM   32  C   UNL     1      -5.754  -1.940 -34.387  1.00  0.00     0.000 A 
HETATM   33  C   UNL     1      -5.007  -1.643 -33.249  1.00  0.00     0.001 A 
HETATM   34  C   UNL     1      -5.518  -0.771 -32.287  1.00  0.00     0.009 A 
ENDBRANCH  28  29
ENDBRANCH   3  28
TORSDOF 7
ENDMDL
