MODEL 1
REMARK VINA RESULT:      -9.0      0.000      0.000
REMARK  7 active torsions:
REMARK  status: ('A' for Active; 'I' for Inactive)
REMARK       I    between atoms: C_2  and  N_3 
REMARK    1  A    between atoms: N_3  and  C_4 
REMARK    2  A    between atoms: C_6  and  N_7 
REMARK       I    between atoms: N_7  and  C_8 
REMARK    3  A    between atoms: C_8  and  C_9 
REMARK       I    between atoms: C_9  and  N_10 
REMARK    4  A    between atoms: N_10  and  C_11 
REMARK    5  A    between atoms: C_11  and  C_12 
REMARK    6  A    between atoms: C_12  and  O_13 
REMARK    7  A    between atoms: C_12  and  C_14 
ROOT
HETATM    1  C   UNL     1      -6.480   2.788 -33.693  1.00  0.00     0.309 C 
HETATM    2  N   UNL     1      -7.169   2.725 -32.507  1.00  0.00    -0.350 N 
HETATM    3  O   UNL     1      -6.595   2.023 -34.642  1.00  0.00    -0.262 OA
HETATM    4  H   UNL     1      -6.821   3.313 -31.750  1.00  0.00     0.163 HD
ENDROOT
BRANCH   1   5
HETATM    5  C   UNL     1      -5.440   3.928 -33.749  1.00  0.00     0.313 C 
HETATM    6  N   UNL     1      -4.278   3.598 -33.083  1.00  0.00    -0.319 N 
HETATM    7  H   UNL     1      -4.283   2.664 -32.675  1.00  0.00     0.169 HD
HETATM    8  O   UNL     1      -5.735   4.971 -34.315  1.00  0.00    -0.262 OA
BRANCH   6   9
HETATM    9  C   UNL     1      -3.160   4.416 -32.849  1.00  0.00     0.037 A 
HETATM   10  C   UNL     1      -2.747   4.817 -31.575  1.00  0.00     0.059 A 
HETATM   11  C   UNL     1      -1.581   5.576 -31.393  1.00  0.00     0.036 A 
HETATM   12  C   UNL     1      -0.858   5.979 -32.514  1.00  0.00     0.029 A 
HETATM   13  C   UNL     1      -1.277   5.606 -33.794  1.00  0.00     0.004 A 
HETATM   14  C   UNL     1      -2.419   4.823 -33.959  1.00  0.00     0.029 A 
BRANCH  11  15
HETATM   15  N   UNL     1      -1.253   5.917 -30.068  1.00  0.00    -0.327 N 
HETATM   16  C   UNL     1      -0.150   5.694 -29.301  1.00  0.00     0.218 C 
HETATM   17  C   UNL     1       0.922   4.737 -29.743  1.00  0.00     0.117 C 
HETATM   18  O   UNL     1      -0.072   6.252 -28.203  1.00  0.00    -0.274 OA
HETATM   19  H   UNL     1      -1.967   6.412 -29.545  1.00  0.00     0.169 HD
ENDBRANCH  11  15
ENDBRANCH   6   9
ENDBRANCH   1   5
BRANCH   2  20
HETATM   20  C   UNL     1      -7.995   1.585 -32.150  1.00  0.00     0.159 C 
BRANCH  20  21
HETATM   21  C   UNL     1      -7.305   0.693 -31.105  1.00  0.00     0.171 C 
BRANCH  21  22
HETATM   22  O   UNL     1      -6.934   1.510 -29.983  1.00  0.00    -0.389 OA
HETATM   23  H   UNL     1      -7.284   2.397 -30.177  1.00  0.00     0.210 HD
ENDBRANCH  21  22
BRANCH  21  24
HETATM   24  C   UNL     1      -6.118  -0.025 -31.670  1.00  0.00     0.000 A 
HETATM   25  C   UNL     1      -6.123  -0.920 -32.789  1.00  0.00     0.001 A 
HETATM   26  C   UNL     1      -4.811  -1.367 -32.983  1.00  0.00     0.044 A 
HETATM   27  C   UNL     1      -7.135  -1.387 -33.655  1.00  0.00     0.014 A 
HETATM   28  C   UNL     1      -4.482  -2.270 -34.007  1.00  0.00     0.030 A 
HETATM   29  N   UNL     1      -4.036  -0.757 -32.020  1.00  0.00    -0.360 N 
HETATM   30  C   UNL     1      -5.504  -2.719 -34.849  1.00  0.00     0.002 A 
HETATM   31  C   UNL     1      -6.813  -2.283 -34.679  1.00  0.00     0.001 A 
HETATM   32  C   UNL     1      -2.609  -0.911 -31.838  1.00  0.00     0.155 C 
HETATM   33  C   UNL     1      -4.811   0.049 -31.228  1.00  0.00     0.101 A 
ENDBRANCH  21  24
ENDBRANCH  20  21
ENDBRANCH   2  20
TORSDOF 7
ENDMDL
MODEL 2
REMARK VINA RESULT:      -8.9      1.332      1.507
REMARK  7 active torsions:
REMARK  status: ('A' for Active; 'I' for Inactive)
REMARK       I    between atoms: C_2  and  N_3 
REMARK    1  A    between atoms: N_3  and  C_4 
REMARK    2  A    between atoms: C_6  and  N_7 
REMARK       I    between atoms: N_7  and  C_8 
REMARK    3  A    between atoms: C_8  and  C_9 
REMARK       I    between atoms: C_9  and  N_10 
REMARK    4  A    between atoms: N_10  and  C_11 
REMARK    5  A    between atoms: C_11  and  C_12 
REMARK    6  A    between atoms: C_12  and  O_13 
REMARK    7  A    between atoms: C_12  and  C_14 
ROOT
HETATM    1  C   UNL     1      -6.103   4.147 -34.073  1.00  0.00     0.309 C 
HETATM    2  N   UNL     1      -6.019   2.797 -33.836  1.00  0.00    -0.350 N 
HETATM    3  O   UNL     1      -7.131   4.798 -34.215  1.00  0.00    -0.262 OA
HETATM    4  H   UNL     1      -5.095   2.378 -33.936  1.00  0.00     0.163 HD
ENDROOT
BRANCH   1   5
HETATM    5  C   UNL     1      -4.731   4.842 -34.211  1.00  0.00     0.313 C 
HETATM    6  N   UNL     1      -4.101   4.982 -32.992  1.00  0.00    -0.319 N 
HETATM    7  H   UNL     1      -4.624   4.600 -32.206  1.00  0.00     0.169 HD
HETATM    8  O   UNL     1      -4.365   5.216 -35.316  1.00  0.00    -0.262 OA
BRANCH   6   9
HETATM    9  C   UNL     1      -2.891   5.643 -32.721  1.00  0.00     0.037 A 
HETATM   10  C   UNL     1      -1.870   5.100 -31.936  1.00  0.00     0.059 A 
HETATM   11  C   UNL     1      -0.653   5.774 -31.756  1.00  0.00     0.036 A 
HETATM   12  C   UNL     1      -0.489   7.032 -32.331  1.00  0.00     0.029 A 
HETATM   13  C   UNL     1      -1.513   7.596 -33.097  1.00  0.00     0.004 A 
HETATM   14  C   UNL     1      -2.706   6.902 -33.295  1.00  0.00     0.029 A 
BRANCH  11  15
HETATM   15  N   UNL     1       0.308   5.132 -30.953  1.00  0.00    -0.327 N 
HETATM   16  C   UNL     1       0.587   5.187 -29.621  1.00  0.00     0.218 C 
HETATM   17  C   UNL     1      -0.023   6.244 -28.744  1.00  0.00     0.117 C 
HETATM   18  O   UNL     1       1.399   4.383 -29.154  1.00  0.00    -0.274 OA
HETATM   19  H   UNL     1       0.949   4.511 -31.435  1.00  0.00     0.169 HD
ENDBRANCH  11  15
ENDBRANCH   6   9
ENDBRANCH   1   5
BRANCH   2  20
HETATM   20  C   UNL     1      -7.172   1.920 -33.933  1.00  0.00     0.159 C 
BRANCH  20  21
HETATM   21  C   UNL     1      -7.213   0.910 -32.775  1.00  0.00     0.171 C 
BRANCH  21  22
HETATM   22  O   UNL     1      -7.272   1.637 -31.537  1.00  0.00    -0.389 OA
HETATM   23  H   UNL     1      -6.996   1.007 -30.849  1.00  0.00     0.210 HD
ENDBRANCH  21  22
BRANCH  21  24
HETATM   24  C   UNL     1      -6.042  -0.025 -32.800  1.00  0.00     0.000 A 
HETATM   25  C   UNL     1      -5.953  -1.251 -33.534  1.00  0.00     0.001 A 
HETATM   26  C   UNL     1      -4.695  -1.809 -33.279  1.00  0.00     0.044 A 
HETATM   27  C   UNL     1      -6.837  -1.933 -34.397  1.00  0.00     0.014 A 
HETATM   28  C   UNL     1      -4.298  -3.029 -33.852  1.00  0.00     0.030 A 
HETATM   29  N   UNL     1      -4.041  -0.946 -32.427  1.00  0.00    -0.360 N 
HETATM   30  C   UNL     1      -5.195  -3.685 -34.701  1.00  0.00     0.002 A 
HETATM   31  C   UNL     1      -6.447  -3.146 -34.973  1.00  0.00     0.001 A 
HETATM   32  C   UNL     1      -2.705  -1.106 -31.898  1.00  0.00     0.155 C 
HETATM   33  C   UNL     1      -4.842   0.126 -32.133  1.00  0.00     0.101 A 
ENDBRANCH  21  24
ENDBRANCH  20  21
ENDBRANCH   2  20
TORSDOF 7
ENDMDL
MODEL 3
REMARK VINA RESULT:      -8.6      1.671      1.965
REMARK  7 active torsions:
REMARK  status: ('A' for Active; 'I' for Inactive)
REMARK       I    between atoms: C_2  and  N_3 
REMARK    1  A    between atoms: N_3  and  C_4 
REMARK    2  A    between atoms: C_6  and  N_7 
REMARK       I    between atoms: N_7  and  C_8 
REMARK    3  A    between atoms: C_8  and  C_9 
REMARK       I    between atoms: C_9  and  N_10 
REMARK    4  A    between atoms: N_10  and  C_11 
REMARK    5  A    between atoms: C_11  and  C_12 
REMARK    6  A    between atoms: C_12  and  O_13 
REMARK    7  A    between atoms: C_12  and  C_14 
ROOT
HETATM    1  C   UNL     1      -7.798   4.850 -33.502  1.00  0.00     0.309 C 
HETATM    2  N   UNL     1      -8.115   3.896 -32.567  1.00  0.00    -0.350 N 
HETATM    3  O   UNL     1      -8.487   5.191 -34.455  1.00  0.00    -0.262 OA
HETATM    4  H   UNL     1      -7.358   3.593 -31.955  1.00  0.00     0.163 HD
ENDROOT
BRANCH   1   5
HETATM    5  C   UNL     1      -6.403   5.479 -33.301  1.00  0.00     0.313 C 
HETATM    6  N   UNL     1      -5.403   4.696 -33.839  1.00  0.00    -0.319 N 
HETATM    7  H   UNL     1      -5.736   3.844 -34.288  1.00  0.00     0.169 HD
HETATM    8  O   UNL     1      -6.312   6.534 -32.689  1.00  0.00    -0.262 OA
BRANCH   6   9
HETATM    9  C   UNL     1      -4.015   4.903 -33.764  1.00  0.00     0.037 A 
HETATM   10  C   UNL     1      -3.279   4.801 -32.580  1.00  0.00     0.059 A 
HETATM   11  C   UNL     1      -1.884   4.949 -32.575  1.00  0.00     0.036 A 
HETATM   12  C   UNL     1      -1.235   5.257 -33.769  1.00  0.00     0.029 A 
HETATM   13  C   UNL     1      -1.965   5.388 -34.954  1.00  0.00     0.004 A 
HETATM   14  C   UNL     1      -3.347   5.206 -34.952  1.00  0.00     0.029 A 
BRANCH  11  15
HETATM   15  N   UNL     1      -1.243   4.817 -31.330  1.00  0.00    -0.327 N 
HETATM   16  C   UNL     1      -0.382   5.618 -30.643  1.00  0.00     0.218 C 
HETATM   17  C   UNL     1       0.264   6.806 -31.300  1.00  0.00     0.117 C 
HETATM   18  O   UNL     1      -0.095   5.318 -29.481  1.00  0.00    -0.274 OA
HETATM   19  H   UNL     1      -1.421   3.956 -30.825  1.00  0.00     0.169 HD
ENDBRANCH  11  15
ENDBRANCH   6   9
ENDBRANCH   1   5
BRANCH   2  20
HETATM   20  C   UNL     1      -9.253   3.006 -32.723  1.00  0.00     0.159 C 
BRANCH  20  21
HETATM   21  C   UNL     1      -9.177   1.816 -31.752  1.00  0.00     0.171 C 
BRANCH  21  22
HETATM   22  O   UNL     1      -9.472   2.288 -30.428  1.00  0.00    -0.389 OA
HETATM   23  H   UNL     1     -10.380   2.637 -30.470  1.00  0.00     0.210 HD
ENDBRANCH  21  22
BRANCH  21  24
HETATM   24  C   UNL     1      -7.844   1.133 -31.800  1.00  0.00     0.000 A 
HETATM   25  C   UNL     1      -7.382   0.248 -32.827  1.00  0.00     0.001 A 
HETATM   26  C   UNL     1      -6.089  -0.164 -32.485  1.00  0.00     0.044 A 
HETATM   27  C   UNL     1      -7.956  -0.238 -34.021  1.00  0.00     0.014 A 
HETATM   28  C   UNL     1      -5.357  -1.050 -33.293  1.00  0.00     0.030 A 
HETATM   29  N   UNL     1      -5.774   0.459 -31.296  1.00  0.00    -0.360 N 
HETATM   30  C   UNL     1      -5.951  -1.518 -34.469  1.00  0.00     0.002 A 
HETATM   31  C   UNL     1      -7.232  -1.117 -34.832  1.00  0.00     0.001 A 
HETATM   32  C   UNL     1      -4.532   0.340 -30.564  1.00  0.00     0.155 C 
HETATM   33  C   UNL     1      -6.821   1.238 -30.877  1.00  0.00     0.101 A 
ENDBRANCH  21  24
ENDBRANCH  20  21
ENDBRANCH   2  20
TORSDOF 7
ENDMDL
MODEL 4
REMARK VINA RESULT:      -8.2      1.571      2.608
REMARK  7 active torsions:
REMARK  status: ('A' for Active; 'I' for Inactive)
REMARK       I    between atoms: C_2  and  N_3 
REMARK    1  A    between atoms: N_3  and  C_4 
REMARK    2  A    between atoms: C_6  and  N_7 
REMARK       I    between atoms: N_7  and  C_8 
REMARK    3  A    between atoms: C_8  and  C_9 
REMARK       I    between atoms: C_9  and  N_10 
REMARK    4  A    between atoms: N_10  and  C_11 
REMARK    5  A    between atoms: C_11  and  C_12 
REMARK    6  A    between atoms: C_12  and  O_13 
REMARK    7  A    between atoms: C_12  and  C_14 
ROOT
HETATM    1  C   UNL     1      -6.952   3.439 -33.301  1.00  0.00     0.309 C 
HETATM    2  N   UNL     1      -6.607   2.146 -32.993  1.00  0.00    -0.350 N 
HETATM    3  O   UNL     1      -8.027   3.817 -33.748  1.00  0.00    -0.262 OA
HETATM    4  H   UNL     1      -5.618   1.972 -32.816  1.00  0.00     0.163 HD
ENDROOT
BRANCH   1   5
HETATM    5  C   UNL     1      -5.811   4.456 -33.084  1.00  0.00     0.313 C 
HETATM    6  N   UNL     1      -4.569   3.876 -33.239  1.00  0.00    -0.319 N 
HETATM    7  H   UNL     1      -4.598   2.887 -33.480  1.00  0.00     0.169 HD
HETATM    8  O   UNL     1      -6.094   5.606 -32.779  1.00  0.00    -0.262 OA
BRANCH   6   9
HETATM    9  C   UNL     1      -3.313   4.469 -33.028  1.00  0.00     0.037 A 
HETATM   10  C   UNL     1      -2.657   4.476 -31.793  1.00  0.00     0.059 A 
HETATM   11  C   UNL     1      -1.371   5.020 -31.655  1.00  0.00     0.036 A 
HETATM   12  C   UNL     1      -0.767   5.611 -32.763  1.00  0.00     0.029 A 
HETATM   13  C   UNL     1      -1.425   5.632 -33.996  1.00  0.00     0.004 A 
HETATM   14  C   UNL     1      -2.689   5.059 -34.128  1.00  0.00     0.029 A 
BRANCH  11  15
HETATM   15  N   UNL     1      -0.801   4.966 -30.370  1.00  0.00    -0.327 N 
HETATM   16  C   UNL     1      -0.099   5.868 -29.630  1.00  0.00     0.218 C 
HETATM   17  C   UNL     1       0.428   7.134 -30.247  1.00  0.00     0.117 C 
HETATM   18  O   UNL     1       0.148   5.601 -28.451  1.00  0.00    -0.274 OA
HETATM   19  H   UNL     1      -0.898   4.085 -29.875  1.00  0.00     0.169 HD
ENDBRANCH  11  15
ENDBRANCH   6   9
ENDBRANCH   1   5
BRANCH   2  20
HETATM   20  C   UNL     1      -7.435   1.013 -33.367  1.00  0.00     0.159 C 
BRANCH  20  21
HETATM   21  C   UNL     1      -6.941   0.356 -34.667  1.00  0.00     0.171 C 
BRANCH  21  22
HETATM   22  O   UNL     1      -8.067   0.165 -35.537  1.00  0.00    -0.389 OA
HETATM   23  H   UNL     1      -8.409  -0.723 -35.334  1.00  0.00     0.210 HD
ENDBRANCH  21  22
BRANCH  21  24
HETATM   24  C   UNL     1      -6.228  -0.936 -34.410  1.00  0.00     0.000 A 
HETATM   25  C   UNL     1      -5.113  -1.128 -33.531  1.00  0.00     0.001 A 
HETATM   26  C   UNL     1      -4.756  -2.481 -33.586  1.00  0.00     0.044 A 
HETATM   27  C   UNL     1      -4.378  -0.265 -32.692  1.00  0.00     0.014 A 
HETATM   28  C   UNL     1      -3.684  -2.993 -32.836  1.00  0.00     0.030 A 
HETATM   29  N   UNL     1      -5.630  -3.089 -34.461  1.00  0.00    -0.360 N 
HETATM   30  C   UNL     1      -2.971  -2.114 -32.014  1.00  0.00     0.002 A 
HETATM   31  C   UNL     1      -3.313  -0.769 -31.940  1.00  0.00     0.001 A 
HETATM   32  C   UNL     1      -5.651  -4.488 -34.825  1.00  0.00     0.155 C 
HETATM   33  C   UNL     1      -6.516  -2.170 -34.960  1.00  0.00     0.101 A 
ENDBRANCH  21  24
ENDBRANCH  20  21
ENDBRANCH   2  20
TORSDOF 7
ENDMDL
MODEL 5
REMARK VINA RESULT:      -8.2      2.499      9.261
REMARK  7 active torsions:
REMARK  status: ('A' for Active; 'I' for Inactive)
REMARK       I    between atoms: C_2  and  N_3 
REMARK    1  A    between atoms: N_3  and  C_4 
REMARK    2  A    between atoms: C_6  and  N_7 
REMARK       I    between atoms: N_7  and  C_8 
REMARK    3  A    between atoms: C_8  and  C_9 
REMARK       I    between atoms: C_9  and  N_10 
REMARK    4  A    between atoms: N_10  and  C_11 
REMARK    5  A    between atoms: C_11  and  C_12 
REMARK    6  A    between atoms: C_12  and  O_13 
REMARK    7  A    between atoms: C_12  and  C_14 
ROOT
HETATM    1  C   UNL     1      -2.598   4.942 -33.204  1.00  0.00     0.309 C 
HETATM    2  N   UNL     1      -1.573   4.708 -32.320  1.00  0.00    -0.350 N 
HETATM    3  O   UNL     1      -2.637   5.821 -34.056  1.00  0.00    -0.262 OA
HETATM    4  H   UNL     1      -1.776   4.068 -31.553  1.00  0.00     0.163 HD
ENDROOT
BRANCH   1   5
HETATM    5  C   UNL     1      -3.807   4.000 -33.020  1.00  0.00     0.313 C 
HETATM    6  N   UNL     1      -3.475   2.873 -32.298  1.00  0.00    -0.319 N 
HETATM    7  H   UNL     1      -2.504   2.843 -31.993  1.00  0.00     0.169 HD
HETATM    8  O   UNL     1      -4.877   4.302 -33.530  1.00  0.00    -0.262 OA
BRANCH   6   9
HETATM    9  C   UNL     1      -4.289   1.762 -32.016  1.00  0.00     0.037 A 
HETATM   10  C   UNL     1      -4.335   0.614 -32.812  1.00  0.00     0.059 A 
HETATM   11  C   UNL     1      -5.113  -0.496 -32.445  1.00  0.00     0.036 A 
HETATM   12  C   UNL     1      -5.893  -0.419 -31.294  1.00  0.00     0.029 A 
HETATM   13  C   UNL     1      -5.875   0.734 -30.505  1.00  0.00     0.004 A 
HETATM   14  C   UNL     1      -5.072   1.817 -30.862  1.00  0.00     0.029 A 
BRANCH  11  15
HETATM   15  N   UNL     1      -5.078  -1.601 -33.314  1.00  0.00    -0.327 N 
HETATM   16  C   UNL     1      -5.787  -1.923 -34.432  1.00  0.00     0.218 C 
HETATM   17  C   UNL     1      -7.018  -1.152 -34.818  1.00  0.00     0.117 C 
HETATM   18  O   UNL     1      -5.432  -2.901 -35.095  1.00  0.00    -0.274 OA
HETATM   19  H   UNL     1      -4.415  -2.333 -33.080  1.00  0.00     0.169 HD
ENDBRANCH  11  15
ENDBRANCH   6   9
ENDBRANCH   1   5
BRANCH   2  20
HETATM   20  C   UNL     1      -0.469   5.635 -32.152  1.00  0.00     0.159 C 
BRANCH  20  21
HETATM   21  C   UNL     1       0.039   5.652 -30.700  1.00  0.00     0.171 C 
BRANCH  21  22
HETATM   22  O   UNL     1      -0.425   4.463 -30.042  1.00  0.00    -0.389 OA
HETATM   23  H   UNL     1       0.095   3.733 -30.421  1.00  0.00     0.210 HD
ENDBRANCH  21  22
BRANCH  21  24
HETATM   24  C   UNL     1      -0.395   6.884 -29.966  1.00  0.00     0.000 A 
HETATM   25  C   UNL     1       0.117   7.346 -28.710  1.00  0.00     0.001 A 
HETATM   26  C   UNL     1      -0.558   8.528 -28.384  1.00  0.00     0.044 A 
HETATM   27  C   UNL     1       1.099   6.858 -27.823  1.00  0.00     0.014 A 
HETATM   28  C   UNL     1      -0.288   9.230 -27.198  1.00  0.00     0.030 A 
HETATM   29  N   UNL     1      -1.442   8.779 -29.411  1.00  0.00    -0.360 N 
HETATM   30  C   UNL     1       0.689   8.723 -26.335  1.00  0.00     0.002 A 
HETATM   31  C   UNL     1       1.377   7.554 -26.643  1.00  0.00     0.001 A 
HETATM   32  C   UNL     1      -2.348   9.902 -29.513  1.00  0.00     0.155 C 
HETATM   33  C   UNL     1      -1.352   7.798 -30.364  1.00  0.00     0.101 A 
ENDBRANCH  21  24
ENDBRANCH  20  21
ENDBRANCH   2  20
TORSDOF 7
ENDMDL
MODEL 6
REMARK VINA RESULT:      -8.1      2.686      8.951
REMARK  7 active torsions:
REMARK  status: ('A' for Active; 'I' for Inactive)
REMARK       I    between atoms: C_2  and  N_3 
REMARK    1  A    between atoms: N_3  and  C_4 
REMARK    2  A    between atoms: C_6  and  N_7 
REMARK       I    between atoms: N_7  and  C_8 
REMARK    3  A    between atoms: C_8  and  C_9 
REMARK       I    between atoms: C_9  and  N_10 
REMARK    4  A    between atoms: N_10  and  C_11 
REMARK    5  A    between atoms: C_11  and  C_12 
REMARK    6  A    between atoms: C_12  and  O_13 
REMARK    7  A    between atoms: C_12  and  C_14 
ROOT
HETATM    1  C   UNL     1      -3.055   3.254 -32.104  1.00  0.00     0.309 C 
HETATM    2  N   UNL     1      -3.185   3.949 -33.281  1.00  0.00    -0.350 N 
HETATM    3  O   UNL     1      -2.242   3.473 -31.215  1.00  0.00    -0.262 OA
HETATM    4  H   UNL     1      -3.775   3.523 -33.995  1.00  0.00     0.163 HD
ENDROOT
BRANCH   1   5
HETATM    5  C   UNL     1      -4.028   2.061 -31.975  1.00  0.00     0.313 C 
HETATM    6  N   UNL     1      -4.212   1.416 -33.180  1.00  0.00    -0.319 N 
HETATM    7  H   UNL     1      -3.677   1.812 -33.951  1.00  0.00     0.169 HD
HETATM    8  O   UNL     1      -4.543   1.833 -30.890  1.00  0.00    -0.262 OA
BRANCH   6   9
HETATM    9  C   UNL     1      -5.090   0.356 -33.460  1.00  0.00     0.037 A 
HETATM   10  C   UNL     1      -4.681  -0.974 -33.597  1.00  0.00     0.059 A 
HETATM   11  C   UNL     1      -5.610  -2.005 -33.807  1.00  0.00     0.036 A 
HETATM   12  C   UNL     1      -6.958  -1.679 -33.935  1.00  0.00     0.029 A 
HETATM   13  C   UNL     1      -7.376  -0.349 -33.826  1.00  0.00     0.004 A 
HETATM   14  C   UNL     1      -6.446   0.662 -33.584  1.00  0.00     0.029 A 
BRANCH  11  15
HETATM   15  N   UNL     1      -5.089  -3.306 -33.921  1.00  0.00    -0.327 N 
HETATM   16  C   UNL     1      -5.465  -4.393 -34.652  1.00  0.00     0.218 C 
HETATM   17  C   UNL     1      -6.789  -4.430 -35.361  1.00  0.00     0.117 C 
HETATM   18  O   UNL     1      -4.718  -5.375 -34.675  1.00  0.00    -0.274 OA
HETATM   19  H   UNL     1      -4.283  -3.517 -33.342  1.00  0.00     0.169 HD
ENDBRANCH  11  15
ENDBRANCH   6   9
ENDBRANCH   1   5
BRANCH   2  20
HETATM   20  C   UNL     1      -2.205   4.931 -33.712  1.00  0.00     0.159 C 
BRANCH  20  21
HETATM   21  C   UNL     1      -2.761   6.361 -33.622  1.00  0.00     0.171 C 
BRANCH  21  22
HETATM   22  O   UNL     1      -2.020   7.196 -34.526  1.00  0.00    -0.389 OA
HETATM   23  H   UNL     1      -1.350   6.616 -34.930  1.00  0.00     0.210 HD
ENDBRANCH  21  22
BRANCH  21  24
HETATM   24  C   UNL     1      -2.713   6.898 -32.225  1.00  0.00     0.000 A 
HETATM   25  C   UNL     1      -1.552   6.990 -31.391  1.00  0.00     0.001 A 
HETATM   26  C   UNL     1      -1.946   7.548 -30.170  1.00  0.00     0.044 A 
HETATM   27  C   UNL     1      -0.196   6.646 -31.574  1.00  0.00     0.014 A 
HETATM   28  C   UNL     1      -1.031   7.764 -29.126  1.00  0.00     0.030 A 
HETATM   29  N   UNL     1      -3.299   7.795 -30.263  1.00  0.00    -0.360 N 
HETATM   30  C   UNL     1       0.306   7.412 -29.333  1.00  0.00     0.002 A 
HETATM   31  C   UNL     1       0.721   6.862 -30.541  1.00  0.00     0.001 A 
HETATM   32  C   UNL     1      -4.141   8.379 -29.242  1.00  0.00     0.155 C 
HETATM   33  C   UNL     1      -3.768   7.407 -31.491  1.00  0.00     0.101 A 
ENDBRANCH  21  24
ENDBRANCH  20  21
ENDBRANCH   2  20
TORSDOF 7
ENDMDL
MODEL 7
REMARK VINA RESULT:      -8.0      1.799      3.008
REMARK  7 active torsions:
REMARK  status: ('A' for Active; 'I' for Inactive)
REMARK       I    between atoms: C_2  and  N_3 
REMARK    1  A    between atoms: N_3  and  C_4 
REMARK    2  A    between atoms: C_6  and  N_7 
REMARK       I    between atoms: N_7  and  C_8 
REMARK    3  A    between atoms: C_8  and  C_9 
REMARK       I    between atoms: C_9  and  N_10 
REMARK    4  A    between atoms: N_10  and  C_11 
REMARK    5  A    between atoms: C_11  and  C_12 
REMARK    6  A    between atoms: C_12  and  O_13 
REMARK    7  A    between atoms: C_12  and  C_14 
ROOT
HETATM    1  C   UNL     1      -5.208   2.480 -31.598  1.00  0.00     0.309 C 
HETATM    2  N   UNL     1      -5.612   2.118 -32.859  1.00  0.00    -0.350 N 
HETATM    3  O   UNL     1      -5.397   1.851 -30.565  1.00  0.00    -0.262 OA
HETATM    4  H   UNL     1      -5.549   2.838 -33.578  1.00  0.00     0.163 HD
ENDROOT
BRANCH   1   5
HETATM    5  C   UNL     1      -4.493   3.848 -31.541  1.00  0.00     0.313 C 
HETATM    6  N   UNL     1      -3.207   3.777 -32.034  1.00  0.00    -0.319 N 
HETATM    7  H   UNL     1      -2.938   2.852 -32.365  1.00  0.00     0.169 HD
HETATM    8  O   UNL     1      -5.084   4.805 -31.060  1.00  0.00    -0.262 OA
BRANCH   6   9
HETATM    9  C   UNL     1      -2.238   4.794 -32.054  1.00  0.00     0.037 A 
HETATM   10  C   UNL     1      -1.405   5.091 -30.972  1.00  0.00     0.059 A 
HETATM   11  C   UNL     1      -0.404   6.070 -31.070  1.00  0.00     0.036 A 
HETATM   12  C   UNL     1      -0.284   6.792 -32.256  1.00  0.00     0.029 A 
HETATM   13  C   UNL     1      -1.129   6.521 -33.335  1.00  0.00     0.004 A 
HETATM   14  C   UNL     1      -2.097   5.523 -33.236  1.00  0.00     0.029 A 
BRANCH  11  15
HETATM   15  N   UNL     1       0.382   6.281 -29.924  1.00  0.00    -0.327 N 
HETATM   16  C   UNL     1       0.254   7.115 -28.854  1.00  0.00     0.218 C 
HETATM   17  C   UNL     1      -0.756   8.228 -28.855  1.00  0.00     0.117 C 
HETATM   18  O   UNL     1       1.025   6.975 -27.900  1.00  0.00    -0.274 OA
HETATM   19  H   UNL     1       1.233   5.732 -29.858  1.00  0.00     0.169 HD
ENDBRANCH  11  15
ENDBRANCH   6   9
ENDBRANCH   1   5
BRANCH   2  20
HETATM   20  C   UNL     1      -6.521   1.009 -33.093  1.00  0.00     0.159 C 
BRANCH  20  21
HETATM   21  C   UNL     1      -6.275   0.357 -34.463  1.00  0.00     0.171 C 
BRANCH  21  22
HETATM   22  O   UNL     1      -7.476   0.469 -35.243  1.00  0.00    -0.389 OA
HETATM   23  H   UNL     1      -7.577  -0.388 -35.694  1.00  0.00     0.210 HD
ENDBRANCH  21  22
BRANCH  21  24
HETATM   24  C   UNL     1      -5.840  -1.071 -34.338  1.00  0.00     0.000 A 
HETATM   25  C   UNL     1      -4.806  -1.570 -33.480  1.00  0.00     0.001 A 
HETATM   26  C   UNL     1      -4.725  -2.954 -33.672  1.00  0.00     0.044 A 
HETATM   27  C   UNL     1      -3.933  -0.960 -32.555  1.00  0.00     0.014 A 
HETATM   28  C   UNL     1      -3.795  -3.743 -32.975  1.00  0.00     0.030 A 
HETATM   29  N   UNL     1      -5.682  -3.284 -34.607  1.00  0.00    -0.360 N 
HETATM   30  C   UNL     1      -2.940  -3.112 -32.066  1.00  0.00     0.002 A 
HETATM   31  C   UNL     1      -3.008  -1.740 -31.855  1.00  0.00     0.001 A 
HETATM   32  C   UNL     1      -5.973  -4.608 -35.112  1.00  0.00     0.155 C 
HETATM   33  C   UNL     1      -6.355  -2.161 -35.012  1.00  0.00     0.101 A 
ENDBRANCH  21  24
ENDBRANCH  20  21
ENDBRANCH   2  20
TORSDOF 7
ENDMDL
MODEL 8
REMARK VINA RESULT:      -7.9      1.735      2.399
REMARK  7 active torsions:
REMARK  status: ('A' for Active; 'I' for Inactive)
REMARK       I    between atoms: C_2  and  N_3 
REMARK    1  A    between atoms: N_3  and  C_4 
REMARK    2  A    between atoms: C_6  and  N_7 
REMARK       I    between atoms: N_7  and  C_8 
REMARK    3  A    between atoms: C_8  and  C_9 
REMARK       I    between atoms: C_9  and  N_10 
REMARK    4  A    between atoms: N_10  and  C_11 
REMARK    5  A    between atoms: C_11  and  C_12 
REMARK    6  A    between atoms: C_12  and  O_13 
REMARK    7  A    between atoms: C_12  and  C_14 
ROOT
HETATM    1  C   UNL     1      -5.179   2.269 -31.355  1.00  0.00     0.309 C 
HETATM    2  N   UNL     1      -5.822   1.954 -32.527  1.00  0.00    -0.350 N 
HETATM    3  O   UNL     1      -5.145   1.587 -30.339  1.00  0.00    -0.262 OA
HETATM    4  H   UNL     1      -5.918   2.708 -33.207  1.00  0.00     0.163 HD
ENDROOT
BRANCH   1   5
HETATM    5  C   UNL     1      -4.495   3.653 -31.372  1.00  0.00     0.313 C 
HETATM    6  N   UNL     1      -3.501   3.723 -32.326  1.00  0.00    -0.319 N 
HETATM    7  H   UNL     1      -3.384   2.869 -32.870  1.00  0.00     0.169 HD
HETATM    8  O   UNL     1      -4.849   4.498 -30.563  1.00  0.00    -0.262 OA
BRANCH   6   9
HETATM    9  C   UNL     1      -2.612   4.785 -32.564  1.00  0.00     0.037 A 
HETATM   10  C   UNL     1      -1.680   5.239 -31.627  1.00  0.00     0.059 A 
HETATM   11  C   UNL     1      -0.767   6.257 -31.942  1.00  0.00     0.036 A 
HETATM   12  C   UNL     1      -0.836   6.858 -33.197  1.00  0.00     0.029 A 
HETATM   13  C   UNL     1      -1.781   6.429 -34.133  1.00  0.00     0.004 A 
HETATM   14  C   UNL     1      -2.661   5.393 -33.819  1.00  0.00     0.029 A 
BRANCH  11  15
HETATM   15  N   UNL     1       0.132   6.631 -30.927  1.00  0.00    -0.327 N 
HETATM   16  C   UNL     1      -0.009   7.371 -29.792  1.00  0.00     0.218 C 
HETATM   17  C   UNL     1      -1.247   8.185 -29.546  1.00  0.00     0.117 C 
HETATM   18  O   UNL     1       0.929   7.407 -28.990  1.00  0.00    -0.274 OA
HETATM   19  H   UNL     1       1.090   6.318 -31.042  1.00  0.00     0.169 HD
ENDBRANCH  11  15
ENDBRANCH   6   9
ENDBRANCH   1   5
BRANCH   2  20
HETATM   20  C   UNL     1      -6.737   0.831 -32.632  1.00  0.00     0.159 C 
BRANCH  20  21
HETATM   21  C   UNL     1      -6.432  -0.034 -33.866  1.00  0.00     0.171 C 
BRANCH  21  22
HETATM   22  O   UNL     1      -7.674  -0.517 -34.402  1.00  0.00    -0.389 OA
HETATM   23  H   UNL     1      -8.261  -0.638 -33.635  1.00  0.00     0.210 HD
ENDBRANCH  21  22
BRANCH  21  24
HETATM   24  C   UNL     1      -5.502  -1.164 -33.547  1.00  0.00     0.000 A 
HETATM   25  C   UNL     1      -5.529  -2.473 -34.127  1.00  0.00     0.001 A 
HETATM   26  C   UNL     1      -4.491  -3.216 -33.551  1.00  0.00     0.044 A 
HETATM   27  C   UNL     1      -6.349  -3.090 -35.095  1.00  0.00     0.014 A 
HETATM   28  C   UNL     1      -4.255  -4.554 -33.907  1.00  0.00     0.030 A 
HETATM   29  N   UNL     1      -3.851  -2.382 -32.660  1.00  0.00    -0.360 N 
HETATM   30  C   UNL     1      -5.084  -5.141 -34.868  1.00  0.00     0.002 A 
HETATM   31  C   UNL     1      -6.117  -4.420 -35.457  1.00  0.00     0.001 A 
HETATM   32  C   UNL     1      -2.708  -2.714 -31.838  1.00  0.00     0.155 C 
HETATM   33  C   UNL     1      -4.451  -1.150 -32.650  1.00  0.00     0.101 A 
ENDBRANCH  21  24
ENDBRANCH  20  21
ENDBRANCH   2  20
TORSDOF 7
ENDMDL
MODEL 9
REMARK VINA RESULT:      -7.8      2.300      3.249
REMARK  7 active torsions:
REMARK  status: ('A' for Active; 'I' for Inactive)
REMARK       I    between atoms: C_2  and  N_3 
REMARK    1  A    between atoms: N_3  and  C_4 
REMARK    2  A    between atoms: C_6  and  N_7 
REMARK       I    between atoms: N_7  and  C_8 
REMARK    3  A    between atoms: C_8  and  C_9 
REMARK       I    between atoms: C_9  and  N_10 
REMARK    4  A    between atoms: N_10  and  C_11 
REMARK    5  A    between atoms: C_11  and  C_12 
REMARK    6  A    between atoms: C_12  and  O_13 
REMARK    7  A    between atoms: C_12  and  C_14 
ROOT
HETATM    1  C   UNL     1      -5.354   4.161 -30.538  1.00  0.00     0.309 C 
HETATM    2  N   UNL     1      -5.162   3.156 -29.622  1.00  0.00    -0.350 N 
HETATM    3  O   UNL     1      -6.189   4.179 -31.433  1.00  0.00    -0.262 OA
HETATM    4  H   UNL     1      -4.307   3.205 -29.070  1.00  0.00     0.163 HD
ENDROOT
BRANCH   1   5
HETATM    5  C   UNL     1      -4.353   5.328 -30.401  1.00  0.00     0.313 C 
HETATM    6  N   UNL     1      -3.068   4.945 -30.725  1.00  0.00    -0.319 N 
HETATM    7  H   UNL     1      -2.983   3.971 -31.012  1.00  0.00     0.169 HD
HETATM    8  O   UNL     1      -4.759   6.412 -30.006  1.00  0.00    -0.262 OA
BRANCH   6   9
HETATM    9  C   UNL     1      -1.894   5.710 -30.628  1.00  0.00     0.037 A 
HETATM   10  C   UNL     1      -1.722   6.754 -29.714  1.00  0.00     0.059 A 
HETATM   11  C   UNL     1      -0.502   7.440 -29.612  1.00  0.00     0.036 A 
HETATM   12  C   UNL     1       0.534   7.102 -30.479  1.00  0.00     0.029 A 
HETATM   13  C   UNL     1       0.365   6.077 -31.414  1.00  0.00     0.004 A 
HETATM   14  C   UNL     1      -0.841   5.381 -31.484  1.00  0.00     0.029 A 
BRANCH  11  15
HETATM   15  N   UNL     1      -0.437   8.466 -28.653  1.00  0.00    -0.327 N 
HETATM   16  C   UNL     1       0.374   8.681 -27.580  1.00  0.00     0.218 C 
HETATM   17  C   UNL     1       1.287   7.601 -27.070  1.00  0.00     0.117 C 
HETATM   18  O   UNL     1       0.305   9.765 -26.994  1.00  0.00    -0.274 OA
HETATM   19  H   UNL     1      -1.132   9.201 -28.737  1.00  0.00     0.169 HD
ENDBRANCH  11  15
ENDBRANCH   6   9
ENDBRANCH   1   5
BRANCH   2  20
HETATM   20  C   UNL     1      -5.816   1.865 -29.740  1.00  0.00     0.159 C 
BRANCH  20  21
HETATM   21  C   UNL     1      -5.084   0.949 -30.735  1.00  0.00     0.171 C 
BRANCH  21  22
HETATM   22  O   UNL     1      -3.984   1.679 -31.301  1.00  0.00    -0.389 OA
HETATM   23  H   UNL     1      -3.762   1.220 -32.130  1.00  0.00     0.210 HD
ENDBRANCH  21  22
BRANCH  21  24
HETATM   24  C   UNL     1      -5.998   0.431 -31.802  1.00  0.00     0.000 A 
HETATM   25  C   UNL     1      -5.705  -0.619 -32.732  1.00  0.00     0.001 A 
HETATM   26  C   UNL     1      -6.827  -0.787 -33.552  1.00  0.00     0.044 A 
HETATM   27  C   UNL     1      -4.579  -1.441 -32.945  1.00  0.00     0.014 A 
HETATM   28  C   UNL     1      -6.855  -1.744 -34.580  1.00  0.00     0.030 A 
HETATM   29  N   UNL     1      -7.771   0.123 -33.127  1.00  0.00    -0.360 N 
HETATM   30  C   UNL     1      -5.724  -2.545 -34.770  1.00  0.00     0.002 A 
HETATM   31  C   UNL     1      -4.601  -2.399 -33.964  1.00  0.00     0.001 A 
HETATM   32  C   UNL     1      -9.097   0.307 -33.674  1.00  0.00     0.155 C 
HETATM   33  C   UNL     1      -7.282   0.858 -32.079  1.00  0.00     0.101 A 
ENDBRANCH  21  24
ENDBRANCH  20  21
ENDBRANCH   2  20
TORSDOF 7
ENDMDL
MODEL 10
REMARK VINA RESULT:      -7.7      5.825      9.423
REMARK  7 active torsions:
REMARK  status: ('A' for Active; 'I' for Inactive)
REMARK       I    between atoms: C_2  and  N_3 
REMARK    1  A    between atoms: N_3  and  C_4 
REMARK    2  A    between atoms: C_6  and  N_7 
REMARK       I    between atoms: N_7  and  C_8 
REMARK    3  A    between atoms: C_8  and  C_9 
REMARK       I    between atoms: C_9  and  N_10 
REMARK    4  A    between atoms: N_10  and  C_11 
REMARK    5  A    between atoms: C_11  and  C_12 
REMARK    6  A    between atoms: C_12  and  O_13 
REMARK    7  A    between atoms: C_12  and  C_14 
ROOT
HETATM    1  C   UNL     1     -10.578   3.025 -34.543  1.00  0.00     0.309 C 
HETATM    2  N   UNL     1     -10.263   1.689 -34.543  1.00  0.00    -0.350 N 
HETATM    3  O   UNL     1      -9.786   3.959 -34.567  1.00  0.00    -0.262 OA
HETATM    4  H   UNL     1     -11.024   1.045 -34.326  1.00  0.00     0.163 HD
ENDROOT
BRANCH   1   5
HETATM    5  C   UNL     1     -12.093   3.308 -34.453  1.00  0.00     0.313 C 
HETATM    6  N   UNL     1     -12.583   3.088 -33.183  1.00  0.00    -0.319 N 
HETATM    7  H   UNL     1     -11.879   2.790 -32.510  1.00  0.00     0.169 HD
HETATM    8  O   UNL     1     -12.693   3.647 -35.464  1.00  0.00    -0.262 OA
BRANCH   6   9
HETATM    9  C   UNL     1     -13.920   3.153 -32.755  1.00  0.00     0.037 A 
HETATM   10  C   UNL     1     -14.508   4.306 -32.225  1.00  0.00     0.059 A 
HETATM   11  C   UNL     1     -15.868   4.336 -31.879  1.00  0.00     0.036 A 
HETATM   12  C   UNL     1     -16.624   3.174 -32.018  1.00  0.00     0.029 A 
HETATM   13  C   UNL     1     -16.039   2.009 -32.522  1.00  0.00     0.004 A 
HETATM   14  C   UNL     1     -14.695   2.001 -32.894  1.00  0.00     0.029 A 
BRANCH  11  15
HETATM   15  N   UNL     1     -16.357   5.549 -31.363  1.00  0.00    -0.327 N 
HETATM   16  C   UNL     1     -17.188   6.503 -31.871  1.00  0.00     0.218 C 
HETATM   17  C   UNL     1     -17.570   6.504 -33.324  1.00  0.00     0.117 C 
HETATM   18  O   UNL     1     -17.578   7.404 -31.124  1.00  0.00    -0.274 OA
HETATM   19  H   UNL     1     -16.031   5.805 -30.437  1.00  0.00     0.169 HD
ENDBRANCH  11  15
ENDBRANCH   6   9
ENDBRANCH   1   5
BRANCH   2  20
HETATM   20  C   UNL     1      -8.903   1.213 -34.359  1.00  0.00     0.159 C 
BRANCH  20  21
HETATM   21  C   UNL     1      -8.840   0.063 -33.340  1.00  0.00     0.171 C 
BRANCH  21  22
HETATM   22  O   UNL     1      -9.656   0.411 -32.210  1.00  0.00    -0.389 OA
HETATM   23  H   UNL     1     -10.573   0.402 -32.536  1.00  0.00     0.210 HD
ENDBRANCH  21  22
BRANCH  21  24
HETATM   24  C   UNL     1      -7.434  -0.242 -32.922  1.00  0.00     0.000 A 
HETATM   25  C   UNL     1      -6.557  -1.197 -33.531  1.00  0.00     0.001 A 
HETATM   26  C   UNL     1      -5.343  -1.166 -32.834  1.00  0.00     0.044 A 
HETATM   27  C   UNL     1      -6.694  -2.086 -34.618  1.00  0.00     0.014 A 
HETATM   28  C   UNL     1      -4.268  -1.999 -33.185  1.00  0.00     0.030 A 
HETATM   29  N   UNL     1      -5.477  -0.218 -31.843  1.00  0.00    -0.360 N 
HETATM   30  C   UNL     1      -4.431  -2.872 -34.266  1.00  0.00     0.002 A 
HETATM   31  C   UNL     1      -5.626  -2.915 -34.975  1.00  0.00     0.001 A 
HETATM   32  C   UNL     1      -4.471   0.168 -30.878  1.00  0.00     0.155 C 
HETATM   33  C   UNL     1      -6.728   0.341 -31.887  1.00  0.00     0.101 A 
ENDBRANCH  21  24
ENDBRANCH  20  21
ENDBRANCH   2  20
TORSDOF 7
ENDMDL
