MODEL 1
REMARK VINA RESULT:      -8.7      0.000      0.000
REMARK  2 active torsions:
REMARK  status: ('A' for Active; 'I' for Inactive)
REMARK    1  A    between atoms: C_9  and  N_10 
REMARK    2  A    between atoms: N_13  and  C_15 
ROOT
HETATM    1  N   UNL     1      -8.707   1.248 -32.536  1.00  0.00    -0.376 N 
HETATM    2  C   UNL     1      -9.731   0.198 -32.685  1.00  0.00     0.150 C 
HETATM    3  C   UNL     1     -10.904   0.717 -33.541  1.00  0.00     0.255 C 
HETATM    4  N   UNL     1     -11.520   2.017 -32.975  1.00  0.00    -0.064 N 
HETATM    5  H   UNL     1     -11.938   1.781 -32.067  1.00  0.00     0.280 HD
HETATM    6  C   UNL     1     -10.404   3.045 -32.697  1.00  0.00     0.255 C 
HETATM    7  C   UNL     1      -9.252   2.448 -31.867  1.00  0.00     0.150 C 
ENDROOT
BRANCH   1   8
HETATM    8  C   UNL     1      -7.361   0.920 -32.393  1.00  0.00     0.053 A 
HETATM    9  C   UNL     1      -6.773  -0.211 -33.149  1.00  0.00     0.013 A 
HETATM   10  C   UNL     1      -7.396  -1.113 -34.005  1.00  0.00     0.015 A 
HETATM   11  C   UNL     1      -5.414  -0.388 -32.892  1.00  0.00     0.075 A 
HETATM   12  C   UNL     1      -6.638  -2.134 -34.600  1.00  0.00     0.001 A 
HETATM   13  C   UNL     1      -5.268  -2.266 -34.329  1.00  0.00     0.002 A 
HETATM   14  C   UNL     1      -4.637  -1.386 -33.453  1.00  0.00     0.025 A 
HETATM   15  S   UNL     1      -4.880   0.781 -31.719  1.00  0.00     0.200 S 
HETATM   16  O   UNL     1      -3.986   1.708 -32.377  1.00  0.00    -0.218 OA
HETATM   17  O   UNL     1      -4.546   0.083 -30.497  1.00  0.00    -0.218 OA
HETATM   18  C   UNL     1      -6.456   1.490 -31.576  1.00  0.00     0.144 A 
ENDBRANCH   1   8
BRANCH   4  19
HETATM   19  C   UNL     1     -12.618   2.578 -33.900  1.00  0.00     0.188 C 
HETATM   20  C   UNL     1     -13.517   1.454 -34.447  1.00  0.00     0.033 C 
HETATM   21  C   UNL     1     -14.366   0.790 -33.364  1.00  0.00     0.002 C 
HETATM   22  C   UNL     1     -15.201   1.813 -32.598  1.00  0.00     0.000 C 
HETATM   23  C   UNL     1     -14.354   2.965 -32.065  1.00  0.00     0.002 C 
HETATM   24  C   UNL     1     -13.512   3.598 -33.172  1.00  0.00     0.033 C 
ENDBRANCH   4  19
TORSDOF 2
ENDMDL
MODEL 2
REMARK VINA RESULT:      -8.5      4.698      7.977
REMARK  2 active torsions:
REMARK  status: ('A' for Active; 'I' for Inactive)
REMARK    1  A    between atoms: C_9  and  N_10 
REMARK    2  A    between atoms: N_13  and  C_15 
ROOT
HETATM    1  N   UNL     1      -5.387   2.810 -32.839  1.00  0.00    -0.376 N 
HETATM    2  C   UNL     1      -5.378   4.105 -33.544  1.00  0.00     0.150 C 
HETATM    3  C   UNL     1      -3.930   4.532 -33.856  1.00  0.00     0.255 C 
HETATM    4  N   UNL     1      -3.043   4.581 -32.592  1.00  0.00    -0.064 N 
HETATM    5  H   UNL     1      -3.415   5.327 -31.992  1.00  0.00     0.280 HD
HETATM    6  C   UNL     1      -3.184   3.263 -31.802  1.00  0.00     0.255 C 
HETATM    7  C   UNL     1      -4.656   2.884 -31.556  1.00  0.00     0.150 C 
ENDROOT
BRANCH   1   8
HETATM    8  C   UNL     1      -6.448   1.921 -32.988  1.00  0.00     0.053 A 
HETATM    9  C   UNL     1      -6.207   0.510 -33.373  1.00  0.00     0.013 A 
HETATM   10  C   UNL     1      -5.010  -0.119 -33.695  1.00  0.00     0.015 A 
HETATM   11  C   UNL     1      -7.381  -0.236 -33.465  1.00  0.00     0.075 A 
HETATM   12  C   UNL     1      -5.020  -1.474 -34.060  1.00  0.00     0.001 A 
HETATM   13  C   UNL     1      -6.222  -2.195 -34.122  1.00  0.00     0.002 A 
HETATM   14  C   UNL     1      -7.432  -1.570 -33.829  1.00  0.00     0.025 A 
HETATM   15  S   UNL     1      -8.753   0.780 -33.125  1.00  0.00     0.200 S 
HETATM   16  O   UNL     1      -9.332   0.356 -31.869  1.00  0.00    -0.218 OA
HETATM   17  O   UNL     1      -9.518   0.938 -34.343  1.00  0.00    -0.218 OA
HETATM   18  C   UNL     1      -7.763   2.181 -32.870  1.00  0.00     0.144 A 
ENDBRANCH   1   8
BRANCH   4  19
HETATM   19  C   UNL     1      -1.575   4.905 -32.937  1.00  0.00     0.188 C 
HETATM   20  C   UNL     1      -1.478   6.086 -33.918  1.00  0.00     0.033 C 
HETATM   21  C   UNL     1      -1.927   7.411 -33.302  1.00  0.00     0.002 C 
HETATM   22  C   UNL     1      -1.160   7.721 -32.019  1.00  0.00     0.000 C 
HETATM   23  C   UNL     1      -1.201   6.562 -31.028  1.00  0.00     0.002 C 
HETATM   24  C   UNL     1      -0.756   5.253 -31.681  1.00  0.00     0.033 C 
ENDBRANCH   4  19
TORSDOF 2
ENDMDL
MODEL 3
REMARK VINA RESULT:      -8.1      5.003      7.778
REMARK  2 active torsions:
REMARK  status: ('A' for Active; 'I' for Inactive)
REMARK    1  A    between atoms: C_9  and  N_10 
REMARK    2  A    between atoms: N_13  and  C_15 
ROOT
HETATM    1  N   UNL     1      -3.926   4.320 -32.639  1.00  0.00    -0.376 N 
HETATM    2  C   UNL     1      -4.817   4.379 -33.813  1.00  0.00     0.150 C 
HETATM    3  C   UNL     1      -6.052   3.484 -33.588  1.00  0.00     0.255 C 
HETATM    4  N   UNL     1      -5.671   2.024 -33.252  1.00  0.00    -0.064 N 
HETATM    5  H   UNL     1      -5.210   1.635 -34.083  1.00  0.00     0.280 HD
HETATM    6  C   UNL     1      -4.630   2.005 -32.114  1.00  0.00     0.255 C 
HETATM    7  C   UNL     1      -3.443   2.946 -32.392  1.00  0.00     0.150 C 
ENDROOT
BRANCH   1   8
HETATM    8  C   UNL     1      -3.138   5.412 -32.284  1.00  0.00     0.053 A 
HETATM    9  C   UNL     1      -3.397   6.156 -31.027  1.00  0.00     0.013 A 
HETATM   10  C   UNL     1      -4.409   5.974 -30.092  1.00  0.00     0.015 A 
HETATM   11  C   UNL     1      -2.506   7.210 -30.828  1.00  0.00     0.075 A 
HETATM   12  C   UNL     1      -4.477   6.822 -28.976  1.00  0.00     0.001 A 
HETATM   13  C   UNL     1      -3.549   7.860 -28.802  1.00  0.00     0.002 A 
HETATM   14  C   UNL     1      -2.546   8.071 -29.745  1.00  0.00     0.025 A 
HETATM   15  S   UNL     1      -1.403   7.311 -32.170  1.00  0.00     0.200 S 
HETATM   16  O   UNL     1      -0.084   6.945 -31.701  1.00  0.00    -0.218 OA
HETATM   17  O   UNL     1      -1.679   8.530 -32.898  1.00  0.00    -0.218 OA
HETATM   18  C   UNL     1      -2.130   5.964 -32.984  1.00  0.00     0.144 A 
ENDBRANCH   1   8
BRANCH   4  19
HETATM   19  C   UNL     1      -6.913   1.171 -32.926  1.00  0.00     0.188 C 
HETATM   20  C   UNL     1      -7.880   1.110 -34.123  1.00  0.00     0.033 C 
HETATM   21  C   UNL     1      -7.308   0.341 -35.312  1.00  0.00     0.002 C 
HETATM   22  C   UNL     1      -6.867  -1.065 -34.912  1.00  0.00     0.000 C 
HETATM   23  C   UNL     1      -5.932  -1.056 -33.706  1.00  0.00     0.002 C 
HETATM   24  C   UNL     1      -6.533  -0.269 -32.541  1.00  0.00     0.033 C 
ENDBRANCH   4  19
TORSDOF 2
ENDMDL
MODEL 4
REMARK VINA RESULT:      -8.1      5.117      7.678
REMARK  2 active torsions:
REMARK  status: ('A' for Active; 'I' for Inactive)
REMARK    1  A    between atoms: C_9  and  N_10 
REMARK    2  A    between atoms: N_13  and  C_15 
ROOT
HETATM    1  N   UNL     1      -4.382   3.348 -32.249  1.00  0.00    -0.376 N 
HETATM    2  C   UNL     1      -5.460   3.115 -33.228  1.00  0.00     0.150 C 
HETATM    3  C   UNL     1      -6.153   1.767 -32.945  1.00  0.00     0.255 C 
HETATM    4  N   UNL     1      -5.158   0.584 -32.921  1.00  0.00    -0.064 N 
HETATM    5  H   UNL     1      -4.777   0.492 -33.870  1.00  0.00     0.280 HD
HETATM    6  C   UNL     1      -3.970   0.919 -31.996  1.00  0.00     0.255 C 
HETATM    7  C   UNL     1      -3.349   2.293 -32.315  1.00  0.00     0.150 C 
ENDROOT
BRANCH   1   8
HETATM    8  C   UNL     1      -4.036   4.640 -31.860  1.00  0.00     0.053 A 
HETATM    9  C   UNL     1      -3.053   5.429 -32.642  1.00  0.00     0.013 A 
HETATM   10  C   UNL     1      -2.312   5.051 -33.756  1.00  0.00     0.015 A 
HETATM   11  C   UNL     1      -2.835   6.701 -32.114  1.00  0.00     0.075 A 
HETATM   12  C   UNL     1      -1.411   5.964 -34.326  1.00  0.00     0.001 A 
HETATM   13  C   UNL     1      -1.236   7.243 -33.775  1.00  0.00     0.002 A 
HETATM   14  C   UNL     1      -1.950   7.624 -32.642  1.00  0.00     0.025 A 
HETATM   15  S   UNL     1      -3.784   6.909 -30.670  1.00  0.00     0.200 S 
HETATM   16  O   UNL     1      -4.812   7.890 -30.941  1.00  0.00    -0.218 OA
HETATM   17  O   UNL     1      -2.885   6.988 -29.539  1.00  0.00    -0.218 OA
HETATM   18  C   UNL     1      -4.455   5.314 -30.774  1.00  0.00     0.144 A 
ENDBRANCH   1   8
BRANCH   4  19
HETATM   19  C   UNL     1      -5.851  -0.737 -32.531  1.00  0.00     0.188 C 
HETATM   20  C   UNL     1      -7.051  -1.032 -33.450  1.00  0.00     0.033 C 
HETATM   21  C   UNL     1      -6.638  -1.338 -34.889  1.00  0.00     0.002 C 
HETATM   22  C   UNL     1      -5.627  -2.480 -34.952  1.00  0.00     0.000 C 
HETATM   23  C   UNL     1      -4.434  -2.245 -34.030  1.00  0.00     0.002 C 
HETATM   24  C   UNL     1      -4.885  -1.932 -32.603  1.00  0.00     0.033 C 
ENDBRANCH   4  19
TORSDOF 2
ENDMDL
MODEL 5
REMARK VINA RESULT:      -8.1      5.190      8.610
REMARK  2 active torsions:
REMARK  status: ('A' for Active; 'I' for Inactive)
REMARK    1  A    between atoms: C_9  and  N_10 
REMARK    2  A    between atoms: N_13  and  C_15 
ROOT
HETATM    1  N   UNL     1      -4.260   3.305 -32.319  1.00  0.00    -0.376 N 
HETATM    2  C   UNL     1      -4.450   3.810 -30.946  1.00  0.00     0.150 C 
HETATM    3  C   UNL     1      -4.034   5.292 -30.862  1.00  0.00     0.255 C 
HETATM    4  N   UNL     1      -2.585   5.528 -31.345  1.00  0.00    -0.064 N 
HETATM    5  H   UNL     1      -1.966   5.041 -30.686  1.00  0.00     0.280 HD
HETATM    6  C   UNL     1      -2.379   4.864 -32.722  1.00  0.00     0.255 C 
HETATM    7  C   UNL     1      -2.847   3.397 -32.741  1.00  0.00     0.150 C 
ENDROOT
BRANCH   1   8
HETATM    8  C   UNL     1      -5.078   2.302 -32.832  1.00  0.00     0.053 A 
HETATM    9  C   UNL     1      -4.667   0.879 -32.762  1.00  0.00     0.013 A 
HETATM   10  C   UNL     1      -3.482   0.330 -32.284  1.00  0.00     0.015 A 
HETATM   11  C   UNL     1      -5.610   0.013 -33.314  1.00  0.00     0.075 A 
HETATM   12  C   UNL     1      -3.295  -1.059 -32.338  1.00  0.00     0.001 A 
HETATM   13  C   UNL     1      -4.278  -1.898 -32.885  1.00  0.00     0.002 A 
HETATM   14  C   UNL     1      -5.458  -1.360 -33.393  1.00  0.00     0.025 A 
HETATM   15  S   UNL     1      -6.952   0.927 -33.941  1.00  0.00     0.200 S 
HETATM   16  O   UNL     1      -8.111   0.650 -33.121  1.00  0.00    -0.218 OA
HETATM   17  O   UNL     1      -6.950   0.813 -35.383  1.00  0.00    -0.218 OA
HETATM   18  C   UNL     1      -6.253   2.443 -33.472  1.00  0.00     0.144 A 
ENDBRANCH   1   8
BRANCH   4  19
HETATM   19  C   UNL     1      -2.224   7.026 -31.355  1.00  0.00     0.188 C 
HETATM   20  C   UNL     1      -2.180   7.601 -29.927  1.00  0.00     0.033 C 
HETATM   21  C   UNL     1      -1.033   7.035 -29.092  1.00  0.00     0.002 C 
HETATM   22  C   UNL     1       0.314   7.228 -29.784  1.00  0.00     0.000 C 
HETATM   23  C   UNL     1       0.307   6.701 -31.216  1.00  0.00     0.002 C 
HETATM   24  C   UNL     1      -0.858   7.281 -32.018  1.00  0.00     0.033 C 
ENDBRANCH   4  19
TORSDOF 2
ENDMDL
MODEL 6
REMARK VINA RESULT:      -7.9      5.114      7.412
REMARK  2 active torsions:
REMARK  status: ('A' for Active; 'I' for Inactive)
REMARK    1  A    between atoms: C_9  and  N_10 
REMARK    2  A    between atoms: N_13  and  C_15 
ROOT
HETATM    1  N   UNL     1      -4.735   4.570 -31.991  1.00  0.00    -0.376 N 
HETATM    2  C   UNL     1      -4.976   4.377 -33.433  1.00  0.00     0.150 C 
HETATM    3  C   UNL     1      -6.246   3.530 -33.651  1.00  0.00     0.255 C 
HETATM    4  N   UNL     1      -6.188   2.175 -32.911  1.00  0.00    -0.064 N 
HETATM    5  H   UNL     1      -5.430   1.631 -33.340  1.00  0.00     0.280 HD
HETATM    6  C   UNL     1      -5.795   2.401 -31.437  1.00  0.00     0.255 C 
HETATM    7  C   UNL     1      -4.538   3.281 -31.295  1.00  0.00     0.150 C 
ENDROOT
BRANCH   1   8
HETATM    8  C   UNL     1      -4.111   5.722 -31.518  1.00  0.00     0.053 A 
HETATM    9  C   UNL     1      -2.633   5.840 -31.525  1.00  0.00     0.013 A 
HETATM   10  C   UNL     1      -1.679   4.900 -31.900  1.00  0.00     0.015 A 
HETATM   11  C   UNL     1      -2.184   7.061 -31.026  1.00  0.00     0.075 A 
HETATM   12  C   UNL     1      -0.317   5.223 -31.800  1.00  0.00     0.001 A 
HETATM   13  C   UNL     1       0.093   6.472 -31.310  1.00  0.00     0.002 A 
HETATM   14  C   UNL     1      -0.850   7.412 -30.904  1.00  0.00     0.025 A 
HETATM   15  S   UNL     1      -3.541   8.027 -30.522  1.00  0.00     0.200 S 
HETATM   16  O   UNL     1      -3.653   9.156 -31.420  1.00  0.00    -0.218 OA
HETATM   17  O   UNL     1      -3.503   8.155 -29.082  1.00  0.00    -0.218 OA
HETATM   18  C   UNL     1      -4.689   6.807 -30.971  1.00  0.00     0.144 A 
ENDBRANCH   1   8
BRANCH   4  19
HETATM   19  C   UNL     1      -7.507   1.390 -33.053  1.00  0.00     0.188 C 
HETATM   20  C   UNL     1      -7.916   1.245 -34.530  1.00  0.00     0.033 C 
HETATM   21  C   UNL     1      -6.965   0.353 -35.327  1.00  0.00     0.002 C 
HETATM   22  C   UNL     1      -6.810  -1.021 -34.680  1.00  0.00     0.000 C 
HETATM   23  C   UNL     1      -6.437  -0.926 -33.203  1.00  0.00     0.002 C 
HETATM   24  C   UNL     1      -7.403  -0.018 -32.442  1.00  0.00     0.033 C 
ENDBRANCH   4  19
TORSDOF 2
ENDMDL
MODEL 7
REMARK VINA RESULT:      -7.8      1.779      2.663
REMARK  2 active torsions:
REMARK  status: ('A' for Active; 'I' for Inactive)
REMARK    1  A    between atoms: C_9  and  N_10 
REMARK    2  A    between atoms: N_13  and  C_15 
ROOT
HETATM    1  N   UNL     1      -7.354   0.974 -33.580  1.00  0.00    -0.376 N 
HETATM    2  C   UNL     1      -7.442   2.416 -33.282  1.00  0.00     0.150 C 
HETATM    3  C   UNL     1      -8.879   2.786 -32.864  1.00  0.00     0.255 C 
HETATM    4  N   UNL     1      -9.928   2.372 -33.921  1.00  0.00    -0.064 N 
HETATM    5  H   UNL     1      -9.744   2.932 -34.762  1.00  0.00     0.280 HD
HETATM    6  C   UNL     1      -9.718   0.896 -34.315  1.00  0.00     0.255 C 
HETATM    7  C   UNL     1      -8.255   0.592 -34.688  1.00  0.00     0.150 C 
ENDROOT
BRANCH   1   8
HETATM    8  C   UNL     1      -6.172   0.270 -33.367  1.00  0.00     0.053 A 
HETATM    9  C   UNL     1      -6.015  -1.116 -33.870  1.00  0.00     0.013 A 
HETATM   10  C   UNL     1      -6.940  -1.923 -34.523  1.00  0.00     0.015 A 
HETATM   11  C   UNL     1      -4.766  -1.662 -33.575  1.00  0.00     0.075 A 
HETATM   12  C   UNL     1      -6.577  -3.228 -34.891  1.00  0.00     0.001 A 
HETATM   13  C   UNL     1      -5.303  -3.733 -34.593  1.00  0.00     0.002 A 
HETATM   14  C   UNL     1      -4.375  -2.946 -33.914  1.00  0.00     0.025 A 
HETATM   15  S   UNL     1      -3.822  -0.516 -32.667  1.00  0.00     0.200 S 
HETATM   16  O   UNL     1      -2.725  -0.072 -33.499  1.00  0.00    -0.218 OA
HETATM   17  O   UNL     1      -3.648  -1.029 -31.325  1.00  0.00    -0.218 OA
HETATM   18  C   UNL     1      -5.086   0.670 -32.681  1.00  0.00     0.144 A 
ENDBRANCH   1   8
BRANCH   4  19
HETATM   19  C   UNL     1     -11.365   2.653 -33.440  1.00  0.00     0.188 C 
HETATM   20  C   UNL     1     -11.587   4.155 -33.186  1.00  0.00     0.033 C 
HETATM   21  C   UNL     1     -11.546   4.988 -34.466  1.00  0.00     0.002 C 
HETATM   22  C   UNL     1     -12.539   4.472 -35.504  1.00  0.00     0.000 C 
HETATM   23  C   UNL     1     -12.377   2.977 -35.764  1.00  0.00     0.002 C 
HETATM   24  C   UNL     1     -12.413   2.178 -34.461  1.00  0.00     0.033 C 
ENDBRANCH   4  19
TORSDOF 2
ENDMDL
MODEL 8
REMARK VINA RESULT:      -7.5      5.293      8.947
REMARK  2 active torsions:
REMARK  status: ('A' for Active; 'I' for Inactive)
REMARK    1  A    between atoms: C_9  and  N_10 
REMARK    2  A    between atoms: N_13  and  C_15 
ROOT
HETATM    1  N   UNL     1      -4.366   3.546 -32.304  1.00  0.00    -0.376 N 
HETATM    2  C   UNL     1      -4.488   4.175 -30.975  1.00  0.00     0.150 C 
HETATM    3  C   UNL     1      -3.898   5.599 -31.005  1.00  0.00     0.255 C 
HETATM    4  N   UNL     1      -2.434   5.623 -31.498  1.00  0.00    -0.064 N 
HETATM    5  H   UNL     1      -1.874   5.118 -30.800  1.00  0.00     0.280 HD
HETATM    6  C   UNL     1      -2.314   4.834 -32.818  1.00  0.00     0.255 C 
HETATM    7  C   UNL     1      -2.953   3.436 -32.725  1.00  0.00     0.150 C 
ENDROOT
BRANCH   1   8
HETATM    8  C   UNL     1      -5.300   2.610 -32.741  1.00  0.00     0.053 A 
HETATM    9  C   UNL     1      -6.626   3.042 -33.245  1.00  0.00     0.013 A 
HETATM   10  C   UNL     1      -7.167   4.321 -33.308  1.00  0.00     0.015 A 
HETATM   11  C   UNL     1      -7.426   1.974 -33.649  1.00  0.00     0.075 A 
HETATM   12  C   UNL     1      -8.467   4.495 -33.805  1.00  0.00     0.001 A 
HETATM   13  C   UNL     1      -9.234   3.396 -34.220  1.00  0.00     0.002 A 
HETATM   14  C   UNL     1      -8.715   2.106 -34.136  1.00  0.00     0.025 A 
HETATM   15  S   UNL     1      -6.587   0.474 -33.381  1.00  0.00     0.200 S 
HETATM   16  O   UNL     1      -6.267  -0.104 -34.668  1.00  0.00    -0.218 OA
HETATM   17  O   UNL     1      -7.268  -0.250 -32.329  1.00  0.00    -0.218 OA
HETATM   18  C   UNL     1      -5.189   1.269 -32.733  1.00  0.00     0.144 A 
ENDBRANCH   1   8
BRANCH   4  19
HETATM   19  C   UNL     1      -1.896   7.062 -31.622  1.00  0.00     0.188 C 
HETATM   20  C   UNL     1      -1.995   7.815 -30.283  1.00  0.00     0.033 C 
HETATM   21  C   UNL     1      -1.061   7.251 -29.213  1.00  0.00     0.002 C 
HETATM   22  C   UNL     1       0.387   7.213 -29.696  1.00  0.00     0.000 C 
HETATM   23  C   UNL     1       0.528   6.504 -31.040  1.00  0.00     0.002 C 
HETATM   24  C   UNL     1      -0.428   7.086 -32.081  1.00  0.00     0.033 C 
ENDBRANCH   4  19
TORSDOF 2
ENDMDL
MODEL 9
REMARK VINA RESULT:      -7.5      4.988      8.271
REMARK  2 active torsions:
REMARK  status: ('A' for Active; 'I' for Inactive)
REMARK    1  A    between atoms: C_9  and  N_10 
REMARK    2  A    between atoms: N_13  and  C_15 
ROOT
HETATM    1  N   UNL     1      -6.568   4.220 -32.828  1.00  0.00    -0.376 N 
HETATM    2  C   UNL     1      -6.097   5.158 -33.864  1.00  0.00     0.150 C 
HETATM    3  C   UNL     1      -4.607   4.909 -34.169  1.00  0.00     0.255 C 
HETATM    4  N   UNL     1      -3.723   4.990 -32.904  1.00  0.00    -0.064 N 
HETATM    5  H   UNL     1      -3.767   5.959 -32.568  1.00  0.00     0.280 HD
HETATM    6  C   UNL     1      -4.323   4.105 -31.791  1.00  0.00     0.255 C 
HETATM    7  C   UNL     1      -5.820   4.385 -31.564  1.00  0.00     0.150 C 
ENDROOT
BRANCH   1   8
HETATM    8  C   UNL     1      -7.891   3.785 -32.805  1.00  0.00     0.053 A 
HETATM    9  C   UNL     1      -8.215   2.340 -32.880  1.00  0.00     0.013 A 
HETATM   10  C   UNL     1      -7.359   1.256 -33.041  1.00  0.00     0.015 A 
HETATM   11  C   UNL     1      -9.585   2.087 -32.833  1.00  0.00     0.075 A 
HETATM   12  C   UNL     1      -7.893  -0.039 -33.112  1.00  0.00     0.001 A 
HETATM   13  C   UNL     1      -9.278  -0.253 -33.041  1.00  0.00     0.002 A 
HETATM   14  C   UNL     1     -10.150   0.826 -32.908  1.00  0.00     0.025 A 
HETATM   15  S   UNL     1     -10.458   3.590 -32.740  1.00  0.00     0.200 S 
HETATM   16  O   UNL     1     -11.072   3.677 -31.433  1.00  0.00    -0.218 OA
HETATM   17  O   UNL     1     -11.186   3.774 -33.976  1.00  0.00    -0.218 OA
HETATM   18  C   UNL     1      -9.006   4.538 -32.768  1.00  0.00     0.144 A 
ENDBRANCH   1   8
BRANCH   4  19
HETATM   19  C   UNL     1      -2.255   4.633 -33.209  1.00  0.00     0.188 C 
HETATM   20  C   UNL     1      -1.692   5.505 -34.347  1.00  0.00     0.033 C 
HETATM   21  C   UNL     1      -1.555   6.976 -33.957  1.00  0.00     0.002 C 
HETATM   22  C   UNL     1      -0.717   7.147 -32.692  1.00  0.00     0.000 C 
HETATM   23  C   UNL     1      -1.220   6.274 -31.546  1.00  0.00     0.002 C 
HETATM   24  C   UNL     1      -1.354   4.813 -31.974  1.00  0.00     0.033 C 
ENDBRANCH   4  19
TORSDOF 2
ENDMDL
MODEL 10
REMARK VINA RESULT:      -7.5      4.707      6.174
REMARK  2 active torsions:
REMARK  status: ('A' for Active; 'I' for Inactive)
REMARK    1  A    between atoms: C_9  and  N_10 
REMARK    2  A    between atoms: N_13  and  C_15 
ROOT
HETATM    1  N   UNL     1      -5.287   4.365 -32.350  1.00  0.00    -0.376 N 
HETATM    2  C   UNL     1      -5.089   2.917 -32.155  1.00  0.00     0.150 C 
HETATM    3  C   UNL     1      -5.888   2.125 -33.209  1.00  0.00     0.255 C 
HETATM    4  N   UNL     1      -7.391   2.485 -33.205  1.00  0.00    -0.064 N 
HETATM    5  H   UNL     1      -7.770   2.181 -32.301  1.00  0.00     0.280 HD
HETATM    6  C   UNL     1      -7.560   4.017 -33.268  1.00  0.00     0.255 C 
HETATM    7  C   UNL     1      -6.709   4.743 -32.210  1.00  0.00     0.150 C 
ENDROOT
BRANCH   1   8
HETATM    8  C   UNL     1      -4.286   5.276 -32.018  1.00  0.00     0.053 A 
HETATM    9  C   UNL     1      -3.148   5.518 -32.936  1.00  0.00     0.013 A 
HETATM   10  C   UNL     1      -2.850   4.902 -34.147  1.00  0.00     0.015 A 
HETATM   11  C   UNL     1      -2.250   6.466 -32.448  1.00  0.00     0.075 A 
HETATM   12  C   UNL     1      -1.691   5.277 -34.844  1.00  0.00     0.001 A 
HETATM   13  C   UNL     1      -0.822   6.250 -34.327  1.00  0.00     0.002 A 
HETATM   14  C   UNL     1      -1.093   6.856 -33.102  1.00  0.00     0.025 A 
HETATM   15  S   UNL     1      -2.769   7.018 -30.882  1.00  0.00     0.200 S 
HETATM   16  O   UNL     1      -3.181   8.399 -31.001  1.00  0.00    -0.218 OA
HETATM   17  O   UNL     1      -1.819   6.552 -29.895  1.00  0.00    -0.218 OA
HETATM   18  C   UNL     1      -4.164   5.988 -30.883  1.00  0.00     0.144 A 
ENDBRANCH   1   8
BRANCH   4  19
HETATM   19  C   UNL     1      -8.153   1.763 -34.334  1.00  0.00     0.188 C 
HETATM   20  C   UNL     1      -8.001   0.235 -34.225  1.00  0.00     0.033 C 
HETATM   21  C   UNL     1      -8.695  -0.345 -32.993  1.00  0.00     0.002 C 
HETATM   22  C   UNL     1     -10.169   0.047 -32.942  1.00  0.00     0.000 C 
HETATM   23  C   UNL     1     -10.370   1.554 -33.081  1.00  0.00     0.002 C 
HETATM   24  C   UNL     1      -9.655   2.100 -34.316  1.00  0.00     0.033 C 
ENDBRANCH   4  19
TORSDOF 2
ENDMDL
