MODEL 1
REMARK VINA RESULT:      -7.6      0.000      0.000
REMARK  4 active torsions:
REMARK  status: ('A' for Active; 'I' for Inactive)
REMARK    1  A    between atoms: C_2  and  O_3 
REMARK    2  A    between atoms: C_2  and  C_12 
REMARK    3  A    between atoms: O_3  and  C_4 
REMARK       I    between atoms: C_12  and  N_13 
REMARK    4  A    between atoms: N_13  and  C_14 
ROOT
HETATM    1  C   UNL     1      -6.013  -0.034 -31.010  1.00  0.00     0.050 C 
HETATM    2  C   UNL     1      -4.756   0.306 -31.802  1.00  0.00     0.217 C 
ENDROOT
BRANCH   2   3
HETATM    3  O   UNL     1      -5.022   0.157 -33.201  1.00  0.00    -0.336 OA
BRANCH   3   4
HETATM    4  C   UNL     1      -5.178  -1.093 -33.735  1.00  0.00     0.087 A 
HETATM    5  C   UNL     1      -6.383  -1.335 -34.422  1.00  0.00     0.047 A 
HETATM    6 BR   UNL     1      -7.694   0.030 -34.620  1.00  0.00    -0.048 Br
HETATM    7  C   UNL     1      -6.650  -2.583 -34.987  1.00  0.00     0.064 A 
HETATM    8  C   UNL     1      -5.709  -3.595 -34.862  1.00  0.00     0.117 A 
HETATM    9  F   UNL     1      -5.958  -4.795 -35.399  1.00  0.00    -0.206 F 
HETATM   10  C   UNL     1      -4.516  -3.382 -34.184  1.00  0.00     0.045 A 
HETATM   11  C   UNL     1      -4.250  -2.133 -33.617  1.00  0.00     0.041 A 
ENDBRANCH   3   4
ENDBRANCH   2   3
BRANCH   2  12
HETATM   12  C   UNL     1      -4.379   1.773 -31.510  1.00  0.00     0.252 C 
HETATM   13  N   UNL     1      -3.431   2.262 -32.388  1.00  0.00    -0.309 N 
HETATM   14  H   UNL     1      -3.073   1.597 -33.064  1.00  0.00     0.170 HD
HETATM   15  O   UNL     1      -4.922   2.379 -30.589  1.00  0.00    -0.270 OA
BRANCH  13  16
HETATM   16  C   UNL     1      -2.914   3.558 -32.408  1.00  0.00     0.129 A 
HETATM   17  N   UNL     1      -1.996   3.950 -31.508  1.00  0.00    -0.242 NA
HETATM   18  C   UNL     1      -1.538   5.223 -31.579  1.00  0.00     0.142 A 
HETATM   19  C   UNL     1      -1.964   6.140 -32.523  1.00  0.00     0.051 A 
HETATM   20 CL   UNL     1      -1.342   7.738 -32.552  1.00  0.00    -0.083 Cl
HETATM   21  C   UNL     1      -2.912   5.731 -33.449  1.00  0.00     0.029 A 
HETATM   22  C   UNL     1      -3.396   4.422 -33.391  1.00  0.00     0.052 A 
ENDBRANCH  13  16
ENDBRANCH   2  12
TORSDOF 4
ENDMDL
MODEL 2
REMARK VINA RESULT:      -7.2      5.670      7.266
REMARK  4 active torsions:
REMARK  status: ('A' for Active; 'I' for Inactive)
REMARK    1  A    between atoms: C_2  and  O_3 
REMARK    2  A    between atoms: C_2  and  C_12 
REMARK    3  A    between atoms: O_3  and  C_4 
REMARK       I    between atoms: C_12  and  N_13 
REMARK    4  A    between atoms: N_13  and  C_14 
ROOT
HETATM    1  C   UNL     1      -6.627   2.724 -32.039  1.00  0.00     0.050 C 
HETATM    2  C   UNL     1      -7.377   1.538 -32.634  1.00  0.00     0.217 C 
ENDROOT
BRANCH   2   3
HETATM    3  O   UNL     1      -6.905   0.328 -32.032  1.00  0.00    -0.336 OA
BRANCH   3   4
HETATM    4  C   UNL     1      -6.365  -0.656 -32.812  1.00  0.00     0.087 A 
HETATM    5  C   UNL     1      -5.006  -0.955 -32.594  1.00  0.00     0.047 A 
HETATM    6 BR   UNL     1      -4.005  -0.053 -31.250  1.00  0.00    -0.048 Br
HETATM    7  C   UNL     1      -4.354  -1.929 -33.351  1.00  0.00     0.064 A 
HETATM    8  C   UNL     1      -5.062  -2.605 -34.334  1.00  0.00     0.117 A 
HETATM    9  F   UNL     1      -4.443  -3.540 -35.066  1.00  0.00    -0.206 F 
HETATM   10  C   UNL     1      -6.400  -2.324 -34.572  1.00  0.00     0.045 A 
HETATM   11  C   UNL     1      -7.053  -1.348 -33.815  1.00  0.00     0.041 A 
ENDBRANCH   3   4
ENDBRANCH   2   3
BRANCH   2  12
HETATM   12  C   UNL     1      -8.879   1.708 -32.327  1.00  0.00     0.252 C 
HETATM   13  N   UNL     1      -9.679   1.436 -33.421  1.00  0.00    -0.309 N 
HETATM   14  H   UNL     1      -9.187   1.216 -34.281  1.00  0.00     0.170 HD
HETATM   15  O   UNL     1      -9.247   2.033 -31.201  1.00  0.00    -0.270 OA
BRANCH  13  16
HETATM   16  C   UNL     1     -11.074   1.464 -33.453  1.00  0.00     0.129 A 
HETATM   17  N   UNL     1     -11.742   2.628 -33.395  1.00  0.00    -0.242 NA
HETATM   18  C   UNL     1     -13.096   2.585 -33.424  1.00  0.00     0.142 A 
HETATM   19  C   UNL     1     -13.826   1.414 -33.509  1.00  0.00     0.051 A 
HETATM   20 CL   UNL     1     -15.541   1.434 -33.541  1.00  0.00    -0.083 Cl
HETATM   21  C   UNL     1     -13.130   0.215 -33.569  1.00  0.00     0.029 A 
HETATM   22  C   UNL     1     -11.734   0.239 -33.539  1.00  0.00     0.052 A 
ENDBRANCH  13  16
ENDBRANCH   2  12
TORSDOF 4
ENDMDL
MODEL 3
REMARK VINA RESULT:      -7.1      4.517      7.297
REMARK  4 active torsions:
REMARK  status: ('A' for Active; 'I' for Inactive)
REMARK    1  A    between atoms: C_2  and  O_3 
REMARK    2  A    between atoms: C_2  and  C_12 
REMARK    3  A    between atoms: O_3  and  C_4 
REMARK       I    between atoms: C_12  and  N_13 
REMARK    4  A    between atoms: N_13  and  C_14 
ROOT
HETATM    1  C   UNL     1      -8.708   3.121 -33.424  1.00  0.00     0.050 C 
HETATM    2  C   UNL     1      -7.245   2.769 -33.673  1.00  0.00     0.217 C 
ENDROOT
BRANCH   2   3
HETATM    3  O   UNL     1      -6.415   3.556 -32.810  1.00  0.00    -0.336 OA
BRANCH   3   4
HETATM    4  C   UNL     1      -5.169   3.936 -33.225  1.00  0.00     0.087 A 
HETATM    5  C   UNL     1      -4.080   3.410 -32.504  1.00  0.00     0.047 A 
HETATM    6 BR   UNL     1      -4.350   2.203 -31.058  1.00  0.00    -0.048 Br
HETATM    7  C   UNL     1      -2.768   3.751 -32.834  1.00  0.00     0.064 A 
HETATM    8  C   UNL     1      -2.542   4.624 -33.887  1.00  0.00     0.117 A 
HETATM    9  F   UNL     1      -1.287   4.958 -34.209  1.00  0.00    -0.206 F 
HETATM   10  C   UNL     1      -3.599   5.161 -34.610  1.00  0.00     0.045 A 
HETATM   11  C   UNL     1      -4.914   4.821 -34.278  1.00  0.00     0.041 A 
ENDBRANCH   3   4
ENDBRANCH   2   3
BRANCH   2  12
HETATM   12  C   UNL     1      -7.042   1.275 -33.350  1.00  0.00     0.252 C 
HETATM   13  N   UNL     1      -6.287   0.623 -34.307  1.00  0.00    -0.309 N 
HETATM   14  H   UNL     1      -6.012   1.184 -35.106  1.00  0.00     0.170 HD
HETATM   15  O   UNL     1      -7.516   0.794 -32.324  1.00  0.00    -0.270 OA
BRANCH  13  16
HETATM   16  C   UNL     1      -5.899  -0.717 -34.282  1.00  0.00     0.129 A 
HETATM   17  N   UNL     1      -4.718  -1.084 -33.755  1.00  0.00    -0.242 NA
HETATM   18  C   UNL     1      -4.400  -2.401 -33.767  1.00  0.00     0.142 A 
HETATM   19  C   UNL     1      -5.218  -3.385 -34.292  1.00  0.00     0.051 A 
HETATM   20 CL   UNL     1      -4.749  -5.034 -34.275  1.00  0.00    -0.083 Cl
HETATM   21  C   UNL     1      -6.435  -2.999 -34.835  1.00  0.00     0.029 A 
HETATM   22  C   UNL     1      -6.781  -1.646 -34.832  1.00  0.00     0.052 A 
ENDBRANCH  13  16
ENDBRANCH   2  12
TORSDOF 4
ENDMDL
MODEL 4
REMARK VINA RESULT:      -7.1      1.822      2.272
REMARK  4 active torsions:
REMARK  status: ('A' for Active; 'I' for Inactive)
REMARK    1  A    between atoms: C_2  and  O_3 
REMARK    2  A    between atoms: C_2  and  C_12 
REMARK    3  A    between atoms: O_3  and  C_4 
REMARK       I    between atoms: C_12  and  N_13 
REMARK    4  A    between atoms: N_13  and  C_14 
ROOT
HETATM    1  C   UNL     1      -8.232   0.527 -31.963  1.00  0.00     0.050 C 
HETATM    2  C   UNL     1      -6.776   0.081 -31.904  1.00  0.00     0.217 C 
ENDROOT
BRANCH   2   3
HETATM    3  O   UNL     1      -6.286  -0.116 -33.236  1.00  0.00    -0.336 OA
BRANCH   3   4
HETATM    4  C   UNL     1      -6.090  -1.384 -33.709  1.00  0.00     0.087 A 
HETATM    5  C   UNL     1      -4.765  -1.860 -33.699  1.00  0.00     0.047 A 
HETATM    6 BR   UNL     1      -3.343  -0.793 -33.020  1.00  0.00    -0.048 Br
HETATM    7  C   UNL     1      -4.455  -3.133 -34.178  1.00  0.00     0.064 A 
HETATM    8  C   UNL     1      -5.474  -3.934 -34.674  1.00  0.00     0.117 A 
HETATM    9  F   UNL     1      -5.185  -5.156 -35.138  1.00  0.00    -0.206 F 
HETATM   10  C   UNL     1      -6.787  -3.485 -34.701  1.00  0.00     0.045 A 
HETATM   11  C   UNL     1      -7.098  -2.209 -34.222  1.00  0.00     0.041 A 
ENDBRANCH   3   4
ENDBRANCH   2   3
BRANCH   2  12
HETATM   12  C   UNL     1      -5.953   1.190 -31.218  1.00  0.00     0.252 C 
HETATM   13  N   UNL     1      -5.365   2.052 -32.124  1.00  0.00    -0.309 N 
HETATM   14  H   UNL     1      -5.501   1.821 -33.102  1.00  0.00     0.170 HD
HETATM   15  O   UNL     1      -5.893   1.247 -29.993  1.00  0.00    -0.270 OA
BRANCH  13  16
HETATM   16  C   UNL     1      -4.593   3.174 -31.818  1.00  0.00     0.129 A 
HETATM   17  N   UNL     1      -5.173   4.337 -31.475  1.00  0.00    -0.242 NA
HETATM   18  C   UNL     1      -4.367   5.389 -31.195  1.00  0.00     0.142 A 
HETATM   19  C   UNL     1      -2.986   5.334 -31.242  1.00  0.00     0.051 A 
HETATM   20 CL   UNL     1      -2.027   6.708 -30.876  1.00  0.00    -0.083 Cl
HETATM   21  C   UNL     1      -2.394   4.130 -31.597  1.00  0.00     0.029 A 
HETATM   22  C   UNL     1      -3.208   3.034 -31.890  1.00  0.00     0.052 A 
ENDBRANCH  13  16
ENDBRANCH   2  12
TORSDOF 4
ENDMDL
MODEL 5
REMARK VINA RESULT:      -6.9      4.758      6.210
REMARK  4 active torsions:
REMARK  status: ('A' for Active; 'I' for Inactive)
REMARK    1  A    between atoms: C_2  and  O_3 
REMARK    2  A    between atoms: C_2  and  C_12 
REMARK    3  A    between atoms: O_3  and  C_4 
REMARK       I    between atoms: C_12  and  N_13 
REMARK    4  A    between atoms: N_13  and  C_14 
ROOT
HETATM    1  C   UNL     1      -6.379   0.071 -31.031  1.00  0.00     0.050 C 
HETATM    2  C   UNL     1      -5.953   1.235 -31.919  1.00  0.00     0.217 C 
ENDROOT
BRANCH   2   3
HETATM    3  O   UNL     1      -5.007   0.770 -32.889  1.00  0.00    -0.336 OA
BRANCH   3   4
HETATM    4  C   UNL     1      -5.174  -0.456 -33.470  1.00  0.00     0.087 A 
HETATM    5  C   UNL     1      -4.214  -1.436 -33.154  1.00  0.00     0.047 A 
HETATM    6 BR   UNL     1      -2.791  -1.065 -31.947  1.00  0.00    -0.048 Br
HETATM    7  C   UNL     1      -4.282  -2.715 -33.710  1.00  0.00     0.064 A 
HETATM    8  C   UNL     1      -5.313  -3.014 -34.589  1.00  0.00     0.117 A 
HETATM    9  F   UNL     1      -5.384  -4.237 -35.129  1.00  0.00    -0.206 F 
HETATM   10  C   UNL     1      -6.268  -2.063 -34.922  1.00  0.00     0.045 A 
HETATM   11  C   UNL     1      -6.199  -0.782 -34.366  1.00  0.00     0.041 A 
ENDBRANCH   3   4
ENDBRANCH   2   3
BRANCH   2  12
HETATM   12  C   UNL     1      -7.202   1.775 -32.645  1.00  0.00     0.252 C 
HETATM   13  N   UNL     1      -8.374   1.215 -32.174  1.00  0.00    -0.309 N 
HETATM   14  H   UNL     1      -8.264   0.498 -31.465  1.00  0.00     0.170 HD
HETATM   15  O   UNL     1      -7.087   2.627 -33.523  1.00  0.00    -0.270 OA
BRANCH  13  16
HETATM   16  C   UNL     1      -9.667   1.523 -32.599  1.00  0.00     0.129 A 
HETATM   17  N   UNL     1     -10.186   2.747 -32.398  1.00  0.00    -0.242 NA
HETATM   18  C   UNL     1     -11.449   2.979 -32.829  1.00  0.00     0.142 A 
HETATM   19  C   UNL     1     -12.232   2.030 -33.462  1.00  0.00     0.051 A 
HETATM   20 CL   UNL     1     -13.826   2.395 -33.981  1.00  0.00    -0.083 Cl
HETATM   21  C   UNL     1     -11.690   0.769 -33.666  1.00  0.00     0.029 A 
HETATM   22  C   UNL     1     -10.390   0.510 -33.227  1.00  0.00     0.052 A 
ENDBRANCH  13  16
ENDBRANCH   2  12
TORSDOF 4
ENDMDL
MODEL 6
REMARK VINA RESULT:      -6.8      5.474      7.194
REMARK  4 active torsions:
REMARK  status: ('A' for Active; 'I' for Inactive)
REMARK    1  A    between atoms: C_2  and  O_3 
REMARK    2  A    between atoms: C_2  and  C_12 
REMARK    3  A    between atoms: O_3  and  C_4 
REMARK       I    between atoms: C_12  and  N_13 
REMARK    4  A    between atoms: N_13  and  C_14 
ROOT
HETATM    1  C   UNL     1      -7.366   3.377 -32.273  1.00  0.00     0.050 C 
HETATM    2  C   UNL     1      -8.356   2.231 -32.449  1.00  0.00     0.217 C 
ENDROOT
BRANCH   2   3
HETATM    3  O   UNL     1      -8.931   2.298 -33.759  1.00  0.00    -0.336 OA
BRANCH   3   4
HETATM    4  C   UNL     1     -10.269   2.069 -33.928  1.00  0.00     0.087 A 
HETATM    5  C   UNL     1     -11.029   3.140 -34.436  1.00  0.00     0.047 A 
HETATM    6 BR   UNL     1     -10.211   4.795 -34.897  1.00  0.00    -0.048 Br
HETATM    7  C   UNL     1     -12.406   3.016 -34.628  1.00  0.00     0.064 A 
HETATM    8  C   UNL     1     -13.027   1.818 -34.306  1.00  0.00     0.117 A 
HETATM    9  F   UNL     1     -14.347   1.692 -34.484  1.00  0.00    -0.206 F 
HETATM   10  C   UNL     1     -12.300   0.751 -33.796  1.00  0.00     0.045 A 
HETATM   11  C   UNL     1     -10.921   0.875 -33.603  1.00  0.00     0.041 A 
ENDBRANCH   3   4
ENDBRANCH   2   3
BRANCH   2  12
HETATM   12  C   UNL     1      -7.592   0.900 -32.296  1.00  0.00     0.252 C 
HETATM   13  N   UNL     1      -6.944   0.524 -33.457  1.00  0.00    -0.309 N 
HETATM   14  H   UNL     1      -7.092   1.128 -34.258  1.00  0.00     0.170 HD
HETATM   15  O   UNL     1      -7.591   0.309 -31.220  1.00  0.00    -0.270 OA
BRANCH  13  16
HETATM   16  C   UNL     1      -6.142  -0.606 -33.627  1.00  0.00     0.129 A 
HETATM   17  N   UNL     1      -4.907  -0.661 -33.099  1.00  0.00    -0.242 NA
HETATM   18  C   UNL     1      -4.178  -1.784 -33.306  1.00  0.00     0.142 A 
HETATM   19  C   UNL     1      -4.632  -2.873 -34.029  1.00  0.00     0.051 A 
HETATM   20 CL   UNL     1      -3.653  -4.263 -34.252  1.00  0.00    -0.083 Cl
HETATM   21  C   UNL     1      -5.907  -2.809 -34.571  1.00  0.00     0.029 A 
HETATM   22  C   UNL     1      -6.674  -1.659 -34.369  1.00  0.00     0.052 A 
ENDBRANCH  13  16
ENDBRANCH   2  12
TORSDOF 4
ENDMDL
MODEL 7
REMARK VINA RESULT:      -6.7      2.191      2.805
REMARK  4 active torsions:
REMARK  status: ('A' for Active; 'I' for Inactive)
REMARK    1  A    between atoms: C_2  and  O_3 
REMARK    2  A    between atoms: C_2  and  C_12 
REMARK    3  A    between atoms: O_3  and  C_4 
REMARK       I    between atoms: C_12  and  N_13 
REMARK    4  A    between atoms: N_13  and  C_14 
ROOT
HETATM    1  C   UNL     1      -7.121   4.002 -32.700  1.00  0.00     0.050 C 
HETATM    2  C   UNL     1      -6.215   2.850 -32.281  1.00  0.00     0.217 C 
ENDROOT
BRANCH   2   3
HETATM    3  O   UNL     1      -5.643   2.247 -33.447  1.00  0.00    -0.336 OA
BRANCH   3   4
HETATM    4  C   UNL     1      -6.076   1.017 -33.860  1.00  0.00     0.087 A 
HETATM    5  C   UNL     1      -5.274  -0.083 -33.502  1.00  0.00     0.047 A 
HETATM    6 BR   UNL     1      -3.698   0.147 -32.460  1.00  0.00    -0.048 Br
HETATM    7  C   UNL     1      -5.617  -1.379 -33.891  1.00  0.00     0.064 A 
HETATM    8  C   UNL     1      -6.764  -1.575 -34.646  1.00  0.00     0.117 A 
HETATM    9  F   UNL     1      -7.099  -2.814 -35.025  1.00  0.00    -0.206 F 
HETATM   10  C   UNL     1      -7.567  -0.505 -35.018  1.00  0.00     0.045 A 
HETATM   11  C   UNL     1      -7.223   0.793 -34.629  1.00  0.00     0.041 A 
ENDBRANCH   3   4
ENDBRANCH   2   3
BRANCH   2  12
HETATM   12  C   UNL     1      -5.087   3.416 -31.394  1.00  0.00     0.252 C 
HETATM   13  N   UNL     1      -4.246   4.268 -32.085  1.00  0.00    -0.309 N 
HETATM   14  H   UNL     1      -4.441   4.370 -33.075  1.00  0.00     0.170 HD
HETATM   15  O   UNL     1      -5.022   3.110 -30.206  1.00  0.00    -0.270 OA
BRANCH  13  16
HETATM   16  C   UNL     1      -3.160   4.965 -31.555  1.00  0.00     0.129 A 
HETATM   17  N   UNL     1      -3.345   5.994 -30.710  1.00  0.00    -0.242 NA
HETATM   18  C   UNL     1      -2.248   6.632 -30.237  1.00  0.00     0.142 A 
HETATM   19  C   UNL     1      -0.952   6.286 -30.575  1.00  0.00     0.051 A 
HETATM   20 CL   UNL     1       0.392   7.141 -29.937  1.00  0.00    -0.083 Cl
HETATM   21  C   UNL     1      -0.767   5.224 -31.448  1.00  0.00     0.029 A 
HETATM   22  C   UNL     1      -1.886   4.554 -31.947  1.00  0.00     0.052 A 
ENDBRANCH  13  16
ENDBRANCH   2  12
TORSDOF 4
ENDMDL
MODEL 8
REMARK VINA RESULT:      -6.7     15.990     16.948
REMARK  4 active torsions:
REMARK  status: ('A' for Active; 'I' for Inactive)
REMARK    1  A    between atoms: C_2  and  O_3 
REMARK    2  A    between atoms: C_2  and  C_12 
REMARK    3  A    between atoms: O_3  and  C_4 
REMARK       I    between atoms: C_12  and  N_13 
REMARK    4  A    between atoms: N_13  and  C_14 
ROOT
HETATM    1  C   UNL     1      -5.646 -12.930 -41.171  1.00  0.00     0.050 C 
HETATM    2  C   UNL     1      -5.769 -12.469 -39.723  1.00  0.00     0.217 C 
ENDROOT
BRANCH   2   3
HETATM    3  O   UNL     1      -6.727 -13.289 -39.044  1.00  0.00    -0.336 OA
BRANCH   3   4
HETATM    4  C   UNL     1      -8.042 -13.251 -39.416  1.00  0.00     0.087 A 
HETATM    5  C   UNL     1      -8.694 -14.493 -39.545  1.00  0.00     0.047 A 
HETATM    6 BR   UNL     1      -7.785 -16.123 -39.175  1.00  0.00    -0.048 Br
HETATM    7  C   UNL     1     -10.031 -14.565 -39.938  1.00  0.00     0.064 A 
HETATM    8  C   UNL     1     -10.719 -13.392 -40.209  1.00  0.00     0.117 A 
HETATM    9  F   UNL     1     -12.001 -13.452 -40.589  1.00  0.00    -0.206 F 
HETATM   10  C   UNL     1     -10.096 -12.155 -40.095  1.00  0.00     0.045 A 
HETATM   11  C   UNL     1      -8.757 -12.083 -39.702  1.00  0.00     0.041 A 
ENDBRANCH   3   4
ENDBRANCH   2   3
BRANCH   2  12
HETATM   12  C   UNL     1      -4.393 -12.625 -39.045  1.00  0.00     0.252 C 
HETATM   13  N   UNL     1      -3.636 -13.637 -39.605  1.00  0.00    -0.309 N 
HETATM   14  H   UNL     1      -4.090 -14.171 -40.338  1.00  0.00     0.170 HD
HETATM   15  O   UNL     1      -4.070 -11.878 -38.125  1.00  0.00    -0.270 OA
BRANCH  13  16
HETATM   16  C   UNL     1      -2.339 -13.998 -39.239  1.00  0.00     0.129 A 
HETATM   17  N   UNL     1      -2.064 -14.411 -37.990  1.00  0.00    -0.242 NA
HETATM   18  C   UNL     1      -0.783 -14.742 -37.698  1.00  0.00     0.142 A 
HETATM   19  C   UNL     1       0.254 -14.677 -38.611  1.00  0.00     0.051 A 
HETATM   20 CL   UNL     1       1.854 -15.111 -38.171  1.00  0.00    -0.083 Cl
HETATM   21  C   UNL     1      -0.036 -14.250 -39.899  1.00  0.00     0.029 A 
HETATM   22  C   UNL     1      -1.351 -13.904 -40.218  1.00  0.00     0.052 A 
ENDBRANCH  13  16
ENDBRANCH   2  12
TORSDOF 4
ENDMDL
MODEL 9
REMARK VINA RESULT:      -6.5      1.856      1.955
REMARK  4 active torsions:
REMARK  status: ('A' for Active; 'I' for Inactive)
REMARK    1  A    between atoms: C_2  and  O_3 
REMARK    2  A    between atoms: C_2  and  C_12 
REMARK    3  A    between atoms: O_3  and  C_4 
REMARK       I    between atoms: C_12  and  N_13 
REMARK    4  A    between atoms: N_13  and  C_14 
ROOT
HETATM    1  C   UNL     1      -5.550   0.316 -30.591  1.00  0.00     0.050 C 
HETATM    2  C   UNL     1      -4.530   0.595 -31.689  1.00  0.00     0.217 C 
ENDROOT
BRANCH   2   3
HETATM    3  O   UNL     1      -5.170   0.497 -32.966  1.00  0.00    -0.336 OA
BRANCH   3   4
HETATM    4  C   UNL     1      -5.274  -0.718 -33.585  1.00  0.00     0.087 A 
HETATM    5  C   UNL     1      -6.479  -0.975 -34.266  1.00  0.00     0.047 A 
HETATM    6 BR   UNL     1      -7.861   0.331 -34.343  1.00  0.00    -0.048 Br
HETATM    7  C   UNL     1      -6.694  -2.192 -34.913  1.00  0.00     0.064 A 
HETATM    8  C   UNL     1      -5.701  -3.159 -34.877  1.00  0.00     0.117 A 
HETATM    9  F   UNL     1      -5.899  -4.331 -35.494  1.00  0.00    -0.206 F 
HETATM   10  C   UNL     1      -4.506  -2.933 -34.207  1.00  0.00     0.045 A 
HETATM   11  C   UNL     1      -4.291  -1.714 -33.557  1.00  0.00     0.041 A 
ENDBRANCH   3   4
ENDBRANCH   2   3
BRANCH   2  12
HETATM   12  C   UNL     1      -3.990   2.027 -31.499  1.00  0.00     0.252 C 
HETATM   13  N   UNL     1      -4.950   2.992 -31.735  1.00  0.00    -0.309 N 
HETATM   14  H   UNL     1      -5.852   2.648 -32.047  1.00  0.00     0.170 HD
HETATM   15  O   UNL     1      -2.825   2.207 -31.154  1.00  0.00    -0.270 OA
BRANCH  13  16
HETATM   16  C   UNL     1      -4.784   4.372 -31.610  1.00  0.00     0.129 A 
HETATM   17  N   UNL     1      -4.290   5.103 -32.625  1.00  0.00    -0.242 NA
HETATM   18  C   UNL     1      -4.148   6.437 -32.437  1.00  0.00     0.142 A 
HETATM   19  C   UNL     1      -4.481   7.087 -31.262  1.00  0.00     0.051 A 
HETATM   20 CL   UNL     1      -4.273   8.781 -31.094  1.00  0.00    -0.083 Cl
HETATM   21  C   UNL     1      -4.989   6.327 -30.218  1.00  0.00     0.029 A 
HETATM   22  C   UNL     1      -5.143   4.950 -30.393  1.00  0.00     0.052 A 
ENDBRANCH  13  16
ENDBRANCH   2  12
TORSDOF 4
ENDMDL
MODEL 10
REMARK VINA RESULT:      -6.4      2.883      3.694
REMARK  4 active torsions:
REMARK  status: ('A' for Active; 'I' for Inactive)
REMARK    1  A    between atoms: C_2  and  O_3 
REMARK    2  A    between atoms: C_2  and  C_12 
REMARK    3  A    between atoms: O_3  and  C_4 
REMARK       I    between atoms: C_12  and  N_13 
REMARK    4  A    between atoms: N_13  and  C_14 
ROOT
HETATM    1  C   UNL     1      -3.955  -1.138 -32.234  1.00  0.00     0.050 C 
HETATM    2  C   UNL     1      -4.674   0.203 -32.326  1.00  0.00     0.217 C 
ENDROOT
BRANCH   2   3
HETATM    3  O   UNL     1      -5.779   0.211 -31.416  1.00  0.00    -0.336 OA
BRANCH   3   4
HETATM    4  C   UNL     1      -7.044   0.445 -31.881  1.00  0.00     0.087 A 
HETATM    5  C   UNL     1      -7.718   1.554 -31.335  1.00  0.00     0.047 A 
HETATM    6 BR   UNL     1      -6.880   2.678 -30.049  1.00  0.00    -0.048 Br
HETATM    7  C   UNL     1      -9.020   1.867 -31.727  1.00  0.00     0.064 A 
HETATM    8  C   UNL     1      -9.653   1.067 -32.667  1.00  0.00     0.117 A 
HETATM    9  F   UNL     1     -10.902   1.360 -33.048  1.00  0.00    -0.206 F 
HETATM   10  C   UNL     1      -9.011  -0.035 -33.216  1.00  0.00     0.045 A 
HETATM   11  C   UNL     1      -7.708  -0.351 -32.822  1.00  0.00     0.041 A 
ENDBRANCH   3   4
ENDBRANCH   2   3
BRANCH   2  12
HETATM   12  C   UNL     1      -3.681   1.315 -31.933  1.00  0.00     0.252 C 
HETATM   13  N   UNL     1      -3.919   2.500 -32.604  1.00  0.00    -0.309 N 
HETATM   14  H   UNL     1      -4.664   2.474 -33.292  1.00  0.00     0.170 HD
HETATM   15  O   UNL     1      -2.813   1.100 -31.092  1.00  0.00    -0.270 OA
BRANCH  13  16
HETATM   16  C   UNL     1      -3.220   3.697 -32.441  1.00  0.00     0.129 A 
HETATM   17  N   UNL     1      -2.264   4.062 -33.313  1.00  0.00    -0.242 NA
HETATM   18  C   UNL     1      -1.620   5.233 -33.094  1.00  0.00     0.142 A 
HETATM   19  C   UNL     1      -1.889   6.071 -32.027  1.00  0.00     0.051 A 
HETATM   20 CL   UNL     1      -1.031   7.540 -31.812  1.00  0.00    -0.083 Cl
HETATM   21  C   UNL     1      -2.877   5.688 -31.131  1.00  0.00     0.029 A 
HETATM   22  C   UNL     1      -3.552   4.484 -31.340  1.00  0.00     0.052 A 
ENDBRANCH  13  16
ENDBRANCH   2  12
TORSDOF 4
ENDMDL
