MODEL 1
REMARK VINA RESULT:      -8.6      0.000      0.000
REMARK  5 active torsions:
REMARK  status: ('A' for Active; 'I' for Inactive)
REMARK    1  A    between atoms: C_2  and  O_3 
REMARK    2  A    between atoms: C_2  and  C_4 
REMARK    3  A    between atoms: C_4  and  N_5 
REMARK       I    between atoms: N_5  and  C_6 
REMARK    4  A    between atoms: C_6  and  C_7 
REMARK    5  A    between atoms: C_15  and  C_16 
ROOT
HETATM    1  C   UNL     1      -4.059   2.778 -31.953  1.00  0.00     0.046 A 
HETATM    2  C   UNL     1      -5.123   3.215 -31.134  1.00  0.00     0.008 A 
HETATM    3  C   UNL     1      -6.247   2.370 -31.082  1.00  0.00     0.068 A 
HETATM    4  C   UNL     1      -7.327   2.736 -30.289  1.00  0.00     0.032 A 
HETATM    5  C   UNL     1      -7.330   3.914 -29.541  1.00  0.00     0.002 A 
HETATM    6  C   UNL     1      -6.229   4.755 -29.581  1.00  0.00     0.001 A 
HETATM    7  C   UNL     1      -5.132   4.410 -30.369  1.00  0.00     0.015 A 
HETATM    8  N   UNL     1      -6.326   1.213 -31.763  1.00  0.00    -0.248 NA
HETATM    9  C   UNL     1      -5.296   0.816 -32.547  1.00  0.00     0.068 A 
HETATM   10  C   UNL     1      -4.149   1.581 -32.670  1.00  0.00     0.050 A 
ENDROOT
BRANCH   1  11
HETATM   11  C   UNL     1      -2.818   3.575 -32.112  1.00  0.00     0.252 C 
HETATM   12  N   UNL     1      -2.671   4.194 -33.335  1.00  0.00    -0.354 N 
HETATM   13  H   UNL     1      -3.321   4.002 -34.087  1.00  0.00     0.162 HD
HETATM   14  O   UNL     1      -1.996   3.659 -31.210  1.00  0.00    -0.268 OA
BRANCH  12  15
HETATM   15  C   UNL     1      -1.515   5.028 -33.633  1.00  0.00     0.154 C 
BRANCH  15  16
HETATM   16  C   UNL     1      -1.914   6.367 -34.270  1.00  0.00     0.132 C 
HETATM   17  C   UNL     1      -1.977   7.473 -33.228  1.00  0.00     0.041 C 
BRANCH  16  18
HETATM   18  O   UNL     1      -3.211   6.242 -34.863  1.00  0.00    -0.394 OA
HETATM   19  H   UNL     1      -3.073   6.334 -35.822  1.00  0.00     0.210 HD
ENDBRANCH  16  18
ENDBRANCH  15  16
ENDBRANCH  12  15
ENDBRANCH   1  11
BRANCH   9  20
HETATM   20  C   UNL     1      -5.490  -0.466 -33.257  1.00  0.00    -0.007 A 
HETATM   21  C   UNL     1      -6.775  -0.865 -33.676  1.00  0.00     0.015 A 
HETATM   22  C   UNL     1      -6.982  -2.073 -34.352  1.00  0.00     0.024 A 
HETATM   23  C   UNL     1      -5.903  -2.908 -34.616  1.00  0.00     0.034 A 
HETATM   24 CL   UNL     1      -6.150  -4.394 -35.445  1.00  0.00    -0.084 Cl
HETATM   25  C   UNL     1      -4.623  -2.548 -34.208  1.00  0.00     0.024 A 
HETATM   26  C   UNL     1      -4.420  -1.338 -33.533  1.00  0.00     0.015 A 
ENDBRANCH   9  20
TORSDOF 5
ENDMDL
MODEL 2
REMARK VINA RESULT:      -8.2      4.368      6.490
REMARK  5 active torsions:
REMARK  status: ('A' for Active; 'I' for Inactive)
REMARK    1  A    between atoms: C_2  and  O_3 
REMARK    2  A    between atoms: C_2  and  C_4 
REMARK    3  A    between atoms: C_4  and  N_5 
REMARK       I    between atoms: N_5  and  C_6 
REMARK    4  A    between atoms: C_6  and  C_7 
REMARK    5  A    between atoms: C_15  and  C_16 
ROOT
HETATM    1  C   UNL     1      -9.027   1.544 -32.933  1.00  0.00     0.046 A 
HETATM    2  C   UNL     1      -8.584   2.275 -31.809  1.00  0.00     0.008 A 
HETATM    3  C   UNL     1      -7.371   1.848 -31.237  1.00  0.00     0.068 A 
HETATM    4  C   UNL     1      -6.873   2.527 -30.133  1.00  0.00     0.032 A 
HETATM    5  C   UNL     1      -7.537   3.621 -29.576  1.00  0.00     0.002 A 
HETATM    6  C   UNL     1      -8.731   4.054 -30.131  1.00  0.00     0.001 A 
HETATM    7  C   UNL     1      -9.252   3.390 -31.240  1.00  0.00     0.015 A 
HETATM    8  N   UNL     1      -6.662   0.810 -31.714  1.00  0.00    -0.248 NA
HETATM    9  C   UNL     1      -7.109   0.120 -32.790  1.00  0.00     0.068 A 
HETATM   10  C   UNL     1      -8.294   0.457 -33.420  1.00  0.00     0.050 A 
ENDROOT
BRANCH   1  11
HETATM   11  C   UNL     1     -10.296   1.876 -33.629  1.00  0.00     0.252 C 
HETATM   12  N   UNL     1     -11.434   1.350 -33.056  1.00  0.00    -0.354 N 
HETATM   13  H   UNL     1     -11.363   0.694 -32.288  1.00  0.00     0.162 HD
HETATM   14  O   UNL     1     -10.305   2.564 -34.640  1.00  0.00    -0.268 OA
BRANCH  12  15
HETATM   15  C   UNL     1     -12.755   1.605 -33.612  1.00  0.00     0.154 C 
BRANCH  15  16
HETATM   16  C   UNL     1     -13.426   0.323 -34.125  1.00  0.00     0.132 C 
HETATM   17  C   UNL     1     -14.925   0.519 -34.293  1.00  0.00     0.041 C 
BRANCH  16  18
HETATM   18  O   UNL     1     -13.219  -0.732 -33.180  1.00  0.00    -0.394 OA
HETATM   19  H   UNL     1     -13.537  -0.389 -32.327  1.00  0.00     0.210 HD
ENDBRANCH  16  18
ENDBRANCH  15  16
ENDBRANCH  12  15
ENDBRANCH   1  11
BRANCH   9  20
HETATM   20  C   UNL     1      -6.257  -1.007 -33.225  1.00  0.00    -0.007 A 
HETATM   21  C   UNL     1      -6.734  -1.946 -34.160  1.00  0.00     0.015 A 
HETATM   22  C   UNL     1      -5.944  -3.019 -34.589  1.00  0.00     0.024 A 
HETATM   23  C   UNL     1      -4.659  -3.174 -34.082  1.00  0.00     0.034 A 
HETATM   24 CL   UNL     1      -3.684  -4.490 -34.604  1.00  0.00    -0.084 Cl
HETATM   25  C   UNL     1      -4.161  -2.268 -33.151  1.00  0.00     0.024 A 
HETATM   26  C   UNL     1      -4.954  -1.196 -32.726  1.00  0.00     0.015 A 
ENDBRANCH   9  20
TORSDOF 5
ENDMDL
MODEL 3
REMARK VINA RESULT:      -8.1      3.451      5.741
REMARK  5 active torsions:
REMARK  status: ('A' for Active; 'I' for Inactive)
REMARK    1  A    between atoms: C_2  and  O_3 
REMARK    2  A    between atoms: C_2  and  C_4 
REMARK    3  A    between atoms: C_4  and  N_5 
REMARK       I    between atoms: N_5  and  C_6 
REMARK    4  A    between atoms: C_6  and  C_7 
REMARK    5  A    between atoms: C_15  and  C_16 
ROOT
HETATM    1  C   UNL     1      -5.734   0.070 -32.565  1.00  0.00     0.046 A 
HETATM    2  C   UNL     1      -5.520  -1.148 -33.247  1.00  0.00     0.008 A 
HETATM    3  C   UNL     1      -6.588  -1.606 -34.040  1.00  0.00     0.068 A 
HETATM    4  C   UNL     1      -6.442  -2.794 -34.744  1.00  0.00     0.032 A 
HETATM    5  C   UNL     1      -5.267  -3.546 -34.690  1.00  0.00     0.002 A 
HETATM    6  C   UNL     1      -4.206  -3.106 -33.914  1.00  0.00     0.001 A 
HETATM    7  C   UNL     1      -4.328  -1.916 -33.199  1.00  0.00     0.015 A 
HETATM    8  N   UNL     1      -7.751  -0.941 -34.157  1.00  0.00    -0.248 NA
HETATM    9  C   UNL     1      -7.937   0.222 -33.489  1.00  0.00     0.068 A 
HETATM   10  C   UNL     1      -6.950   0.753 -32.678  1.00  0.00     0.050 A 
ENDROOT
BRANCH   1  11
HETATM   11  C   UNL     1      -4.699   0.664 -31.683  1.00  0.00     0.252 C 
HETATM   12  N   UNL     1      -4.145   1.841 -32.140  1.00  0.00    -0.354 N 
HETATM   13  H   UNL     1      -4.365   2.184 -33.066  1.00  0.00     0.162 HD
HETATM   14  O   UNL     1      -4.374   0.126 -30.634  1.00  0.00    -0.268 OA
BRANCH  12  15
HETATM   15  C   UNL     1      -3.132   2.553 -31.374  1.00  0.00     0.154 C 
BRANCH  15  16
HETATM   16  C   UNL     1      -3.049   4.037 -31.760  1.00  0.00     0.132 C 
HETATM   17  C   UNL     1      -2.405   4.213 -33.126  1.00  0.00     0.041 C 
BRANCH  16  18
HETATM   18  O   UNL     1      -2.249   4.732 -30.799  1.00  0.00    -0.394 OA
HETATM   19  H   UNL     1      -2.877   5.168 -30.196  1.00  0.00     0.210 HD
ENDBRANCH  16  18
ENDBRANCH  15  16
ENDBRANCH  12  15
ENDBRANCH   1  11
BRANCH   9  20
HETATM   20  C   UNL     1      -9.255   0.865 -33.681  1.00  0.00    -0.007 A 
HETATM   21  C   UNL     1      -9.352   2.129 -34.296  1.00  0.00     0.015 A 
HETATM   22  C   UNL     1     -10.589   2.755 -34.491  1.00  0.00     0.024 A 
HETATM   23  C   UNL     1     -11.753   2.127 -34.065  1.00  0.00     0.034 A 
HETATM   24 CL   UNL     1     -13.276   2.891 -34.301  1.00  0.00    -0.084 Cl
HETATM   25  C   UNL     1     -11.691   0.882 -33.447  1.00  0.00     0.024 A 
HETATM   26  C   UNL     1     -10.452   0.259 -33.255  1.00  0.00     0.015 A 
ENDBRANCH   9  20
TORSDOF 5
ENDMDL
MODEL 4
REMARK VINA RESULT:      -8.0      4.113      6.571
REMARK  5 active torsions:
REMARK  status: ('A' for Active; 'I' for Inactive)
REMARK    1  A    between atoms: C_2  and  O_3 
REMARK    2  A    between atoms: C_2  and  C_4 
REMARK    3  A    between atoms: C_4  and  N_5 
REMARK       I    between atoms: N_5  and  C_6 
REMARK    4  A    between atoms: C_6  and  C_7 
REMARK    5  A    between atoms: C_15  and  C_16 
ROOT
HETATM    1  C   UNL     1      -5.800   0.066 -32.962  1.00  0.00     0.046 A 
HETATM    2  C   UNL     1      -5.164   1.301 -32.713  1.00  0.00     0.008 A 
HETATM    3  C   UNL     1      -5.989   2.440 -32.767  1.00  0.00     0.068 A 
HETATM    4  C   UNL     1      -5.430   3.688 -32.524  1.00  0.00     0.032 A 
HETATM    5  C   UNL     1      -4.076   3.847 -32.226  1.00  0.00     0.002 A 
HETATM    6  C   UNL     1      -3.252   2.733 -32.167  1.00  0.00     0.001 A 
HETATM    7  C   UNL     1      -3.789   1.470 -32.406  1.00  0.00     0.015 A 
HETATM    8  N   UNL     1      -7.305   2.379 -33.037  1.00  0.00    -0.248 NA
HETATM    9  C   UNL     1      -7.893   1.183 -33.279  1.00  0.00     0.068 A 
HETATM   10  C   UNL     1      -7.165   0.006 -33.256  1.00  0.00     0.050 A 
ENDROOT
BRANCH   1  11
HETATM   11  C   UNL     1      -5.049  -1.215 -32.950  1.00  0.00     0.252 C 
HETATM   12  N   UNL     1      -5.162  -1.971 -34.097  1.00  0.00    -0.354 N 
HETATM   13  H   UNL     1      -5.811  -1.701 -34.826  1.00  0.00     0.162 HD
HETATM   14  O   UNL     1      -4.389  -1.555 -31.979  1.00  0.00    -0.268 OA
BRANCH  12  15
HETATM   15  C   UNL     1      -4.467  -3.242 -34.243  1.00  0.00     0.154 C 
BRANCH  15  16
HETATM   16  C   UNL     1      -5.306  -4.279 -35.004  1.00  0.00     0.132 C 
HETATM   17  C   UNL     1      -6.789  -4.096 -34.724  1.00  0.00     0.041 C 
BRANCH  16  18
HETATM   18  O   UNL     1      -4.932  -5.594 -34.580  1.00  0.00    -0.394 OA
HETATM   19  H   UNL     1      -4.171  -5.844 -35.133  1.00  0.00     0.210 HD
ENDBRANCH  16  18
ENDBRANCH  15  16
ENDBRANCH  12  15
ENDBRANCH   1  11
BRANCH   9  20
HETATM   20  C   UNL     1      -9.341   1.231 -33.575  1.00  0.00    -0.007 A 
HETATM   21  C   UNL     1     -10.202   0.222 -33.101  1.00  0.00     0.015 A 
HETATM   22  C   UNL     1     -11.576   0.248 -33.366  1.00  0.00     0.024 A 
HETATM   23  C   UNL     1     -12.112   1.287 -34.119  1.00  0.00     0.034 A 
HETATM   24 CL   UNL     1     -13.799   1.325 -34.449  1.00  0.00    -0.084 Cl
HETATM   25  C   UNL     1     -11.288   2.294 -34.609  1.00  0.00     0.024 A 
HETATM   26  C   UNL     1      -9.914   2.264 -34.340  1.00  0.00     0.015 A 
ENDBRANCH   9  20
TORSDOF 5
ENDMDL
MODEL 5
REMARK VINA RESULT:      -8.0      1.577      2.099
REMARK  5 active torsions:
REMARK  status: ('A' for Active; 'I' for Inactive)
REMARK    1  A    between atoms: C_2  and  O_3 
REMARK    2  A    between atoms: C_2  and  C_4 
REMARK    3  A    between atoms: C_4  and  N_5 
REMARK       I    between atoms: N_5  and  C_6 
REMARK    4  A    between atoms: C_6  and  C_7 
REMARK    5  A    between atoms: C_15  and  C_16 
ROOT
HETATM    1  C   UNL     1      -4.124   3.134 -32.019  1.00  0.00     0.046 A 
HETATM    2  C   UNL     1      -5.148   3.501 -31.118  1.00  0.00     0.008 A 
HETATM    3  C   UNL     1      -6.203   2.579 -30.978  1.00  0.00     0.068 A 
HETATM    4  C   UNL     1      -7.240   2.873 -30.102  1.00  0.00     0.032 A 
HETATM    5  C   UNL     1      -7.266   4.052 -29.355  1.00  0.00     0.002 A 
HETATM    6  C   UNL     1      -6.232   4.967 -29.482  1.00  0.00     0.001 A 
HETATM    7  C   UNL     1      -5.180   4.695 -30.354  1.00  0.00     0.015 A 
HETATM    8  N   UNL     1      -6.254   1.416 -31.651  1.00  0.00    -0.248 NA
HETATM    9  C   UNL     1      -5.264   1.088 -32.514  1.00  0.00     0.068 A 
HETATM   10  C   UNL     1      -4.186   1.930 -32.727  1.00  0.00     0.050 A 
ENDROOT
BRANCH   1  11
HETATM   11  C   UNL     1      -2.957   4.015 -32.275  1.00  0.00     0.252 C 
HETATM   12  N   UNL     1      -2.079   4.145 -31.220  1.00  0.00    -0.354 N 
HETATM   13  H   UNL     1      -2.304   3.751 -30.315  1.00  0.00     0.162 HD
HETATM   14  O   UNL     1      -2.810   4.578 -33.350  1.00  0.00    -0.268 OA
BRANCH  12  15
HETATM   15  C   UNL     1      -0.876   4.959 -31.326  1.00  0.00     0.154 C 
BRANCH  15  16
HETATM   16  C   UNL     1      -0.208   5.188 -29.963  1.00  0.00     0.132 C 
HETATM   17  C   UNL     1       0.505   6.531 -29.921  1.00  0.00     0.041 C 
BRANCH  16  18
HETATM   18  O   UNL     1       0.763   4.162 -29.733  1.00  0.00    -0.394 OA
HETATM   19  H   UNL     1       0.806   4.051 -28.767  1.00  0.00     0.210 HD
ENDBRANCH  16  18
ENDBRANCH  15  16
ENDBRANCH  12  15
ENDBRANCH   1  11
BRANCH   9  20
HETATM   20  C   UNL     1      -5.424  -0.208 -33.207  1.00  0.00    -0.007 A 
HETATM   21  C   UNL     1      -6.626  -0.522 -33.871  1.00  0.00     0.015 A 
HETATM   22  C   UNL     1      -6.799  -1.741 -34.536  1.00  0.00     0.024 A 
HETATM   23  C   UNL     1      -5.769  -2.674 -34.542  1.00  0.00     0.034 A 
HETATM   24 CL   UNL     1      -5.975  -4.174 -35.356  1.00  0.00    -0.084 Cl
HETATM   25  C   UNL     1      -4.572  -2.399 -33.889  1.00  0.00     0.024 A 
HETATM   26  C   UNL     1      -4.403  -1.177 -33.226  1.00  0.00     0.015 A 
ENDBRANCH   9  20
TORSDOF 5
ENDMDL
MODEL 6
REMARK VINA RESULT:      -8.0      3.972      7.279
REMARK  5 active torsions:
REMARK  status: ('A' for Active; 'I' for Inactive)
REMARK    1  A    between atoms: C_2  and  O_3 
REMARK    2  A    between atoms: C_2  and  C_4 
REMARK    3  A    between atoms: C_4  and  N_5 
REMARK       I    between atoms: N_5  and  C_6 
REMARK    4  A    between atoms: C_6  and  C_7 
REMARK    5  A    between atoms: C_15  and  C_16 
ROOT
HETATM    1  C   UNL     1      -4.697   0.022 -32.853  1.00  0.00     0.046 A 
HETATM    2  C   UNL     1      -6.053   0.394 -32.976  1.00  0.00     0.008 A 
HETATM    3  C   UNL     1      -6.316   1.777 -32.955  1.00  0.00     0.068 A 
HETATM    4  C   UNL     1      -7.628   2.214 -33.078  1.00  0.00     0.032 A 
HETATM    5  C   UNL     1      -8.694   1.324 -33.225  1.00  0.00     0.002 A 
HETATM    6  C   UNL     1      -8.449  -0.040 -33.251  1.00  0.00     0.001 A 
HETATM    7  C   UNL     1      -7.141  -0.504 -33.129  1.00  0.00     0.015 A 
HETATM    8  N   UNL     1      -5.350   2.704 -32.826  1.00  0.00    -0.248 NA
HETATM    9  C   UNL     1      -4.057   2.323 -32.703  1.00  0.00     0.068 A 
HETATM   10  C   UNL     1      -3.696   0.987 -32.706  1.00  0.00     0.050 A 
ENDROOT
BRANCH   1  11
HETATM   11  C   UNL     1      -4.276  -1.402 -32.848  1.00  0.00     0.252 C 
HETATM   12  N   UNL     1      -4.484  -2.079 -34.031  1.00  0.00    -0.354 N 
HETATM   13  H   UNL     1      -4.995  -1.642 -34.787  1.00  0.00     0.162 HD
HETATM   14  O   UNL     1      -3.788  -1.916 -31.852  1.00  0.00    -0.268 OA
BRANCH  12  15
HETATM   15  C   UNL     1      -4.103  -3.476 -34.186  1.00  0.00     0.154 C 
BRANCH  15  16
HETATM   16  C   UNL     1      -5.132  -4.271 -35.002  1.00  0.00     0.132 C 
HETATM   17  C   UNL     1      -6.548  -3.801 -34.706  1.00  0.00     0.041 C 
BRANCH  16  18
HETATM   18  O   UNL     1      -5.043  -5.657 -34.655  1.00  0.00    -0.394 OA
HETATM   19  H   UNL     1      -4.711  -6.108 -35.451  1.00  0.00     0.210 HD
ENDBRANCH  16  18
ENDBRANCH  15  16
ENDBRANCH  12  15
ENDBRANCH   1  11
BRANCH   9  20
HETATM   20  C   UNL     1      -3.078   3.422 -32.558  1.00  0.00    -0.007 A 
HETATM   21  C   UNL     1      -2.629   3.817 -31.283  1.00  0.00     0.015 A 
HETATM   22  C   UNL     1      -1.701   4.853 -31.122  1.00  0.00     0.024 A 
HETATM   23  C   UNL     1      -1.209   5.517 -32.240  1.00  0.00     0.034 A 
HETATM   24 CL   UNL     1      -0.070   6.790 -32.050  1.00  0.00    -0.084 Cl
HETATM   25  C   UNL     1      -1.639   5.157 -33.513  1.00  0.00     0.024 A 
HETATM   26  C   UNL     1      -2.567   4.119 -33.669  1.00  0.00     0.015 A 
ENDBRANCH   9  20
TORSDOF 5
ENDMDL
MODEL 7
REMARK VINA RESULT:      -7.8      2.342      2.757
REMARK  5 active torsions:
REMARK  status: ('A' for Active; 'I' for Inactive)
REMARK    1  A    between atoms: C_2  and  O_3 
REMARK    2  A    between atoms: C_2  and  C_4 
REMARK    3  A    between atoms: C_4  and  N_5 
REMARK       I    between atoms: N_5  and  C_6 
REMARK    4  A    between atoms: C_6  and  C_7 
REMARK    5  A    between atoms: C_15  and  C_16 
ROOT
HETATM    1  C   UNL     1      -5.991   2.821 -33.106  1.00  0.00     0.046 A 
HETATM    2  C   UNL     1      -7.301   3.190 -33.478  1.00  0.00     0.008 A 
HETATM    3  C   UNL     1      -8.106   2.160 -34.000  1.00  0.00     0.068 A 
HETATM    4  C   UNL     1      -9.410   2.452 -34.380  1.00  0.00     0.032 A 
HETATM    5  C   UNL     1      -9.946   3.735 -34.258  1.00  0.00     0.002 A 
HETATM    6  C   UNL     1      -9.165   4.759 -33.744  1.00  0.00     0.001 A 
HETATM    7  C   UNL     1      -7.854   4.491 -33.355  1.00  0.00     0.015 A 
HETATM    8  N   UNL     1      -7.675   0.895 -34.143  1.00  0.00    -0.248 NA
HETATM    9  C   UNL     1      -6.411   0.564 -33.785  1.00  0.00     0.068 A 
HETATM   10  C   UNL     1      -5.540   1.507 -33.268  1.00  0.00     0.050 A 
ENDROOT
BRANCH   1  11
HETATM   11  C   UNL     1      -5.029   3.807 -32.553  1.00  0.00     0.252 C 
HETATM   12  N   UNL     1      -3.957   4.100 -33.369  1.00  0.00    -0.354 N 
HETATM   13  H   UNL     1      -3.805   3.576 -34.222  1.00  0.00     0.162 HD
HETATM   14  O   UNL     1      -5.194   4.307 -31.450  1.00  0.00    -0.268 OA
BRANCH  12  15
HETATM   15  C   UNL     1      -2.940   5.065 -32.974  1.00  0.00     0.154 C 
BRANCH  15  16
HETATM   16  C   UNL     1      -2.275   5.735 -34.184  1.00  0.00     0.132 C 
HETATM   17  C   UNL     1      -1.433   6.927 -33.757  1.00  0.00     0.041 C 
BRANCH  16  18
HETATM   18  O   UNL     1      -3.287   6.205 -35.081  1.00  0.00    -0.394 OA
HETATM   19  H   UNL     1      -3.095   5.786 -35.939  1.00  0.00     0.210 HD
ENDBRANCH  16  18
ENDBRANCH  15  16
ENDBRANCH  12  15
ENDBRANCH   1  11
BRANCH   9  20
HETATM   20  C   UNL     1      -6.037  -0.851 -33.993  1.00  0.00    -0.007 A 
HETATM   21  C   UNL     1      -4.759  -1.316 -33.626  1.00  0.00     0.015 A 
HETATM   22  C   UNL     1      -4.385  -2.652 -33.811  1.00  0.00     0.024 A 
HETATM   23  C   UNL     1      -5.285  -3.547 -34.375  1.00  0.00     0.034 A 
HETATM   24 CL   UNL     1      -4.832  -5.190 -34.606  1.00  0.00    -0.084 Cl
HETATM   25  C   UNL     1      -6.553  -3.119 -34.756  1.00  0.00     0.024 A 
HETATM   26  C   UNL     1      -6.924  -1.782 -34.568  1.00  0.00     0.015 A 
ENDBRANCH   9  20
TORSDOF 5
ENDMDL
MODEL 8
REMARK VINA RESULT:      -7.7      3.333      4.670
REMARK  5 active torsions:
REMARK  status: ('A' for Active; 'I' for Inactive)
REMARK    1  A    between atoms: C_2  and  O_3 
REMARK    2  A    between atoms: C_2  and  C_4 
REMARK    3  A    between atoms: C_4  and  N_5 
REMARK       I    between atoms: N_5  and  C_6 
REMARK    4  A    between atoms: C_6  and  C_7 
REMARK    5  A    between atoms: C_15  and  C_16 
ROOT
HETATM    1  C   UNL     1      -5.533   2.408 -32.655  1.00  0.00     0.046 A 
HETATM    2  C   UNL     1      -4.942   1.126 -32.636  1.00  0.00     0.008 A 
HETATM    3  C   UNL     1      -5.798   0.050 -32.937  1.00  0.00     0.068 A 
HETATM    4  C   UNL     1      -5.281  -1.239 -32.943  1.00  0.00     0.032 A 
HETATM    5  C   UNL     1      -3.938  -1.499 -32.663  1.00  0.00     0.002 A 
HETATM    6  C   UNL     1      -3.084  -0.449 -32.368  1.00  0.00     0.001 A 
HETATM    7  C   UNL     1      -3.578   0.854 -32.356  1.00  0.00     0.015 A 
HETATM    8  N   UNL     1      -7.101   0.209 -33.227  1.00  0.00    -0.248 NA
HETATM    9  C   UNL     1      -7.648   1.448 -33.233  1.00  0.00     0.068 A 
HETATM   10  C   UNL     1      -6.891   2.570 -32.944  1.00  0.00     0.050 A 
ENDROOT
BRANCH   1  11
HETATM   11  C   UNL     1      -4.752   3.632 -32.345  1.00  0.00     0.252 C 
HETATM   12  N   UNL     1      -4.296   4.330 -33.443  1.00  0.00    -0.354 N 
HETATM   13  H   UNL     1      -4.402   3.946 -34.374  1.00  0.00     0.162 HD
HETATM   14  O   UNL     1      -4.537   3.972 -31.191  1.00  0.00    -0.268 OA
BRANCH  12  15
HETATM   15  C   UNL     1      -3.533   5.562 -33.300  1.00  0.00     0.154 C 
BRANCH  15  16
HETATM   16  C   UNL     1      -2.807   5.950 -34.595  1.00  0.00     0.132 C 
HETATM   17  C   UNL     1      -1.681   4.976 -34.905  1.00  0.00     0.041 C 
BRANCH  16  18
HETATM   18  O   UNL     1      -2.239   7.255 -34.447  1.00  0.00    -0.394 OA
HETATM   19  H   UNL     1      -1.294   7.158 -34.662  1.00  0.00     0.210 HD
ENDBRANCH  16  18
ENDBRANCH  15  16
ENDBRANCH  12  15
ENDBRANCH   1  11
BRANCH   9  20
HETATM   20  C   UNL     1      -9.090   1.509 -33.556  1.00  0.00    -0.007 A 
HETATM   21  C   UNL     1      -9.617   2.597 -34.278  1.00  0.00     0.015 A 
HETATM   22  C   UNL     1     -10.977   2.674 -34.597  1.00  0.00     0.024 A 
HETATM   23  C   UNL     1     -11.838   1.661 -34.191  1.00  0.00     0.034 A 
HETATM   24 CL   UNL     1     -13.511   1.750 -34.579  1.00  0.00    -0.084 Cl
HETATM   25  C   UNL     1     -11.351   0.577 -33.469  1.00  0.00     0.024 A 
HETATM   26  C   UNL     1      -9.989   0.503 -33.153  1.00  0.00     0.015 A 
ENDBRANCH   9  20
TORSDOF 5
ENDMDL
MODEL 9
REMARK VINA RESULT:      -7.7      2.997      4.784
REMARK  5 active torsions:
REMARK  status: ('A' for Active; 'I' for Inactive)
REMARK    1  A    between atoms: C_2  and  O_3 
REMARK    2  A    between atoms: C_2  and  C_4 
REMARK    3  A    between atoms: C_4  and  N_5 
REMARK       I    between atoms: N_5  and  C_6 
REMARK    4  A    between atoms: C_6  and  C_7 
REMARK    5  A    between atoms: C_15  and  C_16 
ROOT
HETATM    1  C   UNL     1      -6.686   2.758 -33.348  1.00  0.00     0.046 A 
HETATM    2  C   UNL     1      -5.551   3.262 -32.675  1.00  0.00     0.008 A 
HETATM    3  C   UNL     1      -4.506   2.344 -32.458  1.00  0.00     0.068 A 
HETATM    4  C   UNL     1      -3.357   2.774 -31.809  1.00  0.00     0.032 A 
HETATM    5  C   UNL     1      -3.205   4.090 -31.367  1.00  0.00     0.002 A 
HETATM    6  C   UNL     1      -4.225   5.005 -31.577  1.00  0.00     0.001 A 
HETATM    7  C   UNL     1      -5.388   4.598 -32.227  1.00  0.00     0.015 A 
HETATM    8  N   UNL     1      -4.564   1.061 -32.857  1.00  0.00    -0.248 NA
HETATM    9  C   UNL     1      -5.665   0.598 -33.495  1.00  0.00     0.068 A 
HETATM   10  C   UNL     1      -6.749   1.421 -33.750  1.00  0.00     0.050 A 
ENDROOT
BRANCH   1  11
HETATM   11  C   UNL     1      -7.866   3.611 -33.633  1.00  0.00     0.252 C 
HETATM   12  N   UNL     1      -9.050   3.181 -33.071  1.00  0.00    -0.354 N 
HETATM   13  H   UNL     1      -9.097   2.284 -32.604  1.00  0.00     0.162 HD
HETATM   14  O   UNL     1      -7.773   4.616 -34.323  1.00  0.00    -0.268 OA
BRANCH  12  15
HETATM   15  C   UNL     1     -10.290   3.924 -33.243  1.00  0.00     0.154 C 
BRANCH  15  16
HETATM   16  C   UNL     1     -11.153   3.357 -34.379  1.00  0.00     0.132 C 
HETATM   17  C   UNL     1     -11.189   1.838 -34.335  1.00  0.00     0.041 C 
BRANCH  16  18
HETATM   18  O   UNL     1     -10.598   3.752 -35.638  1.00  0.00    -0.394 OA
HETATM   19  H   UNL     1     -10.827   3.042 -36.263  1.00  0.00     0.210 HD
ENDBRANCH  16  18
ENDBRANCH  15  16
ENDBRANCH  12  15
ENDBRANCH   1  11
BRANCH   9  20
HETATM   20  C   UNL     1      -5.627  -0.829 -33.882  1.00  0.00    -0.007 A 
HETATM   21  C   UNL     1      -6.797  -1.486 -34.311  1.00  0.00     0.015 A 
HETATM   22  C   UNL     1      -6.784  -2.835 -34.685  1.00  0.00     0.024 A 
HETATM   23  C   UNL     1      -5.596  -3.553 -34.629  1.00  0.00     0.034 A 
HETATM   24 CL   UNL     1      -5.573  -5.211 -35.085  1.00  0.00    -0.084 Cl
HETATM   25  C   UNL     1      -4.425  -2.936 -34.201  1.00  0.00     0.024 A 
HETATM   26  C   UNL     1      -4.442  -1.586 -33.829  1.00  0.00     0.015 A 
ENDBRANCH   9  20
TORSDOF 5
ENDMDL
MODEL 10
REMARK VINA RESULT:      -7.7      1.979      2.296
REMARK  5 active torsions:
REMARK  status: ('A' for Active; 'I' for Inactive)
REMARK    1  A    between atoms: C_2  and  O_3 
REMARK    2  A    between atoms: C_2  and  C_4 
REMARK    3  A    between atoms: C_4  and  N_5 
REMARK       I    between atoms: N_5  and  C_6 
REMARK    4  A    between atoms: C_6  and  C_7 
REMARK    5  A    between atoms: C_15  and  C_16 
ROOT
HETATM    1  C   UNL     1      -6.137   3.333 -32.862  1.00  0.00     0.046 A 
HETATM    2  C   UNL     1      -7.345   3.332 -32.131  1.00  0.00     0.008 A 
HETATM    3  C   UNL     1      -7.845   2.066 -31.772  1.00  0.00     0.068 A 
HETATM    4  C   UNL     1      -9.026   1.991 -31.045  1.00  0.00     0.032 A 
HETATM    5  C   UNL     1      -9.730   3.132 -30.658  1.00  0.00     0.002 A 
HETATM    6  C   UNL     1      -9.248   4.385 -31.003  1.00  0.00     0.001 A 
HETATM    7  C   UNL     1      -8.065   4.487 -31.731  1.00  0.00     0.015 A 
HETATM    8  N   UNL     1      -7.227   0.916 -32.094  1.00  0.00    -0.248 NA
HETATM    9  C   UNL     1      -6.073   0.941 -32.802  1.00  0.00     0.068 A 
HETATM   10  C   UNL     1      -5.504   2.136 -33.208  1.00  0.00     0.050 A 
ENDROOT
BRANCH   1  11
HETATM   11  C   UNL     1      -5.503   4.596 -33.317  1.00  0.00     0.252 C 
HETATM   12  N   UNL     1      -4.423   5.013 -32.567  1.00  0.00    -0.354 N 
HETATM   13  H   UNL     1      -4.182   4.534 -31.708  1.00  0.00     0.162 HD
HETATM   14  O   UNL     1      -5.928   5.206 -34.287  1.00  0.00    -0.268 OA
BRANCH  12  15
HETATM   15  C   UNL     1      -3.684   6.221 -32.903  1.00  0.00     0.154 C 
BRANCH  15  16
HETATM   16  C   UNL     1      -2.640   5.977 -34.002  1.00  0.00     0.132 C 
HETATM   17  C   UNL     1      -1.416   5.267 -33.447  1.00  0.00     0.041 C 
BRANCH  16  18
HETATM   18  O   UNL     1      -2.218   7.234 -34.542  1.00  0.00    -0.394 OA
HETATM   19  H   UNL     1      -2.304   7.149 -35.508  1.00  0.00     0.210 HD
ENDBRANCH  16  18
ENDBRANCH  15  16
ENDBRANCH  12  15
ENDBRANCH   1  11
BRANCH   9  20
HETATM   20  C   UNL     1      -5.483  -0.379 -33.110  1.00  0.00    -0.007 A 
HETATM   21  C   UNL     1      -6.047  -1.200 -34.105  1.00  0.00     0.015 A 
HETATM   22  C   UNL     1      -5.504  -2.452 -34.416  1.00  0.00     0.024 A 
HETATM   23  C   UNL     1      -4.385  -2.908 -33.728  1.00  0.00     0.034 A 
HETATM   24 CL   UNL     1      -3.713  -4.445 -34.104  1.00  0.00    -0.084 Cl
HETATM   25  C   UNL     1      -3.809  -2.125 -32.733  1.00  0.00     0.024 A 
HETATM   26  C   UNL     1      -4.355  -0.872 -32.427  1.00  0.00     0.015 A 
ENDBRANCH   9  20
TORSDOF 5
ENDMDL
