MODEL 1
REMARK VINA RESULT:      -7.9      0.000      0.000
REMARK  9 active torsions:
REMARK  status: ('A' for Active; 'I' for Inactive)
REMARK    1  A    between atoms: C_2  and  C_3 
REMARK    2  A    between atoms: C_3  and  O_4 
REMARK    3  A    between atoms: O_4  and  C_5 
REMARK    4  A    between atoms: C_8  and  C_9 
REMARK       I    between atoms: C_9  and  N_10 
REMARK    5  A    between atoms: N_10  and  C_11 
REMARK    6  A    between atoms: C_11  and  N_12 
REMARK    7  A    between atoms: N_12  and  C_13 
REMARK    8  A    between atoms: C_15  and  O_16 
REMARK    9  A    between atoms: C_17  and  C_18 
ROOT
HETATM    1  C   UNL     1      -1.423 -14.794 -37.021  1.00  0.00     0.036 A 
HETATM    2  C   UNL     1      -1.762 -13.465 -37.257  1.00  0.00     0.067 A 
HETATM    3  C   UNL     1      -3.050 -13.121 -37.687  1.00  0.00     0.082 A 
HETATM    4  C   UNL     1      -4.028 -14.095 -37.920  1.00  0.00     0.050 A 
HETATM    5  C   UNL     1      -3.671 -15.435 -37.720  1.00  0.00     0.021 A 
HETATM    6  C   UNL     1      -2.387 -15.778 -37.277  1.00  0.00     0.030 A 
ENDROOT
BRANCH   1   7
HETATM    7  N   UNL     1      -0.169 -15.249 -36.567  1.00  0.00    -0.333 N 
HETATM    8  H   UNL     1       0.002 -15.109 -35.574  1.00  0.00     0.168 HD
BRANCH   7   9
HETATM    9  C   UNL     1       0.888 -15.857 -37.162  1.00  0.00     0.179 C 
HETATM   10  S   UNL     1       1.186 -17.460 -36.786  1.00  0.00    -0.040 SA
BRANCH   9  11
HETATM   11  N   UNL     1       1.681 -15.214 -38.055  1.00  0.00    -0.299 N 
HETATM   12  C   UNL     1       1.562 -15.301 -39.433  1.00  0.00     0.257 C 
HETATM   13  O   UNL     1       2.555 -15.339 -40.156  1.00  0.00    -0.267 OA
HETATM   14  H   UNL     1       2.662 -15.282 -37.823  1.00  0.00     0.171 HD
BRANCH  12  15
HETATM   15  C   UNL     1       0.221 -15.278 -40.043  1.00  0.00     0.032 A 
HETATM   16  C   UNL     1      -0.317 -14.032 -40.375  1.00  0.00     0.020 A 
HETATM   17  C   UNL     1      -1.542 -13.955 -41.043  1.00  0.00     0.038 A 
HETATM   18  C   UNL     1      -2.227 -15.122 -41.390  1.00  0.00     0.068 A 
HETATM   19  C   UNL     1      -1.681 -16.365 -41.049  1.00  0.00     0.038 A 
HETATM   20  C   UNL     1      -0.452 -16.450 -40.391  1.00  0.00     0.020 A 
BRANCH  18  21
HETATM   21  O   UNL     1      -3.419 -15.179 -42.059  1.00  0.00    -0.351 OA
BRANCH  21  22
HETATM   22  C   UNL     1      -4.264 -14.031 -41.958  1.00  0.00     0.175 C 
BRANCH  22  23
HETATM   23  C   UNL     1      -5.710 -14.486 -42.124  1.00  0.00     0.022 C 
HETATM   24  C   UNL     1      -5.905 -15.917 -41.651  1.00  0.00     0.007 C 
ENDBRANCH  22  23
ENDBRANCH  21  22
ENDBRANCH  18  21
ENDBRANCH  12  15
ENDBRANCH   9  11
ENDBRANCH   7   9
ENDBRANCH   1   7
BRANCH   3  25
HETATM   25  O   UNL     1      -3.258 -11.779 -37.883  1.00  0.00    -0.360 OA
HETATM   26  H   UNL     1      -4.190 -11.569 -37.688  1.00  0.00     0.217 HD
ENDBRANCH   3  25
BRANCH   4  27
HETATM   27  C   UNL     1      -5.378 -13.783 -38.375  1.00  0.00     0.183 A 
HETATM   28  O   UNL     1      -6.294 -14.801 -38.282  1.00  0.00    -0.288 OA
HETATM   29  C   UNL     1      -7.445 -14.262 -38.782  1.00  0.00     0.112 A 
HETATM   30  C   UNL     1      -7.173 -12.951 -39.130  1.00  0.00     0.094 A 
HETATM   31  C   UNL     1      -8.679 -14.895 -38.921  1.00  0.00    -0.025 A 
HETATM   32  N   UNL     1      -5.853 -12.663 -38.887  1.00  0.00    -0.221 NA
HETATM   33  C   UNL     1      -8.205 -12.157 -39.645  1.00  0.00     0.041 A 
HETATM   34  C   UNL     1      -9.478 -12.735 -39.812  1.00  0.00    -0.059 A 
HETATM   35  C   UNL     1      -9.697 -14.077 -39.451  1.00  0.00     0.016 A 
HETATM   36  C   UNL     1     -10.615 -11.896 -40.321  1.00  0.00     0.048 C 
HETATM   37  C   UNL     1      -8.933 -16.328 -38.583  1.00  0.00     0.051 C 
ENDBRANCH   4  27
TORSDOF 9
ENDMDL
MODEL 2
REMARK VINA RESULT:      -7.8     18.277     20.663
REMARK  9 active torsions:
REMARK  status: ('A' for Active; 'I' for Inactive)
REMARK    1  A    between atoms: C_2  and  C_3 
REMARK    2  A    between atoms: C_3  and  O_4 
REMARK    3  A    between atoms: O_4  and  C_5 
REMARK    4  A    between atoms: C_8  and  C_9 
REMARK       I    between atoms: C_9  and  N_10 
REMARK    5  A    between atoms: N_10  and  C_11 
REMARK    6  A    between atoms: C_11  and  N_12 
REMARK    7  A    between atoms: N_12  and  C_13 
REMARK    8  A    between atoms: C_15  and  O_16 
REMARK    9  A    between atoms: C_17  and  C_18 
ROOT
HETATM    1  C   UNL     1      -4.740   4.383 -31.590  1.00  0.00     0.036 A 
HETATM    2  C   UNL     1      -3.810   3.424 -31.202  1.00  0.00     0.067 A 
HETATM    3  C   UNL     1      -3.892   2.111 -31.684  1.00  0.00     0.082 A 
HETATM    4  C   UNL     1      -4.920   1.712 -32.547  1.00  0.00     0.050 A 
HETATM    5  C   UNL     1      -5.878   2.670 -32.903  1.00  0.00     0.021 A 
HETATM    6  C   UNL     1      -5.787   3.986 -32.432  1.00  0.00     0.030 A 
ENDROOT
BRANCH   1   7
HETATM    7  N   UNL     1      -4.739   5.733 -31.185  1.00  0.00    -0.333 N 
HETATM    8  H   UNL     1      -5.157   5.906 -30.273  1.00  0.00     0.168 HD
BRANCH   7   9
HETATM    9  C   UNL     1      -4.287   6.886 -31.739  1.00  0.00     0.179 C 
HETATM   10  S   UNL     1      -4.917   8.329 -31.174  1.00  0.00    -0.040 SA
BRANCH   9  11
HETATM   11  N   UNL     1      -3.338   6.896 -32.708  1.00  0.00    -0.299 N 
HETATM   12  C   UNL     1      -2.053   7.395 -32.560  1.00  0.00     0.257 C 
HETATM   13  O   UNL     1      -1.502   8.014 -33.467  1.00  0.00    -0.267 OA
HETATM   14  H   UNL     1      -3.694   7.217 -33.598  1.00  0.00     0.171 HD
BRANCH  12  15
HETATM   15  C   UNL     1      -1.313   7.116 -31.317  1.00  0.00     0.032 A 
HETATM   16  C   UNL     1      -0.579   5.929 -31.254  1.00  0.00     0.020 A 
HETATM   17  C   UNL     1       0.219   5.658 -30.138  1.00  0.00     0.038 A 
HETATM   18  C   UNL     1       0.295   6.578 -29.090  1.00  0.00     0.068 A 
HETATM   19  C   UNL     1      -0.447   7.763 -29.161  1.00  0.00     0.038 A 
HETATM   20  C   UNL     1      -1.239   8.045 -30.277  1.00  0.00     0.020 A 
BRANCH  18  21
HETATM   21  O   UNL     1       1.052   6.439 -27.959  1.00  0.00    -0.351 OA
BRANCH  21  22
HETATM   22  C   UNL     1       0.714   7.283 -26.856  1.00  0.00     0.175 C 
BRANCH  22  23
HETATM   23  C   UNL     1       1.846   8.286 -26.656  1.00  0.00     0.022 C 
HETATM   24  C   UNL     1       2.188   8.459 -25.187  1.00  0.00     0.007 C 
ENDBRANCH  22  23
ENDBRANCH  21  22
ENDBRANCH  18  21
ENDBRANCH  12  15
ENDBRANCH   9  11
ENDBRANCH   7   9
ENDBRANCH   1   7
BRANCH   3  25
HETATM   25  O   UNL     1      -2.916   1.262 -31.227  1.00  0.00    -0.360 OA
HETATM   26  H   UNL     1      -3.182   0.909 -30.359  1.00  0.00     0.217 HD
ENDBRANCH   3  25
BRANCH   4  27
HETATM   27  C   UNL     1      -5.049   0.356 -33.066  1.00  0.00     0.183 A 
HETATM   28  O   UNL     1      -4.240  -0.589 -32.486  1.00  0.00    -0.288 OA
HETATM   29  C   UNL     1      -4.539  -1.742 -33.155  1.00  0.00     0.112 A 
HETATM   30  C   UNL     1      -5.519  -1.441 -34.084  1.00  0.00     0.094 A 
HETATM   31  C   UNL     1      -3.977  -3.002 -32.954  1.00  0.00    -0.025 A 
HETATM   32  N   UNL     1      -5.821  -0.102 -34.033  1.00  0.00    -0.221 NA
HETATM   33  C   UNL     1      -6.030  -2.466 -34.889  1.00  0.00     0.041 A 
HETATM   34  C   UNL     1      -5.505  -3.764 -34.737  1.00  0.00    -0.059 A 
HETATM   35  C   UNL     1      -4.500  -4.013 -33.784  1.00  0.00     0.016 A 
HETATM   36  C   UNL     1      -6.063  -4.892 -35.556  1.00  0.00     0.048 C 
HETATM   37  C   UNL     1      -2.883  -3.289 -31.977  1.00  0.00     0.051 C 
ENDBRANCH   4  27
TORSDOF 9
ENDMDL
MODEL 3
REMARK VINA RESULT:      -7.7     17.207     20.386
REMARK  9 active torsions:
REMARK  status: ('A' for Active; 'I' for Inactive)
REMARK    1  A    between atoms: C_2  and  C_3 
REMARK    2  A    between atoms: C_3  and  O_4 
REMARK    3  A    between atoms: O_4  and  C_5 
REMARK    4  A    between atoms: C_8  and  C_9 
REMARK       I    between atoms: C_9  and  N_10 
REMARK    5  A    between atoms: N_10  and  C_11 
REMARK    6  A    between atoms: C_11  and  N_12 
REMARK    7  A    between atoms: N_12  and  C_13 
REMARK    8  A    between atoms: C_15  and  O_16 
REMARK    9  A    between atoms: C_17  and  C_18 
ROOT
HETATM    1  C   UNL     1     -10.120   3.582 -31.473  1.00  0.00     0.036 A 
HETATM    2  C   UNL     1      -9.267   2.989 -30.549  1.00  0.00     0.067 A 
HETATM    3  C   UNL     1      -7.885   3.215 -30.602  1.00  0.00     0.082 A 
HETATM    4  C   UNL     1      -7.314   4.018 -31.597  1.00  0.00     0.050 A 
HETATM    5  C   UNL     1      -8.172   4.581 -32.549  1.00  0.00     0.021 A 
HETATM    6  C   UNL     1      -9.555   4.366 -32.487  1.00  0.00     0.030 A 
ENDROOT
BRANCH   1   7
HETATM    7  N   UNL     1     -11.523   3.442 -31.498  1.00  0.00    -0.333 N 
HETATM    8  H   UNL     1     -11.974   3.499 -30.588  1.00  0.00     0.168 HD
BRANCH   7   9
HETATM    9  C   UNL     1     -12.436   3.254 -32.483  1.00  0.00     0.179 C 
HETATM   10  S   UNL     1     -12.891   4.580 -33.397  1.00  0.00    -0.040 SA
BRANCH   9  11
HETATM   11  N   UNL     1     -12.963   2.034 -32.754  1.00  0.00    -0.299 N 
HETATM   12  C   UNL     1     -12.419   1.107 -33.629  1.00  0.00     0.257 C 
HETATM   13  O   UNL     1     -13.134   0.424 -34.358  1.00  0.00    -0.267 OA
HETATM   14  H   UNL     1     -13.960   2.070 -32.921  1.00  0.00     0.171 HD
BRANCH  12  15
HETATM   15  C   UNL     1     -10.962   0.890 -33.631  1.00  0.00     0.032 A 
HETATM   16  C   UNL     1     -10.204   1.596 -34.569  1.00  0.00     0.020 A 
HETATM   17  C   UNL     1      -8.809   1.503 -34.554  1.00  0.00     0.038 A 
HETATM   18  C   UNL     1      -8.168   0.715 -33.596  1.00  0.00     0.068 A 
HETATM   19  C   UNL     1      -8.937   0.009 -32.663  1.00  0.00     0.038 A 
HETATM   20  C   UNL     1     -10.331   0.104 -32.665  1.00  0.00     0.020 A 
BRANCH  18  21
HETATM   21  O   UNL     1      -6.815   0.559 -33.465  1.00  0.00    -0.351 OA
BRANCH  21  22
HETATM   22  C   UNL     1      -6.370  -0.640 -32.828  1.00  0.00     0.175 C 
BRANCH  22  23
HETATM   23  C   UNL     1      -5.651  -1.494 -33.867  1.00  0.00     0.022 C 
HETATM   24  C   UNL     1      -6.621  -2.373 -34.638  1.00  0.00     0.007 C 
ENDBRANCH  22  23
ENDBRANCH  21  22
ENDBRANCH  18  21
ENDBRANCH  12  15
ENDBRANCH   9  11
ENDBRANCH   7   9
ENDBRANCH   1   7
BRANCH   3  25
HETATM   25  O   UNL     1      -7.153   2.573 -29.635  1.00  0.00    -0.360 OA
HETATM   26  H   UNL     1      -6.357   3.100 -29.437  1.00  0.00     0.217 HD
ENDBRANCH   3  25
BRANCH   4  27
HETATM   27  C   UNL     1      -5.881   4.274 -31.695  1.00  0.00     0.183 A 
HETATM   28  O   UNL     1      -5.414   4.598 -32.945  1.00  0.00    -0.288 OA
HETATM   29  C   UNL     1      -4.070   4.763 -32.766  1.00  0.00     0.112 A 
HETATM   30  C   UNL     1      -3.799   4.552 -31.425  1.00  0.00     0.094 A 
HETATM   31  C   UNL     1      -3.126   5.090 -33.738  1.00  0.00    -0.025 A 
HETATM   32  N   UNL     1      -4.953   4.221 -30.759  1.00  0.00    -0.221 NA
HETATM   33  C   UNL     1      -2.484   4.693 -30.967  1.00  0.00     0.041 A 
HETATM   34  C   UNL     1      -1.480   5.021 -31.899  1.00  0.00    -0.059 A 
HETATM   35  C   UNL     1      -1.808   5.215 -33.253  1.00  0.00     0.016 A 
HETATM   36  C   UNL     1      -0.067   5.221 -31.429  1.00  0.00     0.048 C 
HETATM   37  C   UNL     1      -3.437   5.264 -35.189  1.00  0.00     0.051 C 
ENDBRANCH   4  27
TORSDOF 9
ENDMDL
MODEL 4
REMARK VINA RESULT:      -7.7     17.387     20.151
REMARK  9 active torsions:
REMARK  status: ('A' for Active; 'I' for Inactive)
REMARK    1  A    between atoms: C_2  and  C_3 
REMARK    2  A    between atoms: C_3  and  O_4 
REMARK    3  A    between atoms: O_4  and  C_5 
REMARK    4  A    between atoms: C_8  and  C_9 
REMARK       I    between atoms: C_9  and  N_10 
REMARK    5  A    between atoms: N_10  and  C_11 
REMARK    6  A    between atoms: C_11  and  N_12 
REMARK    7  A    between atoms: N_12  and  C_13 
REMARK    8  A    between atoms: C_15  and  O_16 
REMARK    9  A    between atoms: C_17  and  C_18 
ROOT
HETATM    1  C   UNL     1      -8.673   4.018 -30.116  1.00  0.00     0.036 A 
HETATM    2  C   UNL     1      -9.582   3.245 -30.831  1.00  0.00     0.067 A 
HETATM    3  C   UNL     1      -9.158   2.112 -31.537  1.00  0.00     0.082 A 
HETATM    4  C   UNL     1      -7.811   1.733 -31.571  1.00  0.00     0.050 A 
HETATM    5  C   UNL     1      -6.893   2.537 -30.882  1.00  0.00     0.021 A 
HETATM    6  C   UNL     1      -7.319   3.662 -30.165  1.00  0.00     0.030 A 
ENDROOT
BRANCH   1   7
HETATM    7  N   UNL     1      -8.993   5.161 -29.355  1.00  0.00    -0.333 N 
HETATM    8  H   UNL     1      -9.306   4.969 -28.406  1.00  0.00     0.168 HD
BRANCH   7   9
HETATM    9  C   UNL     1      -8.968   6.495 -29.598  1.00  0.00     0.179 C 
HETATM   10  S   UNL     1      -8.198   7.482 -28.487  1.00  0.00    -0.040 SA
BRANCH   9  11
HETATM   11  N   UNL     1      -9.523   7.036 -30.711  1.00  0.00    -0.299 N 
HETATM   12  C   UNL     1      -8.817   7.474 -31.821  1.00  0.00     0.257 C 
HETATM   13  O   UNL     1      -9.150   8.489 -32.426  1.00  0.00    -0.267 OA
HETATM   14  H   UNL     1     -10.226   7.729 -30.497  1.00  0.00     0.171 HD
BRANCH  12  15
HETATM   15  C   UNL     1      -7.691   6.667 -32.322  1.00  0.00     0.032 A 
HETATM   16  C   UNL     1      -7.983   5.635 -33.217  1.00  0.00     0.020 A 
HETATM   17  C   UNL     1      -6.946   4.899 -33.798  1.00  0.00     0.038 A 
HETATM   18  C   UNL     1      -5.616   5.201 -33.496  1.00  0.00     0.068 A 
HETATM   19  C   UNL     1      -5.335   6.235 -32.595  1.00  0.00     0.038 A 
HETATM   20  C   UNL     1      -6.365   6.980 -32.017  1.00  0.00     0.020 A 
BRANCH  18  21
HETATM   21  O   UNL     1      -4.517   4.571 -34.012  1.00  0.00    -0.351 OA
BRANCH  21  22
HETATM   22  C   UNL     1      -3.467   4.263 -33.094  1.00  0.00     0.175 C 
BRANCH  22  23
HETATM   23  C   UNL     1      -3.584   2.791 -32.709  1.00  0.00     0.022 C 
HETATM   24  C   UNL     1      -3.366   2.581 -31.221  1.00  0.00     0.007 C 
ENDBRANCH  22  23
ENDBRANCH  21  22
ENDBRANCH  18  21
ENDBRANCH  12  15
ENDBRANCH   9  11
ENDBRANCH   7   9
ENDBRANCH   1   7
BRANCH   3  25
HETATM   25  O   UNL     1     -10.150   1.436 -32.201  1.00  0.00    -0.360 OA
HETATM   26  H   UNL     1     -10.968   1.471 -31.672  1.00  0.00     0.217 HD
ENDBRANCH   3  25
BRANCH   4  27
HETATM   27  C   UNL     1      -7.324   0.567 -32.299  1.00  0.00     0.183 A 
HETATM   28  O   UNL     1      -5.986   0.292 -32.166  1.00  0.00    -0.288 OA
HETATM   29  C   UNL     1      -5.793  -0.812 -32.947  1.00  0.00     0.112 A 
HETATM   30  C   UNL     1      -7.017  -1.156 -33.492  1.00  0.00     0.094 A 
HETATM   31  C   UNL     1      -4.593  -1.488 -33.167  1.00  0.00    -0.025 A 
HETATM   32  N   UNL     1      -7.979  -0.261 -33.090  1.00  0.00    -0.221 NA
HETATM   33  C   UNL     1      -7.102  -2.283 -34.316  1.00  0.00     0.041 A 
HETATM   34  C   UNL     1      -5.926  -3.012 -34.580  1.00  0.00    -0.059 A 
HETATM   35  C   UNL     1      -4.703  -2.612 -34.009  1.00  0.00     0.016 A 
HETATM   36  C   UNL     1      -5.993  -4.251 -35.426  1.00  0.00     0.048 C 
HETATM   37  C   UNL     1      -3.274  -1.066 -32.606  1.00  0.00     0.051 C 
ENDBRANCH   4  27
TORSDOF 9
ENDMDL
MODEL 5
REMARK VINA RESULT:      -7.6     16.688     19.189
REMARK  9 active torsions:
REMARK  status: ('A' for Active; 'I' for Inactive)
REMARK    1  A    between atoms: C_2  and  C_3 
REMARK    2  A    between atoms: C_3  and  O_4 
REMARK    3  A    between atoms: O_4  and  C_5 
REMARK    4  A    between atoms: C_8  and  C_9 
REMARK       I    between atoms: C_9  and  N_10 
REMARK    5  A    between atoms: N_10  and  C_11 
REMARK    6  A    between atoms: C_11  and  N_12 
REMARK    7  A    between atoms: N_12  and  C_13 
REMARK    8  A    between atoms: C_15  and  O_16 
REMARK    9  A    between atoms: C_17  and  C_18 
ROOT
HETATM    1  C   UNL     1      -3.913   4.178 -31.517  1.00  0.00     0.036 A 
HETATM    2  C   UNL     1      -4.905   4.050 -32.484  1.00  0.00     0.067 A 
HETATM    3  C   UNL     1      -5.228   2.795 -33.016  1.00  0.00     0.082 A 
HETATM    4  C   UNL     1      -4.551   1.636 -32.616  1.00  0.00     0.050 A 
HETATM    5  C   UNL     1      -3.527   1.775 -31.671  1.00  0.00     0.021 A 
HETATM    6  C   UNL     1      -3.213   3.028 -31.130  1.00  0.00     0.030 A 
ENDROOT
BRANCH   1   7
HETATM    7  N   UNL     1      -3.524   5.385 -30.900  1.00  0.00    -0.333 N 
HETATM    8  H   UNL     1      -2.536   5.611 -30.990  1.00  0.00     0.168 HD
BRANCH   7   9
HETATM    9  C   UNL     1      -4.182   6.346 -30.206  1.00  0.00     0.179 C 
HETATM   10  S   UNL     1      -4.608   7.748 -31.014  1.00  0.00    -0.040 SA
BRANCH   9  11
HETATM   11  N   UNL     1      -4.517   6.191 -28.900  1.00  0.00    -0.299 N 
HETATM   12  C   UNL     1      -5.800   5.967 -28.428  1.00  0.00     0.257 C 
HETATM   13  O   UNL     1      -6.195   6.489 -27.388  1.00  0.00    -0.267 OA
HETATM   14  H   UNL     1      -4.082   6.882 -28.304  1.00  0.00     0.171 HD
BRANCH  12  15
HETATM   15  C   UNL     1      -6.679   5.031 -29.150  1.00  0.00     0.032 A 
HETATM   16  C   UNL     1      -7.693   5.575 -29.942  1.00  0.00     0.020 A 
HETATM   17  C   UNL     1      -8.495   4.738 -30.723  1.00  0.00     0.038 A 
HETATM   18  C   UNL     1      -8.278   3.358 -30.725  1.00  0.00     0.068 A 
HETATM   19  C   UNL     1      -7.261   2.823 -29.926  1.00  0.00     0.038 A 
HETATM   20  C   UNL     1      -6.449   3.654 -29.149  1.00  0.00     0.020 A 
BRANCH  18  21
HETATM   21  O   UNL     1      -8.978   2.441 -31.459  1.00  0.00    -0.351 OA
BRANCH  21  22
HETATM   22  C   UNL     1      -8.363   1.164 -31.640  1.00  0.00     0.175 C 
BRANCH  22  23
HETATM   23  C   UNL     1      -9.282   0.310 -32.508  1.00  0.00     0.022 C 
HETATM   24  C   UNL     1      -9.201   0.709 -33.971  1.00  0.00     0.007 C 
ENDBRANCH  22  23
ENDBRANCH  21  22
ENDBRANCH  18  21
ENDBRANCH  12  15
ENDBRANCH   9  11
ENDBRANCH   7   9
ENDBRANCH   1   7
BRANCH   3  25
HETATM   25  O   UNL     1      -6.222   2.802 -33.961  1.00  0.00    -0.360 OA
HETATM   26  H   UNL     1      -6.732   1.974 -33.893  1.00  0.00     0.217 HD
ENDBRANCH   3  25
BRANCH   4  27
HETATM   27  C   UNL     1      -4.849   0.311 -33.148  1.00  0.00     0.183 A 
HETATM   28  O   UNL     1      -4.102  -0.723 -32.639  1.00  0.00    -0.288 OA
HETATM   29  C   UNL     1      -4.557  -1.824 -33.306  1.00  0.00     0.112 A 
HETATM   30  C   UNL     1      -5.561  -1.407 -34.162  1.00  0.00     0.094 A 
HETATM   31  C   UNL     1      -4.112  -3.137 -33.164  1.00  0.00    -0.025 A 
HETATM   32  N   UNL     1      -5.723  -0.046 -34.069  1.00  0.00    -0.221 NA
HETATM   33  C   UNL     1      -6.222  -2.358 -34.948  1.00  0.00     0.041 A 
HETATM   34  C   UNL     1      -5.821  -3.704 -34.853  1.00  0.00    -0.059 A 
HETATM   35  C   UNL     1      -4.786  -4.073 -33.973  1.00  0.00     0.016 A 
HETATM   36  C   UNL     1      -6.541  -4.753 -35.652  1.00  0.00     0.048 C 
HETATM   37  C   UNL     1      -2.991  -3.554 -32.267  1.00  0.00     0.051 C 
ENDBRANCH   4  27
TORSDOF 9
ENDMDL
MODEL 6
REMARK VINA RESULT:      -7.6     20.495     23.186
REMARK  9 active torsions:
REMARK  status: ('A' for Active; 'I' for Inactive)
REMARK    1  A    between atoms: C_2  and  C_3 
REMARK    2  A    between atoms: C_3  and  O_4 
REMARK    3  A    between atoms: O_4  and  C_5 
REMARK    4  A    between atoms: C_8  and  C_9 
REMARK       I    between atoms: C_9  and  N_10 
REMARK    5  A    between atoms: N_10  and  C_11 
REMARK    6  A    between atoms: C_11  and  N_12 
REMARK    7  A    between atoms: N_12  and  C_13 
REMARK    8  A    between atoms: C_15  and  O_16 
REMARK    9  A    between atoms: C_17  and  C_18 
ROOT
HETATM    1  C   UNL     1      -7.628   5.671 -29.171  1.00  0.00     0.036 A 
HETATM    2  C   UNL     1      -6.945   5.245 -28.036  1.00  0.00     0.067 A 
HETATM    3  C   UNL     1      -5.620   5.640 -27.807  1.00  0.00     0.082 A 
HETATM    4  C   UNL     1      -4.932   6.451 -28.718  1.00  0.00     0.050 A 
HETATM    5  C   UNL     1      -5.610   6.846 -29.878  1.00  0.00     0.021 A 
HETATM    6  C   UNL     1      -6.938   6.461 -30.100  1.00  0.00     0.030 A 
ENDROOT
BRANCH   1   7
HETATM    7  N   UNL     1      -8.964   5.353 -29.488  1.00  0.00    -0.333 N 
HETATM    8  H   UNL     1      -9.663   5.860 -28.950  1.00  0.00     0.168 HD
BRANCH   7   9
HETATM    9  C   UNL     1      -9.550   4.513 -30.377  1.00  0.00     0.179 C 
HETATM   10  S   UNL     1     -10.364   5.185 -31.676  1.00  0.00    -0.040 SA
BRANCH   9  11
HETATM   11  N   UNL     1      -9.473   3.164 -30.253  1.00  0.00    -0.299 N 
HETATM   12  C   UNL     1      -8.628   2.343 -30.983  1.00  0.00     0.257 C 
HETATM   13  O   UNL     1      -8.998   1.242 -31.380  1.00  0.00    -0.267 OA
HETATM   14  H   UNL     1     -10.383   2.725 -30.223  1.00  0.00     0.171 HD
BRANCH  12  15
HETATM   15  C   UNL     1      -7.240   2.773 -31.223  1.00  0.00     0.032 A 
HETATM   16  C   UNL     1      -6.979   3.496 -32.390  1.00  0.00     0.020 A 
HETATM   17  C   UNL     1      -5.700   4.011 -32.623  1.00  0.00     0.038 A 
HETATM   18  C   UNL     1      -4.683   3.816 -31.685  1.00  0.00     0.068 A 
HETATM   19  C   UNL     1      -4.954   3.087 -30.521  1.00  0.00     0.038 A 
HETATM   20  C   UNL     1      -6.232   2.578 -30.277  1.00  0.00     0.020 A 
BRANCH  18  21
HETATM   21  O   UNL     1      -3.402   4.285 -31.787  1.00  0.00    -0.351 OA
BRANCH  21  22
HETATM   22  C   UNL     1      -3.140   5.198 -32.854  1.00  0.00     0.175 C 
BRANCH  22  23
HETATM   23  C   UNL     1      -2.225   4.507 -33.861  1.00  0.00     0.022 C 
HETATM   24  C   UNL     1      -1.355   5.506 -34.605  1.00  0.00     0.007 C 
ENDBRANCH  22  23
ENDBRANCH  21  22
ENDBRANCH  18  21
ENDBRANCH  12  15
ENDBRANCH   9  11
ENDBRANCH   7   9
ENDBRANCH   1   7
BRANCH   3  25
HETATM   25  O   UNL     1      -5.059   5.153 -26.654  1.00  0.00    -0.360 OA
HETATM   26  H   UNL     1      -5.083   5.848 -25.971  1.00  0.00     0.217 HD
ENDBRANCH   3  25
BRANCH   4  27
HETATM   27  C   UNL     1      -3.551   6.880 -28.524  1.00  0.00     0.183 A 
HETATM   28  O   UNL     1      -2.714   6.712 -29.598  1.00  0.00    -0.288 OA
HETATM   29  C   UNL     1      -1.505   7.164 -29.153  1.00  0.00     0.112 A 
HETATM   30  C   UNL     1      -1.676   7.598 -27.850  1.00  0.00     0.094 A 
HETATM   31  C   UNL     1      -0.305   7.198 -29.864  1.00  0.00    -0.025 A 
HETATM   32  N   UNL     1      -2.975   7.394 -27.454  1.00  0.00    -0.221 NA
HETATM   33  C   UNL     1      -0.584   8.143 -27.166  1.00  0.00     0.041 A 
HETATM   34  C   UNL     1       0.658   8.207 -27.826  1.00  0.00    -0.059 A 
HETATM   35  C   UNL     1       0.781   7.742 -29.149  1.00  0.00     0.016 A 
HETATM   36  C   UNL     1       1.838   8.827 -27.133  1.00  0.00     0.048 C 
HETATM   37  C   UNL     1      -0.136   6.677 -31.254  1.00  0.00     0.051 C 
ENDBRANCH   4  27
TORSDOF 9
ENDMDL
MODEL 7
REMARK VINA RESULT:      -7.5     19.044     21.108
REMARK  9 active torsions:
REMARK  status: ('A' for Active; 'I' for Inactive)
REMARK    1  A    between atoms: C_2  and  C_3 
REMARK    2  A    between atoms: C_3  and  O_4 
REMARK    3  A    between atoms: O_4  and  C_5 
REMARK    4  A    between atoms: C_8  and  C_9 
REMARK       I    between atoms: C_9  and  N_10 
REMARK    5  A    between atoms: N_10  and  C_11 
REMARK    6  A    between atoms: C_11  and  N_12 
REMARK    7  A    between atoms: N_12  and  C_13 
REMARK    8  A    between atoms: C_15  and  O_16 
REMARK    9  A    between atoms: C_17  and  C_18 
ROOT
HETATM    1  C   UNL     1      -5.285   5.881 -29.581  1.00  0.00     0.036 A 
HETATM    2  C   UNL     1      -6.185   4.905 -29.167  1.00  0.00     0.067 A 
HETATM    3  C   UNL     1      -6.290   3.689 -29.855  1.00  0.00     0.082 A 
HETATM    4  C   UNL     1      -5.517   3.424 -30.992  1.00  0.00     0.050 A 
HETATM    5  C   UNL     1      -4.641   4.425 -31.429  1.00  0.00     0.021 A 
HETATM    6  C   UNL     1      -4.526   5.635 -30.733  1.00  0.00     0.030 A 
ENDROOT
BRANCH   1   7
HETATM    7  N   UNL     1      -5.082   7.127 -28.952  1.00  0.00    -0.333 N 
HETATM    8  H   UNL     1      -5.819   7.811 -29.111  1.00  0.00     0.168 HD
BRANCH   7   9
HETATM    9  C   UNL     1      -4.112   7.634 -28.152  1.00  0.00     0.179 C 
HETATM   10  S   UNL     1      -3.620   6.723 -26.838  1.00  0.00    -0.040 SA
BRANCH   9  11
HETATM   11  N   UNL     1      -3.525   8.832 -28.402  1.00  0.00    -0.299 N 
HETATM   12  C   UNL     1      -2.279   9.003 -28.983  1.00  0.00     0.257 C 
HETATM   13  O   UNL     1      -1.514   9.884 -28.600  1.00  0.00    -0.267 OA
HETATM   14  H   UNL     1      -3.592   9.467 -27.618  1.00  0.00     0.171 HD
BRANCH  12  15
HETATM   15  C   UNL     1      -1.898   8.157 -30.128  1.00  0.00     0.032 A 
HETATM   16  C   UNL     1      -2.245   8.603 -31.405  1.00  0.00     0.020 A 
HETATM   17  C   UNL     1      -1.826   7.890 -32.533  1.00  0.00     0.038 A 
HETATM   18  C   UNL     1      -1.048   6.739 -32.386  1.00  0.00     0.068 A 
HETATM   19  C   UNL     1      -0.708   6.300 -31.101  1.00  0.00     0.038 A 
HETATM   20  C   UNL     1      -1.116   7.012 -29.971  1.00  0.00     0.020 A 
BRANCH  18  21
HETATM   21  O   UNL     1      -0.560   5.970 -33.407  1.00  0.00    -0.351 OA
BRANCH  21  22
HETATM   22  C   UNL     1      -1.368   5.881 -34.582  1.00  0.00     0.175 C 
BRANCH  22  23
HETATM   23  C   UNL     1      -2.508   4.905 -34.306  1.00  0.00     0.022 C 
HETATM   24  C   UNL     1      -3.745   5.243 -35.119  1.00  0.00     0.007 C 
ENDBRANCH  22  23
ENDBRANCH  21  22
ENDBRANCH  18  21
ENDBRANCH  12  15
ENDBRANCH   9  11
ENDBRANCH   7   9
ENDBRANCH   1   7
BRANCH   3  25
HETATM   25  O   UNL     1      -7.214   2.812 -29.347  1.00  0.00    -0.360 OA
HETATM   26  H   UNL     1      -6.789   1.945 -29.212  1.00  0.00     0.217 HD
ENDBRANCH   3  25
BRANCH   4  27
HETATM   27  C   UNL     1      -5.599   2.177 -31.743  1.00  0.00     0.183 A 
HETATM   28  O   UNL     1      -6.865   1.741 -32.047  1.00  0.00    -0.288 OA
HETATM   29  C   UNL     1      -6.662   0.570 -32.720  1.00  0.00     0.112 A 
HETATM   30  C   UNL     1      -5.295   0.370 -32.805  1.00  0.00     0.094 A 
HETATM   31  C   UNL     1      -7.636  -0.282 -33.239  1.00  0.00    -0.025 A 
HETATM   32  N   UNL     1      -4.630   1.386 -32.164  1.00  0.00    -0.221 NA
HETATM   33  C   UNL     1      -4.814  -0.756 -33.482  1.00  0.00     0.041 A 
HETATM   34  C   UNL     1      -5.745  -1.659 -34.031  1.00  0.00    -0.059 A 
HETATM   35  C   UNL     1      -7.125  -1.414 -33.906  1.00  0.00     0.016 A 
HETATM   36  C   UNL     1      -5.258  -2.854 -34.800  1.00  0.00     0.048 C 
HETATM   37  C   UNL     1      -9.107  -0.068 -33.090  1.00  0.00     0.051 C 
ENDBRANCH   4  27
TORSDOF 9
ENDMDL
MODEL 8
REMARK VINA RESULT:      -7.5     18.043     20.598
REMARK  9 active torsions:
REMARK  status: ('A' for Active; 'I' for Inactive)
REMARK    1  A    between atoms: C_2  and  C_3 
REMARK    2  A    between atoms: C_3  and  O_4 
REMARK    3  A    between atoms: O_4  and  C_5 
REMARK    4  A    between atoms: C_8  and  C_9 
REMARK       I    between atoms: C_9  and  N_10 
REMARK    5  A    between atoms: N_10  and  C_11 
REMARK    6  A    between atoms: C_11  and  N_12 
REMARK    7  A    between atoms: N_12  and  C_13 
REMARK    8  A    between atoms: C_15  and  O_16 
REMARK    9  A    between atoms: C_17  and  C_18 
ROOT
HETATM    1  C   UNL     1      -4.732   6.028 -31.654  1.00  0.00     0.036 A 
HETATM    2  C   UNL     1      -3.705   5.174 -31.264  1.00  0.00     0.067 A 
HETATM    3  C   UNL     1      -3.714   3.824 -31.639  1.00  0.00     0.082 A 
HETATM    4  C   UNL     1      -4.763   3.282 -32.392  1.00  0.00     0.050 A 
HETATM    5  C   UNL     1      -5.815   4.136 -32.749  1.00  0.00     0.021 A 
HETATM    6  C   UNL     1      -5.798   5.488 -32.386  1.00  0.00     0.030 A 
ENDROOT
BRANCH   1   7
HETATM    7  N   UNL     1      -4.811   7.402 -31.352  1.00  0.00    -0.333 N 
HETATM    8  H   UNL     1      -4.284   8.008 -31.979  1.00  0.00     0.168 HD
BRANCH   7   9
HETATM    9  C   UNL     1      -5.453   8.126 -30.402  1.00  0.00     0.179 C 
HETATM   10  S   UNL     1      -6.449   9.374 -30.902  1.00  0.00    -0.040 SA
BRANCH   9  11
HETATM   11  N   UNL     1      -5.326   7.852 -29.079  1.00  0.00    -0.299 N 
HETATM   12  C   UNL     1      -6.299   7.258 -28.292  1.00  0.00     0.257 C 
HETATM   13  O   UNL     1      -6.490   7.620 -27.133  1.00  0.00    -0.267 OA
HETATM   14  H   UNL     1      -4.934   8.624 -28.559  1.00  0.00     0.171 HD
BRANCH  12  15
HETATM   15  C   UNL     1      -7.070   6.125 -28.833  1.00  0.00     0.032 A 
HETATM   16  C   UNL     1      -8.287   6.409 -29.458  1.00  0.00     0.020 A 
HETATM   17  C   UNL     1      -9.013   5.385 -30.073  1.00  0.00     0.038 A 
HETATM   18  C   UNL     1      -8.519   4.079 -30.078  1.00  0.00     0.068 A 
HETATM   19  C   UNL     1      -7.300   3.804 -29.447  1.00  0.00     0.038 A 
HETATM   20  C   UNL     1      -6.565   4.823 -28.837  1.00  0.00     0.020 A 
BRANCH  18  21
HETATM   21  O   UNL     1      -9.123   2.999 -30.662  1.00  0.00    -0.351 OA
BRANCH  21  22
HETATM   22  C   UNL     1      -9.433   3.114 -32.052  1.00  0.00     0.175 C 
BRANCH  22  23
HETATM   23  C   UNL     1      -9.384   1.720 -32.670  1.00  0.00     0.022 C 
HETATM   24  C   UNL     1      -8.750   0.712 -31.727  1.00  0.00     0.007 C 
ENDBRANCH  22  23
ENDBRANCH  21  22
ENDBRANCH  18  21
ENDBRANCH  12  15
ENDBRANCH   9  11
ENDBRANCH   7   9
ENDBRANCH   1   7
BRANCH   3  25
HETATM   25  O   UNL     1      -2.646   3.089 -31.192  1.00  0.00    -0.360 OA
HETATM   26  H   UNL     1      -2.819   2.144 -31.355  1.00  0.00     0.217 HD
ENDBRANCH   3  25
BRANCH   4  27
HETATM   27  C   UNL     1      -4.818   1.883 -32.798  1.00  0.00     0.183 A 
HETATM   28  O   UNL     1      -5.856   1.539 -33.629  1.00  0.00    -0.288 OA
HETATM   29  C   UNL     1      -5.688   0.199 -33.835  1.00  0.00     0.112 A 
HETATM   30  C   UNL     1      -4.557  -0.191 -33.140  1.00  0.00     0.094 A 
HETATM   31  C   UNL     1      -6.493  -0.641 -34.603  1.00  0.00    -0.025 A 
HETATM   32  N   UNL     1      -4.024   0.882 -32.469  1.00  0.00    -0.221 NA
HETATM   33  C   UNL     1      -4.142  -1.526 -33.211  1.00  0.00     0.041 A 
HETATM   34  C   UNL     1      -4.912  -2.428 -33.971  1.00  0.00    -0.059 A 
HETATM   35  C   UNL     1      -6.061  -1.981 -34.649  1.00  0.00     0.016 A 
HETATM   36  C   UNL     1      -4.468  -3.857 -34.101  1.00  0.00     0.048 C 
HETATM   37  C   UNL     1      -7.739  -0.204 -35.303  1.00  0.00     0.051 C 
ENDBRANCH   4  27
TORSDOF 9
ENDMDL
MODEL 9
REMARK VINA RESULT:      -7.4     17.762     20.477
REMARK  9 active torsions:
REMARK  status: ('A' for Active; 'I' for Inactive)
REMARK    1  A    between atoms: C_2  and  C_3 
REMARK    2  A    between atoms: C_3  and  O_4 
REMARK    3  A    between atoms: O_4  and  C_5 
REMARK    4  A    between atoms: C_8  and  C_9 
REMARK       I    between atoms: C_9  and  N_10 
REMARK    5  A    between atoms: N_10  and  C_11 
REMARK    6  A    between atoms: C_11  and  N_12 
REMARK    7  A    between atoms: N_12  and  C_13 
REMARK    8  A    between atoms: C_15  and  O_16 
REMARK    9  A    between atoms: C_17  and  C_18 
ROOT
HETATM    1  C   UNL     1      -6.339   3.973 -32.976  1.00  0.00     0.036 A 
HETATM    2  C   UNL     1      -5.419   3.225 -32.249  1.00  0.00     0.067 A 
HETATM    3  C   UNL     1      -4.397   3.854 -31.526  1.00  0.00     0.082 A 
HETATM    4  C   UNL     1      -4.249   5.246 -31.530  1.00  0.00     0.050 A 
HETATM    5  C   UNL     1      -5.153   5.993 -32.296  1.00  0.00     0.021 A 
HETATM    6  C   UNL     1      -6.183   5.365 -33.008  1.00  0.00     0.030 A 
ENDROOT
BRANCH   1   7
HETATM    7  N   UNL     1      -7.416   3.447 -33.719  1.00  0.00    -0.333 N 
HETATM    8  H   UNL     1      -7.327   3.544 -34.728  1.00  0.00     0.168 HD
BRANCH   7   9
HETATM    9  C   UNL     1      -8.570   2.814 -33.391  1.00  0.00     0.179 C 
HETATM   10  S   UNL     1      -9.812   2.815 -34.512  1.00  0.00    -0.040 SA
BRANCH   9  11
HETATM   11  N   UNL     1      -8.729   2.173 -32.206  1.00  0.00    -0.299 N 
HETATM   12  C   UNL     1      -8.680   0.800 -32.031  1.00  0.00     0.257 C 
HETATM   13  O   UNL     1      -9.441   0.230 -31.253  1.00  0.00    -0.267 OA
HETATM   14  H   UNL     1      -9.514   2.526 -31.676  1.00  0.00     0.171 HD
BRANCH  12  15
HETATM   15  C   UNL     1      -7.649   0.020 -32.739  1.00  0.00     0.032 A 
HETATM   16  C   UNL     1      -6.425  -0.170 -32.094  1.00  0.00     0.020 A 
HETATM   17  C   UNL     1      -5.446  -0.980 -32.676  1.00  0.00     0.038 A 
HETATM   18  C   UNL     1      -5.692  -1.612 -33.897  1.00  0.00     0.068 A 
HETATM   19  C   UNL     1      -6.922  -1.412 -34.537  1.00  0.00     0.038 A 
HETATM   20  C   UNL     1      -7.908  -0.611 -33.956  1.00  0.00     0.020 A 
BRANCH  18  21
HETATM   21  O   UNL     1      -4.827  -2.442 -34.556  1.00  0.00    -0.351 OA
BRANCH  21  22
HETATM   22  C   UNL     1      -5.401  -3.577 -35.206  1.00  0.00     0.175 C 
BRANCH  22  23
HETATM   23  C   UNL     1      -5.021  -4.824 -34.413  1.00  0.00     0.022 C 
HETATM   24  C   UNL     1      -3.655  -4.681 -33.764  1.00  0.00     0.007 C 
ENDBRANCH  22  23
ENDBRANCH  21  22
ENDBRANCH  18  21
ENDBRANCH  12  15
ENDBRANCH   9  11
ENDBRANCH   7   9
ENDBRANCH   1   7
BRANCH   3  25
HETATM   25  O   UNL     1      -3.557   3.006 -30.850  1.00  0.00    -0.360 OA
HETATM   26  H   UNL     1      -3.379   3.372 -29.965  1.00  0.00     0.217 HD
ENDBRANCH   3  25
BRANCH   4  27
HETATM   27  C   UNL     1      -3.196   5.942 -30.799  1.00  0.00     0.183 A 
HETATM   28  O   UNL     1      -1.920   5.476 -30.995  1.00  0.00    -0.288 OA
HETATM   29  C   UNL     1      -1.148   6.271 -30.197  1.00  0.00     0.112 A 
HETATM   30  C   UNL     1      -1.987   7.183 -29.581  1.00  0.00     0.094 A 
HETATM   31  C   UNL     1       0.234   6.200 -30.024  1.00  0.00    -0.025 A 
HETATM   32  N   UNL     1      -3.288   6.952 -29.954  1.00  0.00    -0.221 NA
HETATM   33  C   UNL     1      -1.436   8.143 -28.725  1.00  0.00     0.041 A 
HETATM   34  C   UNL     1      -0.045   8.127 -28.505  1.00  0.00    -0.059 A 
HETATM   35  C   UNL     1       0.762   7.171 -29.149  1.00  0.00     0.016 A 
HETATM   36  C   UNL     1       0.581   9.172 -27.625  1.00  0.00     0.048 C 
HETATM   37  C   UNL     1       1.111   5.174 -30.663  1.00  0.00     0.051 C 
ENDBRANCH   4  27
TORSDOF 9
ENDMDL
MODEL 10
REMARK VINA RESULT:      -7.1     18.185     20.783
REMARK  9 active torsions:
REMARK  status: ('A' for Active; 'I' for Inactive)
REMARK    1  A    between atoms: C_2  and  C_3 
REMARK    2  A    between atoms: C_3  and  O_4 
REMARK    3  A    between atoms: O_4  and  C_5 
REMARK    4  A    between atoms: C_8  and  C_9 
REMARK       I    between atoms: C_9  and  N_10 
REMARK    5  A    between atoms: N_10  and  C_11 
REMARK    6  A    between atoms: C_11  and  N_12 
REMARK    7  A    between atoms: N_12  and  C_13 
REMARK    8  A    between atoms: C_15  and  O_16 
REMARK    9  A    between atoms: C_17  and  C_18 
ROOT
HETATM    1  C   UNL     1      -7.412   4.820 -29.296  1.00  0.00     0.036 A 
HETATM    2  C   UNL     1      -6.059   4.563 -29.500  1.00  0.00     0.067 A 
HETATM    3  C   UNL     1      -5.647   3.454 -30.251  1.00  0.00     0.082 A 
HETATM    4  C   UNL     1      -6.572   2.556 -30.797  1.00  0.00     0.050 A 
HETATM    5  C   UNL     1      -7.931   2.796 -30.556  1.00  0.00     0.021 A 
HETATM    6  C   UNL     1      -8.343   3.912 -29.817  1.00  0.00     0.030 A 
ENDROOT
BRANCH   1   7
HETATM    7  N   UNL     1      -7.936   5.914 -28.579  1.00  0.00    -0.333 N 
HETATM    8  H   UNL     1      -8.283   5.688 -27.649  1.00  0.00     0.168 HD
BRANCH   7   9
HETATM    9  C   UNL     1      -8.080   7.236 -28.844  1.00  0.00     0.179 C 
HETATM   10  S   UNL     1      -7.112   8.315 -28.009  1.00  0.00    -0.040 SA
BRANCH   9  11
HETATM   11  N   UNL     1      -8.959   7.694 -29.770  1.00  0.00    -0.299 N 
HETATM   12  C   UNL     1      -8.644   8.002 -31.084  1.00  0.00     0.257 C 
HETATM   13  O   UNL     1      -9.146   8.970 -31.649  1.00  0.00    -0.267 OA
HETATM   14  H   UNL     1      -9.551   8.431 -29.412  1.00  0.00     0.171 HD
BRANCH  12  15
HETATM   15  C   UNL     1      -7.745   7.109 -31.836  1.00  0.00     0.032 A 
HETATM   16  C   UNL     1      -8.330   6.111 -32.619  1.00  0.00     0.020 A 
HETATM   17  C   UNL     1      -7.531   5.297 -33.427  1.00  0.00     0.038 A 
HETATM   18  C   UNL     1      -6.147   5.487 -33.465  1.00  0.00     0.068 A 
HETATM   19  C   UNL     1      -5.571   6.488 -32.673  1.00  0.00     0.038 A 
HETATM   20  C   UNL     1      -6.364   7.311 -31.870  1.00  0.00     0.020 A 
BRANCH  18  21
HETATM   21  O   UNL     1      -5.264   4.773 -34.227  1.00  0.00    -0.351 OA
BRANCH  21  22
HETATM   22  C   UNL     1      -3.890   4.832 -33.836  1.00  0.00     0.175 C 
BRANCH  22  23
HETATM   23  C   UNL     1      -3.068   5.267 -35.045  1.00  0.00     0.022 C 
HETATM   24  C   UNL     1      -1.583   5.308 -34.727  1.00  0.00     0.007 C 
ENDBRANCH  22  23
ENDBRANCH  21  22
ENDBRANCH  18  21
ENDBRANCH  12  15
ENDBRANCH   9  11
ENDBRANCH   7   9
ENDBRANCH   1   7
BRANCH   3  25
HETATM   25  O   UNL     1      -4.288   3.312 -30.379  1.00  0.00    -0.360 OA
HETATM   26  H   UNL     1      -3.947   2.815 -29.613  1.00  0.00     0.217 HD
ENDBRANCH   3  25
BRANCH   4  27
HETATM   27  C   UNL     1      -6.188   1.386 -31.578  1.00  0.00     0.183 A 
HETATM   28  O   UNL     1      -6.862   1.204 -32.759  1.00  0.00    -0.288 OA
HETATM   29  C   UNL     1      -6.336   0.052 -33.271  1.00  0.00     0.112 A 
HETATM   30  C   UNL     1      -5.364  -0.389 -32.390  1.00  0.00     0.094 A 
HETATM   31  C   UNL     1      -6.692  -0.579 -34.462  1.00  0.00    -0.025 A 
HETATM   32  N   UNL     1      -5.293   0.454 -31.308  1.00  0.00    -0.221 NA
HETATM   33  C   UNL     1      -4.642  -1.547 -32.698  1.00  0.00     0.041 A 
HETATM   34  C   UNL     1      -4.952  -2.235 -33.887  1.00  0.00    -0.059 A 
HETATM   35  C   UNL     1      -5.958  -1.749 -34.744  1.00  0.00     0.016 A 
HETATM   36  C   UNL     1      -4.165  -3.457 -34.266  1.00  0.00     0.048 C 
HETATM   37  C   UNL     1      -7.780  -0.109 -35.372  1.00  0.00     0.051 C 
ENDBRANCH   4  27
TORSDOF 9
ENDMDL
