MODEL 1
REMARK VINA RESULT:      -8.2      0.000      0.000
REMARK  8 active torsions:
REMARK  status: ('A' for Active; 'I' for Inactive)
REMARK    1  A    between atoms: C_2  and  N_3 
REMARK       I    between atoms: N_3  and  C_4 
REMARK    2  A    between atoms: C_4  and  C_5 
REMARK    3  A    between atoms: C_5  and  O_6 
REMARK    4  A    between atoms: O_6  and  C_7 
REMARK    5  A    between atoms: C_8  and  O_9 
REMARK    6  A    between atoms: C_12  and  C_13 
REMARK    7  A    between atoms: C_13  and  N_14 
REMARK    8  A    between atoms: N_14  and  C_15 
ROOT
HETATM    1  C   UNL     1      -4.423   5.765 -32.343  1.00  0.00     0.102 A 
HETATM    2  C   UNL     1      -4.289   5.438 -33.702  1.00  0.00     0.102 A 
HETATM    3  C   UNL     1      -5.012   4.355 -34.227  1.00  0.00     0.048 A 
HETATM    4  C   UNL     1      -5.901   3.617 -33.437  1.00  0.00    -0.042 A 
HETATM    5  C   UNL     1      -6.030   3.951 -32.087  1.00  0.00     0.011 A 
HETATM    6  C   UNL     1      -5.304   5.017 -31.548  1.00  0.00     0.040 A 
ENDROOT
BRANCH   4   7
HETATM    7  C   UNL     1      -6.700   2.479 -34.024  1.00  0.00     0.131 C 
BRANCH   7   8
HETATM    8  N   UNL     1      -6.817   1.409 -33.042  1.00  0.00    -0.289 NA
HETATM    9  H   UNL     1      -6.613   1.741 -32.102  1.00  0.00     0.128 HD
BRANCH   8  10
HETATM   10  C   UNL     1      -6.196   0.179 -33.312  1.00  0.00     0.010 A 
HETATM   11  C   UNL     1      -6.970  -0.849 -33.880  1.00  0.00     0.055 A 
HETATM   12  C   UNL     1      -6.340  -2.030 -34.200  1.00  0.00     0.065 A 
HETATM   13  C   UNL     1      -4.975  -2.216 -34.013  1.00  0.00     0.063 A 
HETATM   14  N   UNL     1      -6.860  -3.202 -34.741  1.00  0.00    -0.306 N 
HETATM   15  N   UNL     1      -4.652  -3.499 -34.435  1.00  0.00    -0.307 N 
HETATM   16  C   UNL     1      -4.170  -1.229 -33.504  1.00  0.00     0.034 A 
HETATM   17  C   UNL     1      -5.819  -4.129 -34.893  1.00  0.00     0.325 A 
HETATM   18  H   UNL     1      -3.744  -3.935 -34.435  1.00  0.00     0.170 HD
HETATM   19  O   UNL     1      -5.910  -5.260 -35.335  1.00  0.00    -0.247 OA
HETATM   20  C   UNL     1      -4.796  -0.020 -33.166  1.00  0.00     0.026 A 
HETATM   21  H   UNL     1      -7.817  -3.386 -34.994  1.00  0.00     0.170 HD
ENDBRANCH   8  10
ENDBRANCH   7   8
ENDBRANCH   4   7
BRANCH   2  22
HETATM   22  O   UNL     1      -3.493   6.032 -34.647  1.00  0.00    -0.353 OA
HETATM   23  C   UNL     1      -2.139   5.621 -34.757  1.00  0.00     0.210 C 
ENDBRANCH   2  22
BRANCH   1  24
HETATM   24  O   UNL     1      -3.732   6.843 -31.853  1.00  0.00    -0.339 OA
BRANCH  24  25
HETATM   25  C   UNL     1      -3.333   6.823 -30.486  1.00  0.00     0.278 C 
BRANCH  25  26
HETATM   26  C   UNL     1      -1.819   6.721 -30.259  1.00  0.00     0.242 C 
HETATM   27  N   UNL     1      -1.454   6.526 -28.944  1.00  0.00    -0.351 N 
HETATM   28  H   UNL     1      -2.207   6.602 -28.266  1.00  0.00     0.163 HD
HETATM   29  O   UNL     1      -1.026   6.803 -31.192  1.00  0.00    -0.271 OA
BRANCH  27  30
HETATM   30  C   UNL     1      -0.078   6.443 -28.439  1.00  0.00     0.022 C 
HETATM   31  C   UNL     1       0.666   7.762 -28.689  1.00  0.00     0.037 C 
HETATM   32  C   UNL     1       0.686   5.274 -29.082  1.00  0.00     0.037 C 
HETATM   33  C   UNL     1      -0.144   6.193 -26.921  1.00  0.00     0.037 C 
ENDBRANCH  27  30
ENDBRANCH  25  26
ENDBRANCH  24  25
ENDBRANCH   1  24
TORSDOF 8
ENDMDL
MODEL 2
REMARK VINA RESULT:      -8.1      2.889      3.770
REMARK  8 active torsions:
REMARK  status: ('A' for Active; 'I' for Inactive)
REMARK    1  A    between atoms: C_2  and  N_3 
REMARK       I    between atoms: N_3  and  C_4 
REMARK    2  A    between atoms: C_4  and  C_5 
REMARK    3  A    between atoms: C_5  and  O_6 
REMARK    4  A    between atoms: O_6  and  C_7 
REMARK    5  A    between atoms: C_8  and  O_9 
REMARK    6  A    between atoms: C_12  and  C_13 
REMARK    7  A    between atoms: C_13  and  N_14 
REMARK    8  A    between atoms: N_14  and  C_15 
ROOT
HETATM    1  C   UNL     1      -4.317   4.463 -30.841  1.00  0.00     0.102 A 
HETATM    2  C   UNL     1      -3.399   3.561 -31.404  1.00  0.00     0.102 A 
HETATM    3  C   UNL     1      -3.669   2.183 -31.361  1.00  0.00     0.048 A 
HETATM    4  C   UNL     1      -4.854   1.686 -30.807  1.00  0.00    -0.042 A 
HETATM    5  C   UNL     1      -5.762   2.591 -30.252  1.00  0.00     0.011 A 
HETATM    6  C   UNL     1      -5.499   3.964 -30.275  1.00  0.00     0.040 A 
ENDROOT
BRANCH   4   7
HETATM    7  C   UNL     1      -5.147   0.206 -30.801  1.00  0.00     0.131 C 
BRANCH   7   8
HETATM    8  N   UNL     1      -5.273  -0.271 -32.172  1.00  0.00    -0.289 NA
HETATM    9  H   UNL     1      -4.431  -0.083 -32.712  1.00  0.00     0.128 HD
BRANCH   8  10
HETATM   10  C   UNL     1      -6.439   0.043 -32.889  1.00  0.00     0.010 A 
HETATM   11  C   UNL     1      -7.667   0.031 -32.203  1.00  0.00     0.055 A 
HETATM   12  C   UNL     1      -8.796   0.401 -32.897  1.00  0.00     0.065 A 
HETATM   13  C   UNL     1      -8.750   0.815 -34.223  1.00  0.00     0.063 A 
HETATM   14  N   UNL     1     -10.123   0.455 -32.480  1.00  0.00    -0.306 N 
HETATM   15  N   UNL     1     -10.043   1.122 -34.626  1.00  0.00    -0.307 N 
HETATM   16  C   UNL     1      -7.572   0.885 -34.921  1.00  0.00     0.034 A 
HETATM   17  C   UNL     1     -10.914   0.902 -33.548  1.00  0.00     0.325 A 
HETATM   18  H   UNL     1     -10.342   1.455 -35.528  1.00  0.00     0.170 HD
HETATM   19  O   UNL     1     -12.120   1.067 -33.542  1.00  0.00    -0.247 OA
HETATM   20  C   UNL     1      -6.410   0.506 -34.232  1.00  0.00     0.026 A 
HETATM   21  H   UNL     1     -10.488   0.222 -31.571  1.00  0.00     0.170 HD
ENDBRANCH   8  10
ENDBRANCH   7   8
ENDBRANCH   4   7
BRANCH   2  22
HETATM   22  O   UNL     1      -2.196   3.832 -32.003  1.00  0.00    -0.353 OA
HETATM   23  C   UNL     1      -2.192   4.349 -33.325  1.00  0.00     0.210 C 
ENDBRANCH   2  22
BRANCH   1  24
HETATM   24  O   UNL     1      -4.053   5.805 -30.918  1.00  0.00    -0.339 OA
BRANCH  24  25
HETATM   25  C   UNL     1      -3.697   6.492 -29.722  1.00  0.00     0.278 C 
BRANCH  25  26
HETATM   26  C   UNL     1      -2.248   6.993 -29.676  1.00  0.00     0.242 C 
HETATM   27  N   UNL     1      -1.301   6.016 -29.897  1.00  0.00    -0.351 N 
HETATM   28  H   UNL     1      -1.656   5.065 -29.936  1.00  0.00     0.163 HD
HETATM   29  O   UNL     1      -1.986   8.174 -29.464  1.00  0.00    -0.271 OA
BRANCH  27  30
HETATM   30  C   UNL     1       0.154   6.206 -29.861  1.00  0.00     0.022 C 
HETATM   31  C   UNL     1       0.868   4.857 -29.702  1.00  0.00     0.037 C 
HETATM   32  C   UNL     1       0.568   7.160 -28.729  1.00  0.00     0.037 C 
HETATM   33  C   UNL     1       0.583   6.838 -31.199  1.00  0.00     0.037 C 
ENDBRANCH  27  30
ENDBRANCH  25  26
ENDBRANCH  24  25
ENDBRANCH   1  24
TORSDOF 8
ENDMDL
MODEL 3
REMARK VINA RESULT:      -8.0      1.611      1.923
REMARK  8 active torsions:
REMARK  status: ('A' for Active; 'I' for Inactive)
REMARK    1  A    between atoms: C_2  and  N_3 
REMARK       I    between atoms: N_3  and  C_4 
REMARK    2  A    between atoms: C_4  and  C_5 
REMARK    3  A    between atoms: C_5  and  O_6 
REMARK    4  A    between atoms: O_6  and  C_7 
REMARK    5  A    between atoms: C_8  and  O_9 
REMARK    6  A    between atoms: C_12  and  C_13 
REMARK    7  A    between atoms: C_13  and  N_14 
REMARK    8  A    between atoms: N_14  and  C_15 
ROOT
HETATM    1  C   UNL     1      -4.758   5.369 -30.823  1.00  0.00     0.102 A 
HETATM    2  C   UNL     1      -3.964   4.257 -31.150  1.00  0.00     0.102 A 
HETATM    3  C   UNL     1      -4.546   2.980 -31.188  1.00  0.00     0.048 A 
HETATM    4  C   UNL     1      -5.912   2.790 -30.950  1.00  0.00    -0.042 A 
HETATM    5  C   UNL     1      -6.694   3.902 -30.627  1.00  0.00     0.011 A 
HETATM    6  C   UNL     1      -6.125   5.177 -30.572  1.00  0.00     0.040 A 
ENDROOT
BRANCH   4   7
HETATM    7  C   UNL     1      -6.531   1.416 -31.031  1.00  0.00     0.131 C 
BRANCH   7   8
HETATM    8  N   UNL     1      -6.743   1.059 -32.428  1.00  0.00    -0.289 NA
HETATM    9  H   UNL     1      -7.724   1.130 -32.687  1.00  0.00     0.128 HD
BRANCH   8  10
HETATM   10  C   UNL     1      -6.153  -0.117 -32.918  1.00  0.00     0.010 A 
HETATM   11  C   UNL     1      -6.981  -1.069 -33.541  1.00  0.00     0.055 A 
HETATM   12  C   UNL     1      -6.386  -2.189 -34.074  1.00  0.00     0.065 A 
HETATM   13  C   UNL     1      -5.010  -2.384 -34.047  1.00  0.00     0.063 A 
HETATM   14  N   UNL     1      -6.959  -3.285 -34.714  1.00  0.00    -0.306 N 
HETATM   15  N   UNL     1      -4.732  -3.596 -34.666  1.00  0.00    -0.307 N 
HETATM   16  C   UNL     1      -4.158  -1.464 -33.491  1.00  0.00     0.034 A 
HETATM   17  C   UNL     1      -5.939  -4.172 -35.088  1.00  0.00     0.325 A 
HETATM   18  H   UNL     1      -3.829  -4.017 -34.812  1.00  0.00     0.170 HD
HETATM   19  O   UNL     1      -6.074  -5.236 -35.666  1.00  0.00    -0.247 OA
HETATM   20  C   UNL     1      -4.746  -0.318 -32.936  1.00  0.00     0.026 A 
HETATM   21  H   UNL     1      -7.936  -3.445 -34.896  1.00  0.00     0.170 HD
ENDBRANCH   8  10
ENDBRANCH   7   8
ENDBRANCH   4   7
BRANCH   2  22
HETATM   22  O   UNL     1      -2.623   4.221 -31.431  1.00  0.00    -0.353 OA
HETATM   23  C   UNL     1      -2.199   4.427 -32.769  1.00  0.00     0.210 C 
ENDBRANCH   2  22
BRANCH   1  24
HETATM   24  O   UNL     1      -4.181   6.612 -30.819  1.00  0.00    -0.339 OA
BRANCH  24  25
HETATM   25  C   UNL     1      -3.603   7.082 -29.605  1.00  0.00     0.278 C 
BRANCH  25  26
HETATM   26  C   UNL     1      -2.106   7.409 -29.690  1.00  0.00     0.242 C 
HETATM   27  N   UNL     1      -1.283   6.304 -29.707  1.00  0.00    -0.351 N 
HETATM   28  H   UNL     1      -1.743   5.415 -29.531  1.00  0.00     0.163 HD
HETATM   29  O   UNL     1      -1.708   8.569 -29.745  1.00  0.00    -0.271 OA
BRANCH  27  30
HETATM   30  C   UNL     1       0.184   6.326 -29.734  1.00  0.00     0.022 C 
HETATM   31  C   UNL     1       0.747   4.910 -29.549  1.00  0.00     0.037 C 
HETATM   32  C   UNL     1       0.752   7.266 -28.658  1.00  0.00     0.037 C 
HETATM   33  C   UNL     1       0.625   6.857 -31.111  1.00  0.00     0.037 C 
ENDBRANCH  27  30
ENDBRANCH  25  26
ENDBRANCH  24  25
ENDBRANCH   1  24
TORSDOF 8
ENDMDL
MODEL 4
REMARK VINA RESULT:      -7.8      1.641      2.079
REMARK  8 active torsions:
REMARK  status: ('A' for Active; 'I' for Inactive)
REMARK    1  A    between atoms: C_2  and  N_3 
REMARK       I    between atoms: N_3  and  C_4 
REMARK    2  A    between atoms: C_4  and  C_5 
REMARK    3  A    between atoms: C_5  and  O_6 
REMARK    4  A    between atoms: O_6  and  C_7 
REMARK    5  A    between atoms: C_8  and  O_9 
REMARK    6  A    between atoms: C_12  and  C_13 
REMARK    7  A    between atoms: C_13  and  N_14 
REMARK    8  A    between atoms: N_14  and  C_15 
ROOT
HETATM    1  C   UNL     1      -2.711   4.462 -32.081  1.00  0.00     0.102 A 
HETATM    2  C   UNL     1      -3.704   4.670 -33.054  1.00  0.00     0.102 A 
HETATM    3  C   UNL     1      -4.796   3.791 -33.124  1.00  0.00     0.048 A 
HETATM    4  C   UNL     1      -4.945   2.734 -32.219  1.00  0.00    -0.042 A 
HETATM    5  C   UNL     1      -3.954   2.536 -31.255  1.00  0.00     0.011 A 
HETATM    6  C   UNL     1      -2.854   3.395 -31.183  1.00  0.00     0.040 A 
ENDROOT
BRANCH   4   7
HETATM    7  C   UNL     1      -6.144   1.819 -32.284  1.00  0.00     0.131 C 
BRANCH   7   8
HETATM    8  N   UNL     1      -6.346   1.378 -33.658  1.00  0.00    -0.289 NA
HETATM    9  H   UNL     1      -7.244   1.688 -34.022  1.00  0.00     0.128 HD
BRANCH   8  10
HETATM   10  C   UNL     1      -6.084   0.036 -33.978  1.00  0.00     0.010 A 
HETATM   11  C   UNL     1      -4.956  -0.579 -33.405  1.00  0.00     0.055 A 
HETATM   12  C   UNL     1      -4.742  -1.911 -33.674  1.00  0.00     0.065 A 
HETATM   13  C   UNL     1      -5.615  -2.661 -34.453  1.00  0.00     0.063 A 
HETATM   14  N   UNL     1      -3.708  -2.749 -33.265  1.00  0.00    -0.306 N 
HETATM   15  N   UNL     1      -5.124  -3.958 -34.528  1.00  0.00    -0.307 N 
HETATM   16  C   UNL     1      -6.751  -2.118 -34.997  1.00  0.00     0.034 A 
HETATM   17  C   UNL     1      -3.932  -4.030 -33.791  1.00  0.00     0.325 A 
HETATM   18  H   UNL     1      -5.530  -4.740 -35.013  1.00  0.00     0.170 HD
HETATM   19  O   UNL     1      -3.229  -5.013 -33.639  1.00  0.00    -0.247 OA
HETATM   20  C   UNL     1      -6.983  -0.759 -34.739  1.00  0.00     0.026 A 
HETATM   21  H   UNL     1      -2.919  -2.510 -32.687  1.00  0.00     0.170 HD
ENDBRANCH   8  10
ENDBRANCH   7   8
ENDBRANCH   4   7
BRANCH   2  22
HETATM   22  O   UNL     1      -3.762   5.642 -34.018  1.00  0.00    -0.353 OA
HETATM   23  C   UNL     1      -3.836   5.250 -35.380  1.00  0.00     0.210 C 
ENDBRANCH   2  22
BRANCH   1  24
HETATM   24  O   UNL     1      -1.667   5.347 -32.007  1.00  0.00    -0.339 OA
BRANCH  24  25
HETATM   25  C   UNL     1      -0.579   5.033 -31.142  1.00  0.00     0.278 C 
BRANCH  25  26
HETATM   26  C   UNL     1      -0.128   6.185 -30.233  1.00  0.00     0.242 C 
HETATM   27  N   UNL     1      -0.661   6.146 -28.962  1.00  0.00    -0.351 N 
HETATM   28  H   UNL     1      -1.382   5.447 -28.812  1.00  0.00     0.163 HD
HETATM   29  O   UNL     1       0.648   7.048 -30.632  1.00  0.00    -0.271 OA
BRANCH  27  30
HETATM   30  C   UNL     1      -0.440   7.144 -27.909  1.00  0.00     0.022 C 
HETATM   31  C   UNL     1      -0.814   8.546 -28.410  1.00  0.00     0.037 C 
HETATM   32  C   UNL     1       1.018   7.130 -27.419  1.00  0.00     0.037 C 
HETATM   33  C   UNL     1      -1.347   6.787 -26.718  1.00  0.00     0.037 C 
ENDBRANCH  27  30
ENDBRANCH  25  26
ENDBRANCH  24  25
ENDBRANCH   1  24
TORSDOF 8
ENDMDL
MODEL 5
REMARK VINA RESULT:      -7.8      4.187      7.779
REMARK  8 active torsions:
REMARK  status: ('A' for Active; 'I' for Inactive)
REMARK    1  A    between atoms: C_2  and  N_3 
REMARK       I    between atoms: N_3  and  C_4 
REMARK    2  A    between atoms: C_4  and  C_5 
REMARK    3  A    between atoms: C_5  and  O_6 
REMARK    4  A    between atoms: O_6  and  C_7 
REMARK    5  A    between atoms: C_8  and  O_9 
REMARK    6  A    between atoms: C_12  and  C_13 
REMARK    7  A    between atoms: C_13  and  N_14 
REMARK    8  A    between atoms: N_14  and  C_15 
ROOT
HETATM    1  C   UNL     1      -7.376   1.739 -31.652  1.00  0.00     0.102 A 
HETATM    2  C   UNL     1      -6.247   2.452 -32.086  1.00  0.00     0.102 A 
HETATM    3  C   UNL     1      -4.965   1.953 -31.806  1.00  0.00     0.048 A 
HETATM    4  C   UNL     1      -4.782   0.735 -31.140  1.00  0.00    -0.042 A 
HETATM    5  C   UNL     1      -5.912   0.033 -30.714  1.00  0.00     0.011 A 
HETATM    6  C   UNL     1      -7.194   0.526 -30.973  1.00  0.00     0.040 A 
ENDROOT
BRANCH   4   7
HETATM    7  C   UNL     1      -3.399   0.193 -30.879  1.00  0.00     0.131 C 
BRANCH   7   8
HETATM    8  N   UNL     1      -2.863  -0.384 -32.105  1.00  0.00    -0.289 NA
HETATM    9  H   UNL     1      -2.867   0.289 -32.868  1.00  0.00     0.128 HD
BRANCH   8  10
HETATM   10  C   UNL     1      -3.326  -1.645 -32.513  1.00  0.00     0.010 A 
HETATM   11  C   UNL     1      -4.219  -1.708 -33.598  1.00  0.00     0.055 A 
HETATM   12  C   UNL     1      -4.619  -2.951 -34.032  1.00  0.00     0.065 A 
HETATM   13  C   UNL     1      -4.144  -4.126 -33.460  1.00  0.00     0.063 A 
HETATM   14  N   UNL     1      -5.501  -3.300 -35.051  1.00  0.00    -0.306 N 
HETATM   15  N   UNL     1      -4.730  -5.197 -34.121  1.00  0.00    -0.307 N 
HETATM   16  C   UNL     1      -3.240  -4.116 -32.430  1.00  0.00     0.034 A 
HETATM   17  C   UNL     1      -5.582  -4.698 -35.119  1.00  0.00     0.325 A 
HETATM   18  H   UNL     1      -4.587  -6.178 -33.947  1.00  0.00     0.170 HD
HETATM   19  O   UNL     1      -6.258  -5.353 -35.891  1.00  0.00    -0.247 OA
HETATM   20  C   UNL     1      -2.824  -2.858 -31.969  1.00  0.00     0.026 A 
HETATM   21  H   UNL     1      -6.010  -2.679 -35.659  1.00  0.00     0.170 HD
ENDBRANCH   8  10
ENDBRANCH   7   8
ENDBRANCH   4   7
BRANCH   2  22
HETATM   22  O   UNL     1      -6.199   3.645 -32.760  1.00  0.00    -0.353 OA
HETATM   23  C   UNL     1      -6.361   4.850 -32.028  1.00  0.00     0.210 C 
ENDBRANCH   2  22
BRANCH   1  24
HETATM   24  O   UNL     1      -8.620   2.225 -31.959  1.00  0.00    -0.339 OA
BRANCH  24  25
HETATM   25  C   UNL     1      -9.539   1.358 -32.617  1.00  0.00     0.278 C 
BRANCH  25  26
HETATM   26  C   UNL     1     -10.836   2.031 -33.084  1.00  0.00     0.242 C 
HETATM   27  N   UNL     1     -11.893   1.163 -33.264  1.00  0.00    -0.351 N 
HETATM   28  H   UNL     1     -11.663   0.176 -33.195  1.00  0.00     0.163 HD
HETATM   29  O   UNL     1     -10.898   3.243 -33.266  1.00  0.00    -0.271 OA
BRANCH  27  30
HETATM   30  C   UNL     1     -13.229   1.528 -33.750  1.00  0.00     0.022 C 
HETATM   31  C   UNL     1     -13.886   2.543 -32.804  1.00  0.00     0.037 C 
HETATM   32  C   UNL     1     -14.128   0.290 -33.904  1.00  0.00     0.037 C 
HETATM   33  C   UNL     1     -13.069   2.178 -35.137  1.00  0.00     0.037 C 
ENDBRANCH  27  30
ENDBRANCH  25  26
ENDBRANCH  24  25
ENDBRANCH   1  24
TORSDOF 8
ENDMDL
MODEL 6
REMARK VINA RESULT:      -7.7      2.611      9.432
REMARK  8 active torsions:
REMARK  status: ('A' for Active; 'I' for Inactive)
REMARK    1  A    between atoms: C_2  and  N_3 
REMARK       I    between atoms: N_3  and  C_4 
REMARK    2  A    between atoms: C_4  and  C_5 
REMARK    3  A    between atoms: C_5  and  O_6 
REMARK    4  A    between atoms: O_6  and  C_7 
REMARK    5  A    between atoms: C_8  and  O_9 
REMARK    6  A    between atoms: C_12  and  C_13 
REMARK    7  A    between atoms: C_13  and  N_14 
REMARK    8  A    between atoms: N_14  and  C_15 
ROOT
HETATM    1  C   UNL     1      -4.457   3.722 -32.183  1.00  0.00     0.102 A 
HETATM    2  C   UNL     1      -4.928   4.906 -32.775  1.00  0.00     0.102 A 
HETATM    3  C   UNL     1      -4.026   5.749 -33.445  1.00  0.00     0.048 A 
HETATM    4  C   UNL     1      -2.673   5.417 -33.576  1.00  0.00    -0.042 A 
HETATM    5  C   UNL     1      -2.215   4.237 -32.985  1.00  0.00     0.011 A 
HETATM    6  C   UNL     1      -3.098   3.396 -32.303  1.00  0.00     0.040 A 
ENDROOT
BRANCH   4   7
HETATM    7  C   UNL     1      -1.724   6.315 -34.330  1.00  0.00     0.131 C 
BRANCH   7   8
HETATM    8  N   UNL     1      -1.640   7.607 -33.662  1.00  0.00    -0.289 NA
HETATM    9  H   UNL     1      -1.148   8.291 -34.232  1.00  0.00     0.128 HD
BRANCH   8  10
HETATM   10  C   UNL     1      -1.225   7.644 -32.321  1.00  0.00     0.010 A 
HETATM   11  C   UNL     1      -2.045   8.304 -31.387  1.00  0.00     0.055 A 
HETATM   12  C   UNL     1      -1.663   8.281 -30.065  1.00  0.00     0.065 A 
HETATM   13  C   UNL     1      -0.529   7.604 -29.632  1.00  0.00     0.063 A 
HETATM   14  N   UNL     1      -2.263   8.864 -28.953  1.00  0.00    -0.306 N 
HETATM   15  N   UNL     1      -0.427   7.769 -28.256  1.00  0.00    -0.307 N 
HETATM   16  C   UNL     1       0.277   6.910 -30.497  1.00  0.00     0.034 A 
HETATM   17  C   UNL     1      -1.503   8.554 -27.816  1.00  0.00     0.325 A 
HETATM   18  H   UNL     1       0.281   7.396 -27.645  1.00  0.00     0.170 HD
HETATM   19  O   UNL     1      -1.731   8.899 -26.671  1.00  0.00    -0.247 OA
HETATM   20  C   UNL     1      -0.092   6.926 -31.850  1.00  0.00     0.026 A 
HETATM   21  H   UNL     1      -3.103   9.418 -28.932  1.00  0.00     0.170 HD
ENDBRANCH   8  10
ENDBRANCH   7   8
ENDBRANCH   4   7
BRANCH   2  22
HETATM   22  O   UNL     1      -6.204   5.408 -32.779  1.00  0.00    -0.353 OA
HETATM   23  C   UNL     1      -7.108   4.967 -33.780  1.00  0.00     0.210 C 
ENDBRANCH   2  22
BRANCH   1  24
HETATM   24  O   UNL     1      -5.355   2.896 -31.558  1.00  0.00    -0.339 OA
BRANCH  24  25
HETATM   25  C   UNL     1      -4.964   1.551 -31.296  1.00  0.00     0.278 C 
BRANCH  25  26
HETATM   26  C   UNL     1      -5.936   0.485 -31.819  1.00  0.00     0.242 C 
HETATM   27  N   UNL     1      -6.269   0.625 -33.150  1.00  0.00    -0.351 N 
HETATM   28  H   UNL     1      -5.943   1.478 -33.594  1.00  0.00     0.163 HD
HETATM   29  O   UNL     1      -6.358  -0.408 -31.091  1.00  0.00    -0.271 OA
BRANCH  27  30
HETATM   30  C   UNL     1      -7.212  -0.221 -33.891  1.00  0.00     0.022 C 
HETATM   31  C   UNL     1      -8.608  -0.151 -33.258  1.00  0.00     0.037 C 
HETATM   32  C   UNL     1      -6.731  -1.680 -33.951  1.00  0.00     0.037 C 
HETATM   33  C   UNL     1      -7.296   0.313 -35.333  1.00  0.00     0.037 C 
ENDBRANCH  27  30
ENDBRANCH  25  26
ENDBRANCH  24  25
ENDBRANCH   1  24
TORSDOF 8
ENDMDL
MODEL 7
REMARK VINA RESULT:      -7.5      5.453      8.401
REMARK  8 active torsions:
REMARK  status: ('A' for Active; 'I' for Inactive)
REMARK    1  A    between atoms: C_2  and  N_3 
REMARK       I    between atoms: N_3  and  C_4 
REMARK    2  A    between atoms: C_4  and  C_5 
REMARK    3  A    between atoms: C_5  and  O_6 
REMARK    4  A    between atoms: O_6  and  C_7 
REMARK    5  A    between atoms: C_8  and  O_9 
REMARK    6  A    between atoms: C_12  and  C_13 
REMARK    7  A    between atoms: C_13  and  N_14 
REMARK    8  A    between atoms: N_14  and  C_15 
ROOT
HETATM    1  C   UNL     1     -10.352   4.006 -31.567  1.00  0.00     0.102 A 
HETATM    2  C   UNL     1      -9.887   3.388 -32.740  1.00  0.00     0.102 A 
HETATM    3  C   UNL     1      -8.679   2.673 -32.710  1.00  0.00     0.048 A 
HETATM    4  C   UNL     1      -7.945   2.521 -31.528  1.00  0.00    -0.042 A 
HETATM    5  C   UNL     1      -8.418   3.138 -30.367  1.00  0.00     0.011 A 
HETATM    6  C   UNL     1      -9.611   3.865 -30.385  1.00  0.00     0.040 A 
ENDROOT
BRANCH   4   7
HETATM    7  C   UNL     1      -6.668   1.718 -31.504  1.00  0.00     0.131 C 
BRANCH   7   8
HETATM    8  N   UNL     1      -6.124   1.629 -32.853  1.00  0.00    -0.289 NA
HETATM    9  H   UNL     1      -6.599   2.264 -33.490  1.00  0.00     0.128 HD
BRANCH   8  10
HETATM   10  C   UNL     1      -5.936   0.358 -33.419  1.00  0.00     0.010 A 
HETATM   11  C   UNL     1      -4.884  -0.439 -32.934  1.00  0.00     0.055 A 
HETATM   12  C   UNL     1      -4.745  -1.707 -33.450  1.00  0.00     0.065 A 
HETATM   13  C   UNL     1      -5.625  -2.225 -34.394  1.00  0.00     0.063 A 
HETATM   14  N   UNL     1      -3.793  -2.685 -33.174  1.00  0.00    -0.306 N 
HETATM   15  N   UNL     1      -5.218  -3.516 -34.702  1.00  0.00    -0.307 N 
HETATM   16  C   UNL     1      -6.691  -1.503 -34.864  1.00  0.00     0.034 A 
HETATM   17  C   UNL     1      -4.075  -3.820 -33.949  1.00  0.00     0.325 A 
HETATM   18  H   UNL     1      -5.651  -4.158 -35.346  1.00  0.00     0.170 HD
HETATM   19  O   UNL     1      -3.448  -4.864 -33.965  1.00  0.00    -0.247 OA
HETATM   20  C   UNL     1      -6.846  -0.205 -34.355  1.00  0.00     0.026 A 
HETATM   21  H   UNL     1      -3.021  -2.622 -32.531  1.00  0.00     0.170 HD
ENDBRANCH   8  10
ENDBRANCH   7   8
ENDBRANCH   4   7
BRANCH   2  22
HETATM   22  O   UNL     1     -10.450   3.398 -33.990  1.00  0.00    -0.353 OA
HETATM   23  C   UNL     1     -10.278   4.545 -34.808  1.00  0.00     0.210 C 
ENDBRANCH   2  22
BRANCH   1  24
HETATM   24  O   UNL     1     -11.548   4.675 -31.605  1.00  0.00    -0.339 OA
BRANCH  24  25
HETATM   25  C   UNL     1     -12.718   3.989 -31.171  1.00  0.00     0.278 C 
BRANCH  25  26
HETATM   26  C   UNL     1     -13.548   3.358 -32.296  1.00  0.00     0.242 C 
HETATM   27  N   UNL     1     -13.128   2.100 -32.673  1.00  0.00    -0.351 N 
HETATM   28  H   UNL     1     -12.252   1.791 -32.263  1.00  0.00     0.163 HD
HETATM   29  O   UNL     1     -14.504   3.946 -32.794  1.00  0.00    -0.271 OA
BRANCH  27  30
HETATM   30  C   UNL     1     -13.707   1.290 -33.752  1.00  0.00     0.022 C 
HETATM   31  C   UNL     1     -13.323   1.867 -35.122  1.00  0.00     0.037 C 
HETATM   32  C   UNL     1     -15.236   1.198 -33.628  1.00  0.00     0.037 C 
HETATM   33  C   UNL     1     -13.131  -0.134 -33.638  1.00  0.00     0.037 C 
ENDBRANCH  27  30
ENDBRANCH  25  26
ENDBRANCH  24  25
ENDBRANCH   1  24
TORSDOF 8
ENDMDL
MODEL 8
REMARK VINA RESULT:      -7.4      2.137      3.027
REMARK  8 active torsions:
REMARK  status: ('A' for Active; 'I' for Inactive)
REMARK    1  A    between atoms: C_2  and  N_3 
REMARK       I    between atoms: N_3  and  C_4 
REMARK    2  A    between atoms: C_4  and  C_5 
REMARK    3  A    between atoms: C_5  and  O_6 
REMARK    4  A    between atoms: O_6  and  C_7 
REMARK    5  A    between atoms: C_8  and  O_9 
REMARK    6  A    between atoms: C_12  and  C_13 
REMARK    7  A    between atoms: C_13  and  N_14 
REMARK    8  A    between atoms: N_14  and  C_15 
ROOT
HETATM    1  C   UNL     1      -5.253   4.506 -31.582  1.00  0.00     0.102 A 
HETATM    2  C   UNL     1      -6.042   4.459 -30.421  1.00  0.00     0.102 A 
HETATM    3  C   UNL     1      -7.333   3.911 -30.485  1.00  0.00     0.048 A 
HETATM    4  C   UNL     1      -7.841   3.368 -31.671  1.00  0.00    -0.042 A 
HETATM    5  C   UNL     1      -7.048   3.417 -32.820  1.00  0.00     0.011 A 
HETATM    6  C   UNL     1      -5.766   3.974 -32.774  1.00  0.00     0.040 A 
ENDROOT
BRANCH   4   7
HETATM    7  C   UNL     1      -9.216   2.748 -31.715  1.00  0.00     0.131 C 
BRANCH   7   8
HETATM    8  N   UNL     1      -9.155   1.391 -31.187  1.00  0.00    -0.289 NA
HETATM    9  H   UNL     1      -9.234   1.381 -30.173  1.00  0.00     0.128 HD
BRANCH   8  10
HETATM   10  C   UNL     1      -8.140   0.536 -31.645  1.00  0.00     0.010 A 
HETATM   11  C   UNL     1      -8.261  -0.013 -32.934  1.00  0.00     0.055 A 
HETATM   12  C   UNL     1      -7.231  -0.798 -33.399  1.00  0.00     0.065 A 
HETATM   13  C   UNL     1      -6.079  -1.029 -32.655  1.00  0.00     0.063 A 
HETATM   14  N   UNL     1      -7.101  -1.477 -34.607  1.00  0.00    -0.306 N 
HETATM   15  N   UNL     1      -5.241  -1.849 -33.400  1.00  0.00    -0.307 N 
HETATM   16  C   UNL     1      -5.896  -0.480 -31.412  1.00  0.00     0.034 A 
HETATM   17  C   UNL     1      -5.865  -2.139 -34.622  1.00  0.00     0.325 A 
HETATM   18  H   UNL     1      -4.330  -2.190 -33.141  1.00  0.00     0.170 HD
HETATM   19  O   UNL     1      -5.419  -2.830 -35.521  1.00  0.00    -0.247 OA
HETATM   20  C   UNL     1      -6.938   0.319 -30.918  1.00  0.00     0.026 A 
HETATM   21  H   UNL     1      -7.763  -1.508 -35.365  1.00  0.00     0.170 HD
ENDBRANCH   8  10
ENDBRANCH   7   8
ENDBRANCH   4   7
BRANCH   2  22
HETATM   22  O   UNL     1      -5.738   4.917 -29.165  1.00  0.00    -0.353 OA
HETATM   23  C   UNL     1      -6.796   5.328 -28.313  1.00  0.00     0.210 C 
ENDBRANCH   2  22
BRANCH   1  24
HETATM   24  O   UNL     1      -3.985   5.018 -31.497  1.00  0.00    -0.339 OA
BRANCH  24  25
HETATM   25  C   UNL     1      -2.901   4.210 -31.946  1.00  0.00     0.278 C 
BRANCH  25  26
HETATM   26  C   UNL     1      -1.521   4.874 -31.850  1.00  0.00     0.242 C 
HETATM   27  N   UNL     1      -1.043   5.006 -30.564  1.00  0.00    -0.351 N 
HETATM   28  H   UNL     1      -1.702   4.772 -29.827  1.00  0.00     0.163 HD
HETATM   29  O   UNL     1      -0.916   5.240 -32.853  1.00  0.00    -0.271 OA
BRANCH  27  30
HETATM   30  C   UNL     1       0.221   5.646 -30.180  1.00  0.00     0.022 C 
HETATM   31  C   UNL     1       0.325   7.045 -30.803  1.00  0.00     0.037 C 
HETATM   32  C   UNL     1       1.431   4.793 -30.591  1.00  0.00     0.037 C 
HETATM   33  C   UNL     1       0.235   5.787 -28.646  1.00  0.00     0.037 C 
ENDBRANCH  27  30
ENDBRANCH  25  26
ENDBRANCH  24  25
ENDBRANCH   1  24
TORSDOF 8
ENDMDL
MODEL 9
REMARK VINA RESULT:      -7.3      3.019      9.423
REMARK  8 active torsions:
REMARK  status: ('A' for Active; 'I' for Inactive)
REMARK    1  A    between atoms: C_2  and  N_3 
REMARK       I    between atoms: N_3  and  C_4 
REMARK    2  A    between atoms: C_4  and  C_5 
REMARK    3  A    between atoms: C_5  and  O_6 
REMARK    4  A    between atoms: O_6  and  C_7 
REMARK    5  A    between atoms: C_8  and  O_9 
REMARK    6  A    between atoms: C_12  and  C_13 
REMARK    7  A    between atoms: C_13  and  N_14 
REMARK    8  A    between atoms: N_14  and  C_15 
ROOT
HETATM    1  C   UNL     1      -3.433   4.991 -33.686  1.00  0.00     0.102 A 
HETATM    2  C   UNL     1      -2.921   4.036 -32.792  1.00  0.00     0.102 A 
HETATM    3  C   UNL     1      -1.811   4.362 -31.996  1.00  0.00     0.048 A 
HETATM    4  C   UNL     1      -1.227   5.632 -32.038  1.00  0.00    -0.042 A 
HETATM    5  C   UNL     1      -1.745   6.576 -32.928  1.00  0.00     0.011 A 
HETATM    6  C   UNL     1      -2.840   6.261 -33.738  1.00  0.00     0.040 A 
ENDROOT
BRANCH   4   7
HETATM    7  C   UNL     1      -0.058   5.979 -31.149  1.00  0.00     0.131 C 
BRANCH   7   8
HETATM    8  N   UNL     1      -0.316   7.246 -30.477  1.00  0.00    -0.289 NA
HETATM    9  H   UNL     1       0.469   7.885 -30.570  1.00  0.00     0.128 HD
BRANCH   8  10
HETATM   10  C   UNL     1      -0.822   7.221 -29.167  1.00  0.00     0.010 A 
HETATM   11  C   UNL     1      -2.106   7.750 -28.938  1.00  0.00     0.055 A 
HETATM   12  C   UNL     1      -2.620   7.664 -27.664  1.00  0.00     0.065 A 
HETATM   13  C   UNL     1      -1.932   7.047 -26.626  1.00  0.00     0.063 A 
HETATM   14  N   UNL     1      -3.833   8.120 -27.159  1.00  0.00    -0.306 N 
HETATM   15  N   UNL     1      -2.716   7.122 -25.482  1.00  0.00    -0.307 N 
HETATM   16  C   UNL     1      -0.698   6.478 -26.811  1.00  0.00     0.034 A 
HETATM   17  C   UNL     1      -3.908   7.791 -25.798  1.00  0.00     0.325 A 
HETATM   18  H   UNL     1      -2.501   6.762 -24.567  1.00  0.00     0.170 HD
HETATM   19  O   UNL     1      -4.827   8.036 -25.038  1.00  0.00    -0.247 OA
HETATM   20  C   UNL     1      -0.154   6.561 -28.101  1.00  0.00     0.026 A 
HETATM   21  H   UNL     1      -4.560   8.607 -27.659  1.00  0.00     0.170 HD
ENDBRANCH   8  10
ENDBRANCH   7   8
ENDBRANCH   4   7
BRANCH   2  22
HETATM   22  O   UNL     1      -3.346   2.750 -32.583  1.00  0.00    -0.353 OA
HETATM   23  C   UNL     1      -3.411   2.260 -31.253  1.00  0.00     0.210 C 
ENDBRANCH   2  22
BRANCH   1  24
HETATM   24  O   UNL     1      -4.535   4.667 -34.435  1.00  0.00    -0.339 OA
BRANCH  24  25
HETATM   25  C   UNL     1      -5.822   4.847 -33.852  1.00  0.00     0.278 C 
BRANCH  25  26
HETATM   26  C   UNL     1      -6.708   3.594 -33.852  1.00  0.00     0.242 C 
HETATM   27  N   UNL     1      -6.015   2.409 -33.732  1.00  0.00    -0.351 N 
HETATM   28  H   UNL     1      -5.004   2.487 -33.787  1.00  0.00     0.163 HD
HETATM   29  O   UNL     1      -7.929   3.675 -33.945  1.00  0.00    -0.271 OA
BRANCH  27  30
HETATM   30  C   UNL     1      -6.604   1.064 -33.753  1.00  0.00     0.022 C 
HETATM   31  C   UNL     1      -7.238   0.778 -35.121  1.00  0.00     0.037 C 
HETATM   32  C   UNL     1      -7.649   0.891 -32.639  1.00  0.00     0.037 C 
HETATM   33  C   UNL     1      -5.474   0.047 -33.510  1.00  0.00     0.037 C 
ENDBRANCH  27  30
ENDBRANCH  25  26
ENDBRANCH  24  25
ENDBRANCH   1  24
TORSDOF 8
ENDMDL
MODEL 10
REMARK VINA RESULT:      -7.2      4.869      6.607
REMARK  8 active torsions:
REMARK  status: ('A' for Active; 'I' for Inactive)
REMARK    1  A    between atoms: C_2  and  N_3 
REMARK       I    between atoms: N_3  and  C_4 
REMARK    2  A    between atoms: C_4  and  C_5 
REMARK    3  A    between atoms: C_5  and  O_6 
REMARK    4  A    between atoms: O_6  and  C_7 
REMARK    5  A    between atoms: C_8  and  O_9 
REMARK    6  A    between atoms: C_12  and  C_13 
REMARK    7  A    between atoms: C_13  and  N_14 
REMARK    8  A    between atoms: N_14  and  C_15 
ROOT
HETATM    1  C   UNL     1      -5.532   2.331 -32.262  1.00  0.00     0.102 A 
HETATM    2  C   UNL     1      -5.485   1.025 -32.777  1.00  0.00     0.102 A 
HETATM    3  C   UNL     1      -6.662   0.430 -33.259  1.00  0.00     0.048 A 
HETATM    4  C   UNL     1      -7.878   1.123 -33.280  1.00  0.00    -0.042 A 
HETATM    5  C   UNL     1      -7.914   2.422 -32.768  1.00  0.00     0.011 A 
HETATM    6  C   UNL     1      -6.753   3.021 -32.271  1.00  0.00     0.040 A 
ENDROOT
BRANCH   4   7
HETATM    7  C   UNL     1      -9.127   0.484 -33.836  1.00  0.00     0.131 C 
BRANCH   7   8
HETATM    8  N   UNL     1      -9.768   1.400 -34.770  1.00  0.00    -0.289 NA
HETATM    9  H   UNL     1      -9.117   2.105 -35.109  1.00  0.00     0.128 HD
BRANCH   8  10
HETATM   10  C   UNL     1     -11.010   1.955 -34.422  1.00  0.00     0.010 A 
HETATM   11  C   UNL     1     -11.920   1.157 -33.706  1.00  0.00     0.055 A 
HETATM   12  C   UNL     1     -13.109   1.729 -33.314  1.00  0.00     0.065 A 
HETATM   13  C   UNL     1     -13.411   3.061 -33.569  1.00  0.00     0.063 A 
HETATM   14  N   UNL     1     -14.184   1.172 -32.627  1.00  0.00    -0.306 N 
HETATM   15  N   UNL     1     -14.670   3.327 -33.045  1.00  0.00    -0.307 N 
HETATM   16  C   UNL     1     -12.538   3.891 -34.224  1.00  0.00     0.034 A 
HETATM   17  C   UNL     1     -15.167   2.157 -32.453  1.00  0.00     0.325 A 
HETATM   18  H   UNL     1     -15.168   4.201 -33.061  1.00  0.00     0.170 HD
HETATM   19  O   UNL     1     -16.242   2.022 -31.897  1.00  0.00    -0.247 OA
HETATM   20  C   UNL     1     -11.323   3.324 -34.638  1.00  0.00     0.026 A 
HETATM   21  H   UNL     1     -14.273   0.225 -32.295  1.00  0.00     0.170 HD
ENDBRANCH   8  10
ENDBRANCH   7   8
ENDBRANCH   4   7
BRANCH   2  22
HETATM   22  O   UNL     1      -4.408   0.181 -32.864  1.00  0.00    -0.353 OA
HETATM   23  C   UNL     1      -4.376  -0.972 -32.038  1.00  0.00     0.210 C 
ENDBRANCH   2  22
BRANCH   1  24
HETATM   24  O   UNL     1      -4.369   2.908 -31.823  1.00  0.00    -0.339 OA
BRANCH  24  25
HETATM   25  C   UNL     1      -4.453   4.146 -31.123  1.00  0.00     0.278 C 
BRANCH  25  26
HETATM   26  C   UNL     1      -3.323   5.137 -31.431  1.00  0.00     0.242 C 
HETATM   27  N   UNL     1      -2.826   5.050 -32.714  1.00  0.00    -0.351 N 
HETATM   28  H   UNL     1      -3.167   4.266 -33.262  1.00  0.00     0.163 HD
HETATM   29  O   UNL     1      -2.922   5.932 -30.586  1.00  0.00    -0.271 OA
BRANCH  27  30
HETATM   30  C   UNL     1      -1.715   5.840 -33.259  1.00  0.00     0.022 C 
HETATM   31  C   UNL     1      -2.084   7.329 -33.300  1.00  0.00     0.037 C 
HETATM   32  C   UNL     1      -1.317   5.355 -34.662  1.00  0.00     0.037 C 
HETATM   33  C   UNL     1      -0.502   5.657 -32.328  1.00  0.00     0.037 C 
ENDBRANCH  27  30
ENDBRANCH  25  26
ENDBRANCH  24  25
ENDBRANCH   1  24
TORSDOF 8
ENDMDL
