MODEL 1
REMARK VINA RESULT:      -9.0      0.000      0.000
REMARK  9 active torsions:
REMARK  status: ('A' for Active; 'I' for Inactive)
REMARK    1  A    between atoms: N_5  and  C_6 
REMARK    2  A    between atoms: C_6  and  C_7 
REMARK    3  A    between atoms: C_7  and  O_8 
REMARK    4  A    between atoms: C_7  and  C_9 
REMARK    5  A    between atoms: C_9  and  O_10 
REMARK    6  A    between atoms: O_10  and  C_11 
REMARK    7  A    between atoms: N_23  and  C_24 
REMARK    8  A    between atoms: C_24  and  C_25 
REMARK    9  A    between atoms: C_25  and  N_26 
ROOT
HETATM    1  C   UNL     1      -6.085  -2.421 -35.062  1.00  0.00     0.002 A 
HETATM    2  C   UNL     1      -7.100  -1.544 -34.668  1.00  0.00     0.032 A 
HETATM    3  C   UNL     1      -6.915  -0.860 -33.483  1.00  0.00     0.079 A 
HETATM    4  C   UNL     1      -5.747  -1.014 -32.695  1.00  0.00     0.079 A 
HETATM    5  N   UNL     1      -5.860  -0.181 -31.581  1.00  0.00    -0.179 N 
HETATM    6  C   UNL     1      -7.098   0.508 -31.687  1.00  0.00     0.681 A 
HETATM    7  N   UNL     1      -7.535   1.438 -30.812  1.00  0.00    -0.234 N 
HETATM    8  H   UNL     1      -8.381   1.976 -30.936  1.00  0.00     0.174 HD
HETATM    9  H   UNL     1      -6.997   1.640 -29.973  1.00  0.00     0.174 HD
HETATM   10  N   UNL     1      -7.786   0.098 -32.839  1.00  0.00    -0.180 N 
HETATM   11  C   UNL     1      -4.747  -1.876 -33.087  1.00  0.00     0.032 A 
HETATM   12  C   UNL     1      -4.927  -2.585 -34.279  1.00  0.00     0.002 A 
ENDROOT
BRANCH   5  13
HETATM   13  C   UNL     1      -4.734   0.096 -30.703  1.00  0.00     0.181 C 
BRANCH  13  14
HETATM   14  C   UNL     1      -3.517   0.701 -31.434  1.00  0.00     0.161 C 
BRANCH  14  15
HETATM   15  O   UNL     1      -2.338   0.141 -30.853  1.00  0.00    -0.392 OA
HETATM   16  H   UNL     1      -1.914   0.841 -30.319  1.00  0.00     0.210 HD
ENDBRANCH  14  15
BRANCH  14  17
HETATM   17  C   UNL     1      -3.463   2.225 -31.283  1.00  0.00     0.209 C 
BRANCH  17  18
HETATM   18  O   UNL     1      -3.125   2.824 -32.535  1.00  0.00    -0.347 OA
BRANCH  18  19
HETATM   19  C   UNL     1      -2.913   4.180 -32.487  1.00  0.00     0.090 A 
HETATM   20  C   UNL     1      -3.538   5.162 -33.275  1.00  0.00     0.069 A 
HETATM   21 CL   UNL     1      -4.698   4.801 -34.512  1.00  0.00    -0.081 Cl
HETATM   22  C   UNL     1      -3.208   6.511 -33.107  1.00  0.00     0.050 A 
HETATM   23  C   UNL     1      -2.241   6.880 -32.174  1.00  0.00     0.035 A 
HETATM   24 CL   UNL     1      -1.847   8.539 -31.969  1.00  0.00    -0.084 Cl
HETATM   25  C   UNL     1      -1.589   5.913 -31.416  1.00  0.00     0.026 A 
HETATM   26  C   UNL     1      -1.919   4.566 -31.579  1.00  0.00     0.040 A 
ENDBRANCH  18  19
ENDBRANCH  17  18
ENDBRANCH  14  17
ENDBRANCH  13  14
ENDBRANCH   5  13
BRANCH  10  27
HETATM   27  C   UNL     1      -9.026   0.636 -33.418  1.00  0.00     0.175 C 
BRANCH  27  28
HETATM   28  C   UNL     1     -10.298  -0.014 -32.831  1.00  0.00     0.256 C 
BRANCH  28  29
HETATM   29  N   UNL     1     -11.597   0.636 -33.262  1.00  0.00    -0.066 N 
HETATM   30  H   UNL     1     -11.915   1.185 -32.448  1.00  0.00     0.280 HD
HETATM   31  C   UNL     1     -11.474   1.650 -34.403  1.00  0.00     0.261 C 
HETATM   32  C   UNL     1     -12.832   2.317 -34.651  1.00  0.00     0.195 C 
HETATM   33  O   UNL     1     -13.825   1.328 -34.940  1.00  0.00    -0.388 OA
HETATM   34  C   UNL     1     -14.029   0.437 -33.840  1.00  0.00     0.195 C 
HETATM   35  C   UNL     1     -12.744  -0.345 -33.541  1.00  0.00     0.261 C 
ENDBRANCH  28  29
ENDBRANCH  27  28
ENDBRANCH  10  27
TORSDOF 9
ENDMDL
MODEL 2
REMARK VINA RESULT:      -8.6      2.116      2.500
REMARK  9 active torsions:
REMARK  status: ('A' for Active; 'I' for Inactive)
REMARK    1  A    between atoms: N_5  and  C_6 
REMARK    2  A    between atoms: C_6  and  C_7 
REMARK    3  A    between atoms: C_7  and  O_8 
REMARK    4  A    between atoms: C_7  and  C_9 
REMARK    5  A    between atoms: C_9  and  O_10 
REMARK    6  A    between atoms: O_10  and  C_11 
REMARK    7  A    between atoms: N_23  and  C_24 
REMARK    8  A    between atoms: C_24  and  C_25 
REMARK    9  A    between atoms: C_25  and  N_26 
ROOT
HETATM    1  C   UNL     1      -7.073  -0.536 -35.425  1.00  0.00     0.002 A 
HETATM    2  C   UNL     1      -8.048   0.372 -35.003  1.00  0.00     0.032 A 
HETATM    3  C   UNL     1      -8.168   0.579 -33.644  1.00  0.00     0.079 A 
HETATM    4  C   UNL     1      -7.337  -0.079 -32.703  1.00  0.00     0.079 A 
HETATM    5  N   UNL     1      -7.697   0.355 -31.426  1.00  0.00    -0.179 N 
HETATM    6  C   UNL     1      -8.746   1.301 -31.576  1.00  0.00     0.681 A 
HETATM    7  N   UNL     1      -9.323   1.974 -30.559  1.00  0.00    -0.234 N 
HETATM    8  H   UNL     1     -10.015   2.699 -30.682  1.00  0.00     0.174 HD
HETATM    9  H   UNL     1      -9.059   1.769 -29.598  1.00  0.00     0.174 HD
HETATM   10  N   UNL     1      -9.077   1.449 -32.931  1.00  0.00    -0.180 N 
HETATM   11  C   UNL     1      -6.375  -0.971 -33.121  1.00  0.00     0.032 A 
HETATM   12  C   UNL     1      -6.250  -1.199 -34.495  1.00  0.00     0.002 A 
ENDROOT
BRANCH   5  13
HETATM   13  C   UNL     1      -6.883   0.074 -30.253  1.00  0.00     0.181 C 
BRANCH  13  14
HETATM   14  C   UNL     1      -5.930   1.229 -29.874  1.00  0.00     0.161 C 
BRANCH  14  15
HETATM   15  O   UNL     1      -6.725   2.290 -29.341  1.00  0.00    -0.392 OA
HETATM   16  H   UNL     1      -6.801   2.142 -28.377  1.00  0.00     0.210 HD
ENDBRANCH  14  15
BRANCH  14  17
HETATM   17  C   UNL     1      -5.162   1.754 -31.092  1.00  0.00     0.209 C 
BRANCH  17  18
HETATM   18  O   UNL     1      -5.193   3.182 -31.106  1.00  0.00    -0.347 OA
BRANCH  18  19
HETATM   19  C   UNL     1      -4.363   3.768 -32.029  1.00  0.00     0.090 A 
HETATM   20  C   UNL     1      -4.722   4.265 -33.294  1.00  0.00     0.069 A 
HETATM   21 CL   UNL     1      -6.330   4.179 -33.935  1.00  0.00    -0.081 Cl
HETATM   22  C   UNL     1      -3.751   4.835 -34.125  1.00  0.00     0.050 A 
HETATM   23  C   UNL     1      -2.423   4.888 -33.708  1.00  0.00     0.035 A 
HETATM   24 CL   UNL     1      -1.238   5.595 -34.732  1.00  0.00    -0.084 Cl
HETATM   25  C   UNL     1      -2.050   4.366 -32.474  1.00  0.00     0.026 A 
HETATM   26  C   UNL     1      -3.018   3.799 -31.641  1.00  0.00     0.040 A 
ENDBRANCH  18  19
ENDBRANCH  17  18
ENDBRANCH  14  17
ENDBRANCH  13  14
ENDBRANCH   5  13
BRANCH  10  27
HETATM   27  C   UNL     1      -9.997   2.409 -33.561  1.00  0.00     0.175 C 
BRANCH  27  28
HETATM   28  C   UNL     1     -11.393   1.814 -33.838  1.00  0.00     0.256 C 
BRANCH  28  29
HETATM   29  N   UNL     1     -12.459   2.206 -32.835  1.00  0.00    -0.066 N 
HETATM   30  H   UNL     1     -12.300   1.604 -32.012  1.00  0.00     0.280 HD
HETATM   31  C   UNL     1     -12.361   3.640 -32.305  1.00  0.00     0.261 C 
HETATM   32  C   UNL     1     -13.417   3.861 -31.215  1.00  0.00     0.195 C 
HETATM   33  O   UNL     1     -14.724   3.584 -31.725  1.00  0.00    -0.388 OA
HETATM   34  C   UNL     1     -14.865   2.217 -32.125  1.00  0.00     0.195 C 
HETATM   35  C   UNL     1     -13.897   1.895 -33.271  1.00  0.00     0.261 C 
ENDBRANCH  28  29
ENDBRANCH  27  28
ENDBRANCH  10  27
TORSDOF 9
ENDMDL
MODEL 3
REMARK VINA RESULT:      -8.4      4.553      9.648
REMARK  9 active torsions:
REMARK  status: ('A' for Active; 'I' for Inactive)
REMARK    1  A    between atoms: N_5  and  C_6 
REMARK    2  A    between atoms: C_6  and  C_7 
REMARK    3  A    between atoms: C_7  and  O_8 
REMARK    4  A    between atoms: C_7  and  C_9 
REMARK    5  A    between atoms: C_9  and  O_10 
REMARK    6  A    between atoms: O_10  and  C_11 
REMARK    7  A    between atoms: N_23  and  C_24 
REMARK    8  A    between atoms: C_24  and  C_25 
REMARK    9  A    between atoms: C_25  and  N_26 
ROOT
HETATM    1  C   UNL     1      -1.301   6.628 -34.268  1.00  0.00     0.002 A 
HETATM    2  C   UNL     1      -1.872   7.295 -33.181  1.00  0.00     0.032 A 
HETATM    3  C   UNL     1      -2.634   6.542 -32.310  1.00  0.00     0.079 A 
HETATM    4  C   UNL     1      -2.825   5.149 -32.484  1.00  0.00     0.079 A 
HETATM    5  N   UNL     1      -3.621   4.685 -31.436  1.00  0.00    -0.179 N 
HETATM    6  C   UNL     1      -3.912   5.793 -30.597  1.00  0.00     0.681 A 
HETATM    7  N   UNL     1      -4.623   5.722 -29.452  1.00  0.00    -0.234 N 
HETATM    8  H   UNL     1      -4.760   6.501 -28.824  1.00  0.00     0.174 HD
HETATM    9  H   UNL     1      -5.052   4.844 -29.172  1.00  0.00     0.174 HD
HETATM   10  N   UNL     1      -3.335   6.961 -31.116  1.00  0.00    -0.180 N 
HETATM   11  C   UNL     1      -2.258   4.492 -33.554  1.00  0.00     0.032 A 
HETATM   12  C   UNL     1      -1.494   5.246 -34.451  1.00  0.00     0.002 A 
ENDROOT
BRANCH   5  13
HETATM   13  C   UNL     1      -3.802   3.266 -31.169  1.00  0.00     0.181 C 
BRANCH  13  14
HETATM   14  C   UNL     1      -5.263   2.880 -30.855  1.00  0.00     0.161 C 
BRANCH  14  15
HETATM   15  O   UNL     1      -5.405   2.833 -29.434  1.00  0.00    -0.392 OA
HETATM   16  H   UNL     1      -4.695   2.256 -29.088  1.00  0.00     0.210 HD
ENDBRANCH  14  15
BRANCH  14  17
HETATM   17  C   UNL     1      -5.623   1.506 -31.431  1.00  0.00     0.209 C 
BRANCH  17  18
HETATM   18  O   UNL     1      -5.059   1.364 -32.736  1.00  0.00    -0.347 OA
BRANCH  18  19
HETATM   19  C   UNL     1      -5.157   0.104 -33.273  1.00  0.00     0.090 A 
HETATM   20  C   UNL     1      -4.257  -0.962 -33.099  1.00  0.00     0.069 A 
HETATM   21 CL   UNL     1      -2.799  -0.841 -32.169  1.00  0.00    -0.081 Cl
HETATM   22  C   UNL     1      -4.499  -2.191 -33.722  1.00  0.00     0.050 A 
HETATM   23  C   UNL     1      -5.618  -2.352 -34.535  1.00  0.00     0.035 A 
HETATM   24 CL   UNL     1      -5.909  -3.867 -35.290  1.00  0.00    -0.084 Cl
HETATM   25  C   UNL     1      -6.494  -1.292 -34.745  1.00  0.00     0.026 A 
HETATM   26  C   UNL     1      -6.258  -0.064 -34.122  1.00  0.00     0.040 A 
ENDBRANCH  18  19
ENDBRANCH  17  18
ENDBRANCH  14  17
ENDBRANCH  13  14
ENDBRANCH   5  13
BRANCH  10  27
HETATM   27  C   UNL     1      -3.258   8.302 -30.518  1.00  0.00     0.175 C 
BRANCH  27  28
HETATM   28  C   UNL     1      -1.878   8.611 -29.900  1.00  0.00     0.256 C 
BRANCH  28  29
HETATM   29  N   UNL     1      -1.358   7.549 -28.952  1.00  0.00    -0.066 N 
HETATM   30  H   UNL     1      -1.912   6.702 -29.153  1.00  0.00     0.280 HD
HETATM   31  C   UNL     1       0.099   7.133 -29.172  1.00  0.00     0.261 C 
HETATM   32  C   UNL     1       0.454   5.973 -28.233  1.00  0.00     0.195 C 
HETATM   33  O   UNL     1       0.220   6.347 -26.873  1.00  0.00    -0.388 OA
HETATM   34  C   UNL     1      -1.160   6.635 -26.625  1.00  0.00     0.195 C 
HETATM   35  C   UNL     1      -1.613   7.834 -27.465  1.00  0.00     0.261 C 
ENDBRANCH  28  29
ENDBRANCH  27  28
ENDBRANCH  10  27
TORSDOF 9
ENDMDL
MODEL 4
REMARK VINA RESULT:      -8.3      4.718      8.666
REMARK  9 active torsions:
REMARK  status: ('A' for Active; 'I' for Inactive)
REMARK    1  A    between atoms: N_5  and  C_6 
REMARK    2  A    between atoms: C_6  and  C_7 
REMARK    3  A    between atoms: C_7  and  O_8 
REMARK    4  A    between atoms: C_7  and  C_9 
REMARK    5  A    between atoms: C_9  and  O_10 
REMARK    6  A    between atoms: O_10  and  C_11 
REMARK    7  A    between atoms: N_23  and  C_24 
REMARK    8  A    between atoms: C_24  and  C_25 
REMARK    9  A    between atoms: C_25  and  N_26 
ROOT
HETATM    1  C   UNL     1      -5.664   0.397 -30.110  1.00  0.00     0.002 A 
HETATM    2  C   UNL     1      -6.216  -0.216 -31.237  1.00  0.00     0.032 A 
HETATM    3  C   UNL     1      -7.133   0.516 -31.966  1.00  0.00     0.079 A 
HETATM    4  C   UNL     1      -7.496   1.839 -31.611  1.00  0.00     0.079 A 
HETATM    5  N   UNL     1      -8.421   2.302 -32.549  1.00  0.00    -0.179 N 
HETATM    6  C   UNL     1      -8.619   1.267 -33.501  1.00  0.00     0.681 A 
HETATM    7  N   UNL     1      -9.413   1.367 -34.587  1.00  0.00    -0.234 N 
HETATM    8  H   UNL     1      -9.489   0.653 -35.298  1.00  0.00     0.174 HD
HETATM    9  H   UNL     1      -9.975   2.202 -34.733  1.00  0.00     0.174 HD
HETATM   10  N   UNL     1      -7.854   0.141 -33.162  1.00  0.00    -0.180 N 
HETATM   11  C   UNL     1      -6.948   2.442 -30.501  1.00  0.00     0.032 A 
HETATM   12  C   UNL     1      -6.028   1.707 -29.747  1.00  0.00     0.002 A 
ENDROOT
BRANCH   5  13
HETATM   13  C   UNL     1      -8.809   3.702 -32.629  1.00  0.00     0.181 C 
BRANCH  13  14
HETATM   14  C   UNL     1     -10.174   4.001 -31.973  1.00  0.00     0.161 C 
BRANCH  14  15
HETATM   15  O   UNL     1     -10.401   3.008 -30.971  1.00  0.00    -0.392 OA
HETATM   16  H   UNL     1     -10.371   3.457 -30.103  1.00  0.00     0.210 HD
ENDBRANCH  14  15
BRANCH  14  17
HETATM   17  C   UNL     1     -11.318   3.943 -32.992  1.00  0.00     0.209 C 
BRANCH  17  18
HETATM   18  O   UNL     1     -11.844   2.616 -33.054  1.00  0.00    -0.347 OA
BRANCH  18  19
HETATM   19  C   UNL     1     -13.195   2.519 -32.828  1.00  0.00     0.090 A 
HETATM   20  C   UNL     1     -14.061   1.515 -33.294  1.00  0.00     0.069 A 
HETATM   21 CL   UNL     1     -13.548   0.201 -34.302  1.00  0.00    -0.081 Cl
HETATM   22  C   UNL     1     -15.423   1.562 -32.978  1.00  0.00     0.050 A 
HETATM   23  C   UNL     1     -15.926   2.618 -32.222  1.00  0.00     0.035 A 
HETATM   24 CL   UNL     1     -17.599   2.663 -31.833  1.00  0.00    -0.084 Cl
HETATM   25  C   UNL     1     -15.085   3.637 -31.788  1.00  0.00     0.026 A 
HETATM   26  C   UNL     1     -13.724   3.592 -32.099  1.00  0.00     0.040 A 
ENDBRANCH  18  19
ENDBRANCH  17  18
ENDBRANCH  14  17
ENDBRANCH  13  14
ENDBRANCH   5  13
BRANCH  10  27
HETATM   27  C   UNL     1      -7.641  -1.098 -33.924  1.00  0.00     0.175 C 
BRANCH  27  28
HETATM   28  C   UNL     1      -6.286  -1.129 -34.662  1.00  0.00     0.256 C 
BRANCH  28  29
HETATM   29  N   UNL     1      -5.701  -2.513 -34.854  1.00  0.00    -0.066 N 
HETATM   30  H   UNL     1      -5.274  -2.505 -35.794  1.00  0.00     0.280 HD
HETATM   31  C   UNL     1      -4.560  -2.880 -33.901  1.00  0.00     0.261 C 
HETATM   32  C   UNL     1      -3.984  -4.248 -34.285  1.00  0.00     0.195 C 
HETATM   33  O   UNL     1      -5.013  -5.241 -34.271  1.00  0.00    -0.388 OA
HETATM   34  C   UNL     1      -6.035  -4.970 -35.235  1.00  0.00     0.195 C 
HETATM   35  C   UNL     1      -6.736  -3.646 -34.909  1.00  0.00     0.261 C 
ENDBRANCH  28  29
ENDBRANCH  27  28
ENDBRANCH  10  27
TORSDOF 9
ENDMDL
MODEL 5
REMARK VINA RESULT:      -8.2      4.007      9.542
REMARK  9 active torsions:
REMARK  status: ('A' for Active; 'I' for Inactive)
REMARK    1  A    between atoms: N_5  and  C_6 
REMARK    2  A    between atoms: C_6  and  C_7 
REMARK    3  A    between atoms: C_7  and  O_8 
REMARK    4  A    between atoms: C_7  and  C_9 
REMARK    5  A    between atoms: C_9  and  O_10 
REMARK    6  A    between atoms: O_10  and  C_11 
REMARK    7  A    between atoms: N_23  and  C_24 
REMARK    8  A    between atoms: C_24  and  C_25 
REMARK    9  A    between atoms: C_25  and  N_26 
ROOT
HETATM    1  C   UNL     1      -6.099   6.986 -29.013  1.00  0.00     0.002 A 
HETATM    2  C   UNL     1      -5.075   6.609 -29.886  1.00  0.00     0.032 A 
HETATM    3  C   UNL     1      -4.981   5.269 -30.205  1.00  0.00     0.079 A 
HETATM    4  C   UNL     1      -5.886   4.306 -29.694  1.00  0.00     0.079 A 
HETATM    5  N   UNL     1      -5.535   3.059 -30.215  1.00  0.00    -0.179 N 
HETATM    6  C   UNL     1      -4.416   3.253 -31.069  1.00  0.00     0.681 A 
HETATM    7  N   UNL     1      -3.823   2.278 -31.789  1.00  0.00    -0.234 N 
HETATM    8  H   UNL     1      -3.077   2.439 -32.450  1.00  0.00     0.174 HD
HETATM    9  H   UNL     1      -4.131   1.314 -31.690  1.00  0.00     0.174 HD
HETATM   10  N   UNL     1      -4.034   4.603 -31.072  1.00  0.00    -0.180 N 
HETATM   11  C   UNL     1      -6.897   4.680 -28.837  1.00  0.00     0.032 A 
HETATM   12  C   UNL     1      -6.995   6.033 -28.495  1.00  0.00     0.002 A 
ENDROOT
BRANCH   5  13
HETATM   13  C   UNL     1      -6.402   1.897 -30.097  1.00  0.00     0.181 C 
BRANCH  13  14
HETATM   14  C   UNL     1      -7.490   1.828 -31.191  1.00  0.00     0.161 C 
BRANCH  14  15
HETATM   15  O   UNL     1      -8.761   1.943 -30.548  1.00  0.00    -0.392 OA
HETATM   16  H   UNL     1      -9.237   1.101 -30.689  1.00  0.00     0.210 HD
ENDBRANCH  14  15
BRANCH  14  17
HETATM   17  C   UNL     1      -7.443   0.500 -31.955  1.00  0.00     0.209 C 
BRANCH  17  18
HETATM   18  O   UNL     1      -6.196   0.379 -32.641  1.00  0.00    -0.347 OA
BRANCH  18  19
HETATM   19  C   UNL     1      -6.009  -0.815 -33.292  1.00  0.00     0.090 A 
HETATM   20  C   UNL     1      -4.792  -1.494 -33.481  1.00  0.00     0.069 A 
HETATM   21 CL   UNL     1      -3.263  -0.888 -32.934  1.00  0.00    -0.081 Cl
HETATM   22  C   UNL     1      -4.768  -2.709 -34.174  1.00  0.00     0.050 A 
HETATM   23  C   UNL     1      -5.946  -3.235 -34.699  1.00  0.00     0.035 A 
HETATM   24 CL   UNL     1      -5.908  -4.731 -35.543  1.00  0.00    -0.084 Cl
HETATM   25  C   UNL     1      -7.149  -2.553 -34.550  1.00  0.00     0.026 A 
HETATM   26  C   UNL     1      -7.178  -1.341 -33.856  1.00  0.00     0.040 A 
ENDBRANCH  18  19
ENDBRANCH  17  18
ENDBRANCH  14  17
ENDBRANCH  13  14
ENDBRANCH   5  13
BRANCH  10  27
HETATM   27  C   UNL     1      -3.029   5.280 -31.905  1.00  0.00     0.175 C 
BRANCH  27  28
HETATM   28  C   UNL     1      -1.579   4.955 -31.486  1.00  0.00     0.256 C 
BRANCH  28  29
HETATM   29  N   UNL     1      -1.122   5.635 -30.212  1.00  0.00    -0.066 N 
HETATM   30  H   UNL     1      -1.738   5.272 -29.467  1.00  0.00     0.280 HD
HETATM   31  C   UNL     1       0.298   5.286 -29.757  1.00  0.00     0.261 C 
HETATM   32  C   UNL     1       0.583   5.941 -28.400  1.00  0.00     0.195 C 
HETATM   33  O   UNL     1       0.398   7.356 -28.484  1.00  0.00    -0.388 OA
HETATM   34  C   UNL     1      -0.954   7.703 -28.802  1.00  0.00     0.195 C 
HETATM   35  C   UNL     1      -1.333   7.155 -30.183  1.00  0.00     0.261 C 
ENDBRANCH  28  29
ENDBRANCH  27  28
ENDBRANCH  10  27
TORSDOF 9
ENDMDL
MODEL 6
REMARK VINA RESULT:      -8.2      3.281      5.544
REMARK  9 active torsions:
REMARK  status: ('A' for Active; 'I' for Inactive)
REMARK    1  A    between atoms: N_5  and  C_6 
REMARK    2  A    between atoms: C_6  and  C_7 
REMARK    3  A    between atoms: C_7  and  O_8 
REMARK    4  A    between atoms: C_7  and  C_9 
REMARK    5  A    between atoms: C_9  and  O_10 
REMARK    6  A    between atoms: O_10  and  C_11 
REMARK    7  A    between atoms: N_23  and  C_24 
REMARK    8  A    between atoms: C_24  and  C_25 
REMARK    9  A    between atoms: C_25  and  N_26 
ROOT
HETATM    1  C   UNL     1      -9.909  -0.017 -32.696  1.00  0.00     0.002 A 
HETATM    2  C   UNL     1     -10.439   0.964 -33.538  1.00  0.00     0.032 A 
HETATM    3  C   UNL     1     -10.069   2.271 -33.292  1.00  0.00     0.079 A 
HETATM    4  C   UNL     1      -9.178   2.620 -32.246  1.00  0.00     0.079 A 
HETATM    5  N   UNL     1      -8.997   4.004 -32.272  1.00  0.00    -0.179 N 
HETATM    6  C   UNL     1      -9.765   4.515 -33.352  1.00  0.00     0.681 A 
HETATM    7  N   UNL     1      -9.803   5.813 -33.719  1.00  0.00    -0.234 N 
HETATM    8  H   UNL     1     -10.292   6.155 -34.534  1.00  0.00     0.174 HD
HETATM    9  H   UNL     1      -9.311   6.512 -33.169  1.00  0.00     0.174 HD
HETATM   10  N   UNL     1     -10.456   3.475 -33.992  1.00  0.00    -0.180 N 
HETATM   11  C   UNL     1      -8.655   1.651 -31.419  1.00  0.00     0.032 A 
HETATM   12  C   UNL     1      -9.031   0.324 -31.650  1.00  0.00     0.002 A 
ENDROOT
BRANCH   5  13
HETATM   13  C   UNL     1      -7.954   4.664 -31.502  1.00  0.00     0.181 C 
BRANCH  13  14
HETATM   14  C   UNL     1      -6.599   4.738 -32.237  1.00  0.00     0.161 C 
BRANCH  14  15
HETATM   15  O   UNL     1      -6.870   4.862 -33.635  1.00  0.00    -0.392 OA
HETATM   16  H   UNL     1      -6.840   5.815 -33.855  1.00  0.00     0.210 HD
ENDBRANCH  14  15
BRANCH  14  17
HETATM   17  C   UNL     1      -5.758   3.477 -32.009  1.00  0.00     0.209 C 
BRANCH  17  18
HETATM   18  O   UNL     1      -5.347   2.935 -33.265  1.00  0.00    -0.347 OA
BRANCH  18  19
HETATM   19  C   UNL     1      -5.666   1.613 -33.455  1.00  0.00     0.090 A 
HETATM   20  C   UNL     1      -5.149   0.509 -32.754  1.00  0.00     0.069 A 
HETATM   21 CL   UNL     1      -3.948   0.642 -31.511  1.00  0.00    -0.081 Cl
HETATM   22  C   UNL     1      -5.576  -0.785 -33.072  1.00  0.00     0.050 A 
HETATM   23  C   UNL     1      -6.496  -0.982 -34.099  1.00  0.00     0.035 A 
HETATM   24 CL   UNL     1      -7.019  -2.574 -34.478  1.00  0.00    -0.084 Cl
HETATM   25  C   UNL     1      -6.984   0.100 -34.824  1.00  0.00     0.026 A 
HETATM   26  C   UNL     1      -6.563   1.393 -34.508  1.00  0.00     0.040 A 
ENDBRANCH  18  19
ENDBRANCH  17  18
ENDBRANCH  14  17
ENDBRANCH  13  14
ENDBRANCH   5  13
BRANCH  10  27
HETATM   27  C   UNL     1     -11.254   3.515 -35.227  1.00  0.00     0.175 C 
BRANCH  27  28
HETATM   28  C   UNL     1     -12.663   4.110 -35.018  1.00  0.00     0.256 C 
BRANCH  28  29
HETATM   29  N   UNL     1     -13.664   3.159 -34.394  1.00  0.00    -0.066 N 
HETATM   30  H   UNL     1     -14.589   3.476 -34.725  1.00  0.00     0.280 HD
HETATM   31  C   UNL     1     -13.556   1.702 -34.853  1.00  0.00     0.261 C 
HETATM   32  C   UNL     1     -14.698   0.881 -34.243  1.00  0.00     0.195 C 
HETATM   33  O   UNL     1     -14.675   0.981 -32.816  1.00  0.00    -0.388 OA
HETATM   34  C   UNL     1     -14.885   2.323 -32.369  1.00  0.00     0.195 C 
HETATM   35  C   UNL     1     -13.753   3.233 -32.864  1.00  0.00     0.261 C 
ENDBRANCH  28  29
ENDBRANCH  27  28
ENDBRANCH  10  27
TORSDOF 9
ENDMDL
MODEL 7
REMARK VINA RESULT:      -8.1      1.995      2.454
REMARK  9 active torsions:
REMARK  status: ('A' for Active; 'I' for Inactive)
REMARK    1  A    between atoms: N_5  and  C_6 
REMARK    2  A    between atoms: C_6  and  C_7 
REMARK    3  A    between atoms: C_7  and  O_8 
REMARK    4  A    between atoms: C_7  and  C_9 
REMARK    5  A    between atoms: C_9  and  O_10 
REMARK    6  A    between atoms: O_10  and  C_11 
REMARK    7  A    between atoms: N_23  and  C_24 
REMARK    8  A    between atoms: C_24  and  C_25 
REMARK    9  A    between atoms: C_25  and  N_26 
ROOT
HETATM    1  C   UNL     1      -6.060  -1.489 -34.195  1.00  0.00     0.002 A 
HETATM    2  C   UNL     1      -7.373  -1.227 -33.793  1.00  0.00     0.032 A 
HETATM    3  C   UNL     1      -7.559  -0.219 -32.868  1.00  0.00     0.079 A 
HETATM    4  C   UNL     1      -6.480   0.541 -32.351  1.00  0.00     0.079 A 
HETATM    5  N   UNL     1      -6.998   1.483 -31.461  1.00  0.00    -0.179 N 
HETATM    6  C   UNL     1      -8.408   1.318 -31.438  1.00  0.00     0.681 A 
HETATM    7  N   UNL     1      -9.258   2.085 -30.724  1.00  0.00    -0.234 N 
HETATM    8  H   UNL     1     -10.264   2.009 -30.772  1.00  0.00     0.174 HD
HETATM    9  H   UNL     1      -8.895   2.799 -30.097  1.00  0.00     0.174 HD
HETATM   10  N   UNL     1      -8.789   0.263 -32.281  1.00  0.00    -0.180 N 
HETATM   11  C   UNL     1      -5.187   0.284 -32.752  1.00  0.00     0.032 A 
HETATM   12  C   UNL     1      -4.983  -0.744 -33.679  1.00  0.00     0.002 A 
ENDROOT
BRANCH   5  13
HETATM   13  C   UNL     1      -6.199   2.584 -30.946  1.00  0.00     0.181 C 
BRANCH  13  14
HETATM   14  C   UNL     1      -6.547   3.947 -31.583  1.00  0.00     0.161 C 
BRANCH  14  15
HETATM   15  O   UNL     1      -6.369   3.824 -32.996  1.00  0.00    -0.392 OA
HETATM   16  H   UNL     1      -6.921   3.075 -33.296  1.00  0.00     0.210 HD
ENDBRANCH  14  15
BRANCH  14  17
HETATM   17  C   UNL     1      -5.635   5.065 -31.067  1.00  0.00     0.209 C 
BRANCH  17  18
HETATM   18  O   UNL     1      -4.959   5.683 -32.163  1.00  0.00    -0.347 OA
BRANCH  18  19
HETATM   19  C   UNL     1      -3.605   5.837 -31.994  1.00  0.00     0.090 A 
HETATM   20  C   UNL     1      -2.615   4.853 -32.154  1.00  0.00     0.069 A 
HETATM   21 CL   UNL     1      -2.961   3.207 -32.572  1.00  0.00    -0.081 Cl
HETATM   22  C   UNL     1      -1.269   5.170 -31.939  1.00  0.00     0.050 A 
HETATM   23  C   UNL     1      -0.913   6.457 -31.542  1.00  0.00     0.035 A 
HETATM   24 CL   UNL     1       0.743   6.840 -31.286  1.00  0.00    -0.084 Cl
HETATM   25  C   UNL     1      -1.888   7.429 -31.344  1.00  0.00     0.026 A 
HETATM   26  C   UNL     1      -3.232   7.116 -31.561  1.00  0.00     0.040 A 
ENDBRANCH  18  19
ENDBRANCH  17  18
ENDBRANCH  14  17
ENDBRANCH  13  14
ENDBRANCH   5  13
BRANCH  10  27
HETATM   27  C   UNL     1     -10.139  -0.170 -32.671  1.00  0.00     0.175 C 
BRANCH  27  28
HETATM   28  C   UNL     1     -10.834   0.813 -33.636  1.00  0.00     0.256 C 
BRANCH  28  29
HETATM   29  N   UNL     1     -12.099   1.446 -33.092  1.00  0.00    -0.066 N 
HETATM   30  H   UNL     1     -12.186   1.101 -32.123  1.00  0.00     0.280 HD
HETATM   31  C   UNL     1     -12.066   2.972 -32.970  1.00  0.00     0.261 C 
HETATM   32  C   UNL     1     -13.352   3.465 -32.296  1.00  0.00     0.195 C 
HETATM   33  O   UNL     1     -14.498   3.027 -33.032  1.00  0.00    -0.388 OA
HETATM   34  C   UNL     1     -14.602   1.600 -33.062  1.00  0.00     0.195 C 
HETATM   35  C   UNL     1     -13.392   0.993 -33.783  1.00  0.00     0.261 C 
ENDBRANCH  28  29
ENDBRANCH  27  28
ENDBRANCH  10  27
TORSDOF 9
ENDMDL
MODEL 8
REMARK VINA RESULT:      -8.0      3.566      7.405
REMARK  9 active torsions:
REMARK  status: ('A' for Active; 'I' for Inactive)
REMARK    1  A    between atoms: N_5  and  C_6 
REMARK    2  A    between atoms: C_6  and  C_7 
REMARK    3  A    between atoms: C_7  and  O_8 
REMARK    4  A    between atoms: C_7  and  C_9 
REMARK    5  A    between atoms: C_9  and  O_10 
REMARK    6  A    between atoms: O_10  and  C_11 
REMARK    7  A    between atoms: N_23  and  C_24 
REMARK    8  A    between atoms: C_24  and  C_25 
REMARK    9  A    between atoms: C_25  and  N_26 
ROOT
HETATM    1  C   UNL     1      -4.632  -1.860 -34.243  1.00  0.00     0.002 A 
HETATM    2  C   UNL     1      -4.083  -0.824 -33.483  1.00  0.00     0.032 A 
HETATM    3  C   UNL     1      -4.962  -0.032 -32.771  1.00  0.00     0.079 A 
HETATM    4  C   UNL     1      -6.362  -0.257 -32.784  1.00  0.00     0.079 A 
HETATM    5  N   UNL     1      -6.962   0.694 -31.957  1.00  0.00    -0.179 N 
HETATM    6  C   UNL     1      -5.928   1.503 -31.414  1.00  0.00     0.681 A 
HETATM    7  N   UNL     1      -6.122   2.504 -30.531  1.00  0.00    -0.234 N 
HETATM    8  H   UNL     1      -5.374   3.023 -30.093  1.00  0.00     0.174 HD
HETATM    9  H   UNL     1      -7.065   2.770 -30.261  1.00  0.00     0.174 HD
HETATM   10  N   UNL     1      -4.681   1.095 -31.910  1.00  0.00    -0.180 N 
HETATM   11  C   UNL     1      -6.900  -1.281 -33.531  1.00  0.00     0.032 A 
HETATM   12  C   UNL     1      -6.022  -2.082 -34.267  1.00  0.00     0.002 A 
ENDROOT
BRANCH   5  13
HETATM   13  C   UNL     1      -8.354   0.596 -31.546  1.00  0.00     0.181 C 
BRANCH  13  14
HETATM   14  C   UNL     1      -9.150   1.903 -31.750  1.00  0.00     0.161 C 
BRANCH  14  15
HETATM   15  O   UNL     1      -9.806   2.209 -30.518  1.00  0.00    -0.392 OA
HETATM   16  H   UNL     1      -9.382   3.010 -30.152  1.00  0.00     0.210 HD
ENDBRANCH  14  15
BRANCH  14  17
HETATM   17  C   UNL     1     -10.209   1.758 -32.849  1.00  0.00     0.209 C 
BRANCH  17  18
HETATM   18  O   UNL     1      -9.738   2.360 -34.056  1.00  0.00    -0.347 OA
BRANCH  18  19
HETATM   19  C   UNL     1     -10.530   3.370 -34.544  1.00  0.00     0.090 A 
HETATM   20  C   UNL     1     -11.776   3.237 -35.181  1.00  0.00     0.069 A 
HETATM   21 CL   UNL     1     -12.528   1.708 -35.500  1.00  0.00    -0.081 Cl
HETATM   22  C   UNL     1     -12.461   4.372 -35.626  1.00  0.00     0.050 A 
HETATM   23  C   UNL     1     -11.897   5.635 -35.461  1.00  0.00     0.035 A 
HETATM   24 CL   UNL     1     -12.748   7.024 -36.006  1.00  0.00    -0.084 Cl
HETATM   25  C   UNL     1     -10.647   5.776 -34.867  1.00  0.00     0.026 A 
HETATM   26  C   UNL     1      -9.962   4.644 -34.418  1.00  0.00     0.040 A 
ENDBRANCH  18  19
ENDBRANCH  17  18
ENDBRANCH  14  17
ENDBRANCH  13  14
ENDBRANCH   5  13
BRANCH  10  27
HETATM   27  C   UNL     1      -3.337   1.548 -31.522  1.00  0.00     0.175 C 
BRANCH  27  28
HETATM   28  C   UNL     1      -3.186   3.084 -31.546  1.00  0.00     0.256 C 
BRANCH  28  29
HETATM   29  N   UNL     1      -3.275   3.707 -32.924  1.00  0.00    -0.066 N 
HETATM   30  H   UNL     1      -3.253   2.917 -33.587  1.00  0.00     0.280 HD
HETATM   31  C   UNL     1      -4.584   4.443 -33.226  1.00  0.00     0.261 C 
HETATM   32  C   UNL     1      -4.589   4.914 -34.685  1.00  0.00     0.195 C 
HETATM   33  O   UNL     1      -3.454   5.745 -34.942  1.00  0.00    -0.388 OA
HETATM   34  C   UNL     1      -2.221   5.040 -34.769  1.00  0.00     0.195 C 
HETATM   35  C   UNL     1      -2.072   4.576 -33.315  1.00  0.00     0.261 C 
ENDBRANCH  28  29
ENDBRANCH  27  28
ENDBRANCH  10  27
TORSDOF 9
ENDMDL
MODEL 9
REMARK VINA RESULT:      -8.0      4.432      9.424
REMARK  9 active torsions:
REMARK  status: ('A' for Active; 'I' for Inactive)
REMARK    1  A    between atoms: N_5  and  C_6 
REMARK    2  A    between atoms: C_6  and  C_7 
REMARK    3  A    between atoms: C_7  and  O_8 
REMARK    4  A    between atoms: C_7  and  C_9 
REMARK    5  A    between atoms: C_9  and  O_10 
REMARK    6  A    between atoms: O_10  and  C_11 
REMARK    7  A    between atoms: N_23  and  C_24 
REMARK    8  A    between atoms: C_24  and  C_25 
REMARK    9  A    between atoms: C_25  and  N_26 
ROOT
HETATM    1  C   UNL     1      -1.906   5.764 -33.460  1.00  0.00     0.002 A 
HETATM    2  C   UNL     1      -2.387   6.367 -32.296  1.00  0.00     0.032 A 
HETATM    3  C   UNL     1      -3.245   5.624 -31.510  1.00  0.00     0.079 A 
HETATM    4  C   UNL     1      -3.620   4.299 -31.845  1.00  0.00     0.079 A 
HETATM    5  N   UNL     1      -4.475   3.824 -30.849  1.00  0.00    -0.179 N 
HETATM    6  C   UNL     1      -4.618   4.854 -29.882  1.00  0.00     0.681 A 
HETATM    7  N   UNL     1      -5.336   4.743 -28.745  1.00  0.00    -0.234 N 
HETATM    8  H   UNL     1      -5.370   5.453 -28.027  1.00  0.00     0.174 HD
HETATM    9  H   UNL     1      -5.879   3.902 -28.565  1.00  0.00     0.174 HD
HETATM   10  N   UNL     1      -3.888   5.988 -30.267  1.00  0.00    -0.180 N 
HETATM   11  C   UNL     1      -3.142   3.705 -32.992  1.00  0.00     0.032 A 
HETATM   12  C   UNL     1      -2.281   4.451 -33.803  1.00  0.00     0.002 A 
ENDROOT
BRANCH   5  13
HETATM   13  C   UNL     1      -4.843   2.420 -30.749  1.00  0.00     0.181 C 
BRANCH  13  14
HETATM   14  C   UNL     1      -6.368   2.184 -30.722  1.00  0.00     0.161 C 
BRANCH  14  15
HETATM   15  O   UNL     1      -6.752   1.976 -29.361  1.00  0.00    -0.392 OA
HETATM   16  H   UNL     1      -7.302   1.168 -29.333  1.00  0.00     0.210 HD
ENDBRANCH  14  15
BRANCH  14  17
HETATM   17  C   UNL     1      -6.768   0.951 -31.540  1.00  0.00     0.209 C 
BRANCH  17  18
HETATM   18  O   UNL     1      -6.065   0.947 -32.784  1.00  0.00    -0.347 OA
BRANCH  18  19
HETATM   19  C   UNL     1      -5.912  -0.292 -33.357  1.00  0.00     0.090 A 
HETATM   20  C   UNL     1      -4.710  -0.997 -33.538  1.00  0.00     0.069 A 
HETATM   21 CL   UNL     1      -3.157  -0.375 -33.084  1.00  0.00    -0.081 Cl
HETATM   22  C   UNL     1      -4.722  -2.257 -34.146  1.00  0.00     0.050 A 
HETATM   23  C   UNL     1      -5.923  -2.803 -34.594  1.00  0.00     0.035 A 
HETATM   24 CL   UNL     1      -5.929  -4.353 -35.334  1.00  0.00    -0.084 Cl
HETATM   25  C   UNL     1      -7.113  -2.096 -34.454  1.00  0.00     0.026 A 
HETATM   26  C   UNL     1      -7.105  -0.840 -33.844  1.00  0.00     0.040 A 
ENDBRANCH  18  19
ENDBRANCH  17  18
ENDBRANCH  14  17
ENDBRANCH  13  14
ENDBRANCH   5  13
BRANCH  10  27
HETATM   27  C   UNL     1      -3.636   7.227 -29.515  1.00  0.00     0.175 C 
BRANCH  27  28
HETATM   28  C   UNL     1      -2.505   7.083 -28.474  1.00  0.00     0.256 C 
BRANCH  28  29
HETATM   29  N   UNL     1      -2.755   7.803 -27.165  1.00  0.00    -0.066 N 
HETATM   30  H   UNL     1      -2.898   8.794 -27.417  1.00  0.00     0.280 HD
HETATM   31  C   UNL     1      -4.033   7.393 -26.427  1.00  0.00     0.261 C 
HETATM   32  C   UNL     1      -4.224   8.281 -25.191  1.00  0.00     0.195 C 
HETATM   33  O   UNL     1      -3.080   8.196 -24.337  1.00  0.00    -0.388 OA
HETATM   34  C   UNL     1      -1.895   8.679 -24.978  1.00  0.00     0.195 C 
HETATM   35  C   UNL     1      -1.561   7.815 -26.201  1.00  0.00     0.261 C 
ENDBRANCH  28  29
ENDBRANCH  27  28
ENDBRANCH  10  27
TORSDOF 9
ENDMDL
MODEL 10
REMARK VINA RESULT:      -8.0      2.732      5.450
REMARK  9 active torsions:
REMARK  status: ('A' for Active; 'I' for Inactive)
REMARK    1  A    between atoms: N_5  and  C_6 
REMARK    2  A    between atoms: C_6  and  C_7 
REMARK    3  A    between atoms: C_7  and  O_8 
REMARK    4  A    between atoms: C_7  and  C_9 
REMARK    5  A    between atoms: C_9  and  O_10 
REMARK    6  A    between atoms: O_10  and  C_11 
REMARK    7  A    between atoms: N_23  and  C_24 
REMARK    8  A    between atoms: C_24  and  C_25 
REMARK    9  A    between atoms: C_25  and  N_26 
ROOT
HETATM    1  C   UNL     1     -10.832   0.925 -33.426  1.00  0.00     0.002 A 
HETATM    2  C   UNL     1      -9.562   0.342 -33.401  1.00  0.00     0.032 A 
HETATM    3  C   UNL     1      -8.498   1.165 -33.089  1.00  0.00     0.079 A 
HETATM    4  C   UNL     1      -8.669   2.539 -32.787  1.00  0.00     0.079 A 
HETATM    5  N   UNL     1      -7.415   3.081 -32.500  1.00  0.00    -0.179 N 
HETATM    6  C   UNL     1      -6.462   2.033 -32.608  1.00  0.00     0.681 A 
HETATM    7  N   UNL     1      -5.143   2.168 -32.357  1.00  0.00    -0.234 N 
HETATM    8  H   UNL     1      -4.486   1.400 -32.363  1.00  0.00     0.174 HD
HETATM    9  H   UNL     1      -4.758   3.082 -32.135  1.00  0.00     0.174 HD
HETATM   10  N   UNL     1      -7.093   0.840 -32.990  1.00  0.00    -0.180 N 
HETATM   11  C   UNL     1      -9.922   3.110 -32.808  1.00  0.00     0.032 A 
HETATM   12  C   UNL     1     -11.007   2.291 -33.135  1.00  0.00     0.002 A 
ENDROOT
BRANCH   5  13
HETATM   13  C   UNL     1      -7.257   4.400 -31.907  1.00  0.00     0.181 C 
BRANCH  13  14
HETATM   14  C   UNL     1      -6.865   5.490 -32.927  1.00  0.00     0.161 C 
BRANCH  14  15
HETATM   15  O   UNL     1      -6.847   4.888 -34.222  1.00  0.00    -0.392 OA
HETATM   16  H   UNL     1      -7.561   4.221 -34.244  1.00  0.00     0.210 HD
ENDBRANCH  14  15
BRANCH  14  17
HETATM   17  C   UNL     1      -5.476   6.069 -32.633  1.00  0.00     0.209 C 
BRANCH  17  18
HETATM   18  O   UNL     1      -4.758   5.189 -31.767  1.00  0.00    -0.347 OA
BRANCH  18  19
HETATM   19  C   UNL     1      -3.474   5.584 -31.479  1.00  0.00     0.090 A 
HETATM   20  C   UNL     1      -2.302   5.210 -32.158  1.00  0.00     0.069 A 
HETATM   21 CL   UNL     1      -2.282   4.114 -33.501  1.00  0.00    -0.081 Cl
HETATM   22  C   UNL     1      -1.061   5.699 -31.736  1.00  0.00     0.050 A 
HETATM   23  C   UNL     1      -0.985   6.538 -30.627  1.00  0.00     0.035 A 
HETATM   24 CL   UNL     1       0.543   7.138 -30.119  1.00  0.00    -0.084 Cl
HETATM   25  C   UNL     1      -2.134   6.884 -29.924  1.00  0.00     0.026 A 
HETATM   26  C   UNL     1      -3.375   6.400 -30.345  1.00  0.00     0.040 A 
ENDBRANCH  18  19
ENDBRANCH  17  18
ENDBRANCH  14  17
ENDBRANCH  13  14
ENDBRANCH   5  13
BRANCH  10  27
HETATM   27  C   UNL     1      -6.530  -0.516 -33.087  1.00  0.00     0.175 C 
BRANCH  27  28
HETATM   28  C   UNL     1      -5.873  -0.800 -34.455  1.00  0.00     0.256 C 
BRANCH  28  29
HETATM   29  N   UNL     1      -5.556  -2.259 -34.713  1.00  0.00    -0.066 N 
HETATM   30  H   UNL     1      -5.182  -2.295 -35.674  1.00  0.00     0.280 HD
HETATM   31  C   UNL     1      -4.452  -2.854 -33.834  1.00  0.00     0.261 C 
HETATM   32  C   UNL     1      -4.150  -4.289 -34.283  1.00  0.00     0.195 C 
HETATM   33  O   UNL     1      -5.337  -5.084 -34.235  1.00  0.00    -0.388 OA
HETATM   34  C   UNL     1      -6.342  -4.603 -35.134  1.00  0.00     0.195 C 
HETATM   35  C   UNL     1      -6.778  -3.188 -34.737  1.00  0.00     0.261 C 
ENDBRANCH  28  29
ENDBRANCH  27  28
ENDBRANCH  10  27
TORSDOF 9
ENDMDL
