MODEL 1
REMARK VINA RESULT:      -8.2      0.000      0.000
REMARK  2 active torsions:
REMARK  status: ('A' for Active; 'I' for Inactive)
REMARK    1  A    between atoms: C_5  and  O_6 
REMARK    2  A    between atoms: C_5  and  C_7 
ROOT
HETATM    1  C   UNL     1      -3.781   0.141 -32.586  1.00  0.00     0.050 C 
HETATM    2  C   UNL     1      -5.188  -0.207 -32.952  1.00  0.00    -0.035 A 
HETATM    3  C   UNL     1      -6.282   0.481 -32.452  1.00  0.00     0.051 A 
HETATM    4  C   UNL     1      -7.603   0.175 -32.814  1.00  0.00     0.018 A 
HETATM    5  C   UNL     1      -8.549   1.086 -32.078  1.00  0.00     0.198 A 
HETATM    6  C   UNL     1      -7.556   1.972 -31.255  1.00  0.00     0.266 A 
HETATM    7  O   UNL     1      -7.840   2.833 -30.433  1.00  0.00    -0.269 OA
HETATM    8  N   UNL     1      -6.267   1.545 -31.557  1.00  0.00    -0.323 N 
HETATM    9  C   UNL     1      -7.864  -0.858 -33.700  1.00  0.00     0.013 A 
HETATM   10  C   UNL     1      -6.780  -1.554 -34.239  1.00  0.00     0.001 A 
HETATM   11  C   UNL     1      -5.459  -1.229 -33.873  1.00  0.00     0.009 A 
HETATM   12  H   UNL     1      -5.448   1.946 -31.126  1.00  0.00     0.169 HD
ENDROOT
BRANCH   5  13
HETATM   13  O   UNL     1      -9.364   0.301 -31.213  1.00  0.00    -0.371 OA
HETATM   14  H   UNL     1      -9.433  -0.562 -31.658  1.00  0.00     0.212 HD
ENDBRANCH   5  13
BRANCH   5  15
HETATM   15  C   UNL     1      -9.358   1.911 -33.052  1.00  0.00     0.018 A 
HETATM   16  C   UNL     1     -10.668   1.668 -33.619  1.00  0.00     0.002 A 
HETATM   17  C   UNL     1     -10.949   2.717 -34.500  1.00  0.00     0.043 A 
HETATM   18  C   UNL     1     -11.651   0.662 -33.475  1.00  0.00     0.014 A 
HETATM   19  C   UNL     1     -12.144   2.813 -35.224  1.00  0.00     0.030 A 
HETATM   20  N   UNL     1      -9.866   3.559 -34.491  1.00  0.00    -0.365 N 
HETATM   21  C   UNL     1     -13.098   1.810 -35.045  1.00  0.00     0.002 A 
HETATM   22  C   UNL     1     -12.857   0.749 -34.183  1.00  0.00     0.001 A 
HETATM   23  H   UNL     1      -9.790   4.399 -35.048  1.00  0.00     0.165 HD
HETATM   24  C   UNL     1      -8.915   3.095 -33.630  1.00  0.00     0.100 A 
ENDBRANCH   5  15
TORSDOF 2
ENDMDL
MODEL 2
REMARK VINA RESULT:      -7.9      2.180      6.025
REMARK  2 active torsions:
REMARK  status: ('A' for Active; 'I' for Inactive)
REMARK    1  A    between atoms: C_5  and  O_6 
REMARK    2  A    between atoms: C_5  and  C_7 
ROOT
HETATM    1  C   UNL     1     -15.125   3.217 -31.986  1.00  0.00     0.050 C 
HETATM    2  C   UNL     1     -14.166   2.351 -32.738  1.00  0.00    -0.035 A 
HETATM    3  C   UNL     1     -12.845   2.710 -32.951  1.00  0.00     0.051 A 
HETATM    4  C   UNL     1     -11.934   1.889 -33.634  1.00  0.00     0.018 A 
HETATM    5  C   UNL     1     -10.599   2.580 -33.717  1.00  0.00     0.198 A 
HETATM    6  C   UNL     1     -10.889   3.916 -32.957  1.00  0.00     0.266 A 
HETATM    7  O   UNL     1     -10.128   4.863 -32.809  1.00  0.00    -0.269 OA
HETATM    8  N   UNL     1     -12.217   3.883 -32.544  1.00  0.00    -0.323 N 
HETATM    9  C   UNL     1     -12.339   0.662 -34.137  1.00  0.00     0.013 A 
HETATM   10  C   UNL     1     -13.658   0.263 -33.916  1.00  0.00     0.001 A 
HETATM   11  C   UNL     1     -14.559   1.094 -33.221  1.00  0.00     0.009 A 
HETATM   12  H   UNL     1     -12.652   4.649 -32.055  1.00  0.00     0.169 HD
ENDROOT
BRANCH   5  13
HETATM   13  O   UNL     1     -10.295   2.831 -35.086  1.00  0.00    -0.371 OA
HETATM   14  H   UNL     1     -10.337   1.956 -35.510  1.00  0.00     0.212 HD
ENDBRANCH   5  13
BRANCH   5  15
HETATM   15  C   UNL     1      -9.533   1.763 -33.023  1.00  0.00     0.018 A 
HETATM   16  C   UNL     1      -8.568   0.832 -33.568  1.00  0.00     0.002 A 
HETATM   17  C   UNL     1      -7.833   0.309 -32.499  1.00  0.00     0.043 A 
HETATM   18  C   UNL     1      -8.237   0.376 -34.865  1.00  0.00     0.014 A 
HETATM   19  C   UNL     1      -6.800  -0.622 -32.659  1.00  0.00     0.030 A 
HETATM   20  N   UNL     1      -8.326   0.874 -31.351  1.00  0.00    -0.365 N 
HETATM   21  C   UNL     1      -6.490  -1.038 -33.955  1.00  0.00     0.002 A 
HETATM   22  C   UNL     1      -7.198  -0.546 -35.044  1.00  0.00     0.001 A 
HETATM   23  H   UNL     1      -7.988   0.667 -30.420  1.00  0.00     0.165 HD
HETATM   24  C   UNL     1      -9.334   1.745 -31.648  1.00  0.00     0.100 A 
ENDBRANCH   5  15
TORSDOF 2
ENDMDL
MODEL 3
REMARK VINA RESULT:      -7.8      2.935      5.688
REMARK  2 active torsions:
REMARK  status: ('A' for Active; 'I' for Inactive)
REMARK    1  A    between atoms: C_5  and  O_6 
REMARK    2  A    between atoms: C_5  and  C_7 
ROOT
HETATM    1  C   UNL     1      -9.712   3.145 -31.347  1.00  0.00     0.050 C 
HETATM    2  C   UNL     1      -8.375   3.126 -32.014  1.00  0.00    -0.035 A 
HETATM    3  C   UNL     1      -7.300   2.410 -31.511  1.00  0.00     0.051 A 
HETATM    4  C   UNL     1      -6.050   2.367 -32.149  1.00  0.00     0.018 A 
HETATM    5  C   UNL     1      -5.100   1.529 -31.334  1.00  0.00     0.198 A 
HETATM    6  C   UNL     1      -6.012   1.088 -30.143  1.00  0.00     0.266 A 
HETATM    7  O   UNL     1      -5.681   0.439 -29.159  1.00  0.00    -0.269 OA
HETATM    8  N   UNL     1      -7.270   1.643 -30.352  1.00  0.00    -0.323 N 
HETATM    9  C   UNL     1      -5.842   3.062 -33.329  1.00  0.00     0.013 A 
HETATM   10  C   UNL     1      -6.915   3.773 -33.873  1.00  0.00     0.001 A 
HETATM   11  C   UNL     1      -8.166   3.800 -33.226  1.00  0.00     0.009 A 
HETATM   12  H   UNL     1      -8.030   1.525 -29.700  1.00  0.00     0.169 HD
ENDROOT
BRANCH   5  13
HETATM   13  O   UNL     1      -4.034   2.357 -30.878  1.00  0.00    -0.371 OA
HETATM   14  H   UNL     1      -3.684   2.774 -31.685  1.00  0.00     0.212 HD
ENDBRANCH   5  13
BRANCH   5  15
HETATM   15  C   UNL     1      -4.615   0.344 -32.136  1.00  0.00     0.018 A 
HETATM   16  C   UNL     1      -5.351  -0.586 -32.966  1.00  0.00     0.002 A 
HETATM   17  C   UNL     1      -4.441  -1.528 -33.457  1.00  0.00     0.043 A 
HETATM   18  C   UNL     1      -6.703  -0.728 -33.356  1.00  0.00     0.014 A 
HETATM   19  C   UNL     1      -4.806  -2.579 -34.308  1.00  0.00     0.030 A 
HETATM   20  N   UNL     1      -3.209  -1.209 -32.948  1.00  0.00    -0.365 N 
HETATM   21  C   UNL     1      -6.147  -2.679 -34.685  1.00  0.00     0.002 A 
HETATM   22  C   UNL     1      -7.084  -1.766 -34.217  1.00  0.00     0.001 A 
HETATM   23  H   UNL     1      -2.362  -1.731 -33.128  1.00  0.00     0.165 HD
HETATM   24  C   UNL     1      -3.296  -0.094 -32.165  1.00  0.00     0.100 A 
ENDBRANCH   5  15
TORSDOF 2
ENDMDL
MODEL 4
REMARK VINA RESULT:      -7.7      2.912      5.067
REMARK  2 active torsions:
REMARK  status: ('A' for Active; 'I' for Inactive)
REMARK    1  A    between atoms: C_5  and  O_6 
REMARK    2  A    between atoms: C_5  and  C_7 
ROOT
HETATM    1  C   UNL     1      -5.092  -2.444 -33.981  1.00  0.00     0.050 C 
HETATM    2  C   UNL     1      -6.028  -1.279 -33.947  1.00  0.00    -0.035 A 
HETATM    3  C   UNL     1      -6.208  -0.498 -32.816  1.00  0.00     0.051 A 
HETATM    4  C   UNL     1      -7.065   0.613 -32.788  1.00  0.00     0.018 A 
HETATM    5  C   UNL     1      -7.053   1.221 -31.410  1.00  0.00     0.198 A 
HETATM    6  C   UNL     1      -6.039   0.291 -30.665  1.00  0.00     0.266 A 
HETATM    7  O   UNL     1      -5.733   0.330 -29.481  1.00  0.00    -0.269 OA
HETATM    8  N   UNL     1      -5.600  -0.663 -31.576  1.00  0.00    -0.323 N 
HETATM    9  C   UNL     1      -7.784   0.971 -33.917  1.00  0.00     0.013 A 
HETATM   10  C   UNL     1      -7.604   0.217 -35.079  1.00  0.00     0.001 A 
HETATM   11  C   UNL     1      -6.734  -0.889 -35.095  1.00  0.00     0.009 A 
HETATM   12  H   UNL     1      -4.958  -1.398 -31.324  1.00  0.00     0.169 HD
ENDROOT
BRANCH   5  13
HETATM   13  O   UNL     1      -8.356   1.106 -30.846  1.00  0.00    -0.371 OA
HETATM   14  H   UNL     1      -8.306   1.599 -30.009  1.00  0.00     0.212 HD
ENDBRANCH   5  13
BRANCH   5  15
HETATM   15  C   UNL     1      -6.566   2.650 -31.464  1.00  0.00     0.018 A 
HETATM   16  C   UNL     1      -5.279   3.184 -31.859  1.00  0.00     0.002 A 
HETATM   17  C   UNL     1      -5.327   4.572 -31.692  1.00  0.00     0.043 A 
HETATM   18  C   UNL     1      -4.072   2.631 -32.346  1.00  0.00     0.014 A 
HETATM   19  C   UNL     1      -4.252   5.419 -31.988  1.00  0.00     0.030 A 
HETATM   20  N   UNL     1      -6.571   4.881 -31.205  1.00  0.00    -0.365 N 
HETATM   21  C   UNL     1      -3.081   4.841 -32.482  1.00  0.00     0.002 A 
HETATM   22  C   UNL     1      -2.991   3.466 -32.660  1.00  0.00     0.001 A 
HETATM   23  H   UNL     1      -6.880   5.817 -30.978  1.00  0.00     0.165 HD
HETATM   24  C   UNL     1      -7.320   3.749 -31.070  1.00  0.00     0.100 A 
ENDBRANCH   5  15
TORSDOF 2
ENDMDL
MODEL 5
REMARK VINA RESULT:      -7.7      3.517      5.996
REMARK  2 active torsions:
REMARK  status: ('A' for Active; 'I' for Inactive)
REMARK    1  A    between atoms: C_5  and  O_6 
REMARK    2  A    between atoms: C_5  and  C_7 
ROOT
HETATM    1  C   UNL     1      -6.719   4.762 -33.897  1.00  0.00     0.050 C 
HETATM    2  C   UNL     1      -5.576   4.007 -33.297  1.00  0.00    -0.035 A 
HETATM    3  C   UNL     1      -5.747   2.815 -32.611  1.00  0.00     0.051 A 
HETATM    4  C   UNL     1      -4.675   2.090 -32.068  1.00  0.00     0.018 A 
HETATM    5  C   UNL     1      -5.201   0.865 -31.368  1.00  0.00     0.198 A 
HETATM    6  C   UNL     1      -6.740   0.999 -31.614  1.00  0.00     0.266 A 
HETATM    7  O   UNL     1      -7.624   0.273 -31.178  1.00  0.00    -0.269 OA
HETATM    8  N   UNL     1      -6.945   2.158 -32.355  1.00  0.00    -0.323 N 
HETATM    9  C   UNL     1      -3.377   2.558 -32.199  1.00  0.00     0.013 A 
HETATM   10  C   UNL     1      -3.172   3.744 -32.907  1.00  0.00     0.001 A 
HETATM   11  C   UNL     1      -4.257   4.456 -33.453  1.00  0.00     0.009 A 
HETATM   12  H   UNL     1      -7.865   2.478 -32.617  1.00  0.00     0.169 HD
ENDROOT
BRANCH   5  13
HETATM   13  O   UNL     1      -4.898   0.964 -29.980  1.00  0.00    -0.371 OA
HETATM   14  H   UNL     1      -5.456   1.694 -29.658  1.00  0.00     0.212 HD
ENDBRANCH   5  13
BRANCH   5  15
HETATM   15  C   UNL     1      -4.641  -0.389 -31.999  1.00  0.00     0.018 A 
HETATM   16  C   UNL     1      -5.125  -1.167 -33.120  1.00  0.00     0.002 A 
HETATM   17  C   UNL     1      -4.267  -2.260 -33.279  1.00  0.00     0.043 A 
HETATM   18  C   UNL     1      -6.207  -1.057 -34.023  1.00  0.00     0.014 A 
HETATM   19  C   UNL     1      -4.428  -3.225 -34.281  1.00  0.00     0.030 A 
HETATM   20  N   UNL     1      -3.310  -2.173 -32.300  1.00  0.00    -0.365 N 
HETATM   21  C   UNL     1      -5.498  -3.076 -35.165  1.00  0.00     0.002 A 
HETATM   22  C   UNL     1      -6.376  -2.006 -35.039  1.00  0.00     0.001 A 
HETATM   23  H   UNL     1      -2.564  -2.842 -32.168  1.00  0.00     0.165 HD
HETATM   24  C   UNL     1      -3.517  -1.063 -31.535  1.00  0.00     0.100 A 
ENDBRANCH   5  15
TORSDOF 2
ENDMDL
MODEL 6
REMARK VINA RESULT:      -7.7      3.649      5.693
REMARK  2 active torsions:
REMARK  status: ('A' for Active; 'I' for Inactive)
REMARK    1  A    between atoms: C_5  and  O_6 
REMARK    2  A    between atoms: C_5  and  C_7 
ROOT
HETATM    1  C   UNL     1      -4.974   5.448 -30.044  1.00  0.00     0.050 C 
HETATM    2  C   UNL     1      -4.476   4.371 -30.953  1.00  0.00    -0.035 A 
HETATM    3  C   UNL     1      -4.771   3.031 -30.755  1.00  0.00     0.051 A 
HETATM    4  C   UNL     1      -4.328   2.019 -31.621  1.00  0.00     0.018 A 
HETATM    5  C   UNL     1      -4.794   0.682 -31.110  1.00  0.00     0.198 A 
HETATM    6  C   UNL     1      -5.587   1.095 -29.826  1.00  0.00     0.266 A 
HETATM    7  O   UNL     1      -6.110   0.349 -29.008  1.00  0.00    -0.269 OA
HETATM    8  N   UNL     1      -5.521   2.480 -29.722  1.00  0.00    -0.323 N 
HETATM    9  C   UNL     1      -3.556   2.334 -32.728  1.00  0.00     0.013 A 
HETATM   10  C   UNL     1      -3.265   3.679 -32.967  1.00  0.00     0.001 A 
HETATM   11  C   UNL     1      -3.723   4.684 -32.094  1.00  0.00     0.009 A 
HETATM   12  H   UNL     1      -5.935   2.987 -28.955  1.00  0.00     0.169 HD
ENDROOT
BRANCH   5  13
HETATM   13  O   UNL     1      -3.654  -0.103 -30.772  1.00  0.00    -0.371 OA
HETATM   14  H   UNL     1      -3.791  -0.947 -31.236  1.00  0.00     0.212 HD
ENDBRANCH   5  13
BRANCH   5  15
HETATM   15  C   UNL     1      -5.687   0.006 -32.125  1.00  0.00     0.018 A 
HETATM   16  C   UNL     1      -5.409  -1.088 -33.031  1.00  0.00     0.002 A 
HETATM   17  C   UNL     1      -6.561  -1.310 -33.793  1.00  0.00     0.043 A 
HETATM   18  C   UNL     1      -4.294  -1.920 -33.286  1.00  0.00     0.014 A 
HETATM   19  C   UNL     1      -6.656  -2.308 -34.771  1.00  0.00     0.030 A 
HETATM   20  N   UNL     1      -7.498  -0.393 -33.391  1.00  0.00    -0.365 N 
HETATM   21  C   UNL     1      -5.541  -3.121 -34.984  1.00  0.00     0.002 A 
HETATM   22  C   UNL     1      -4.376  -2.932 -34.252  1.00  0.00     0.001 A 
HETATM   23  H   UNL     1      -8.427  -0.315 -33.783  1.00  0.00     0.165 HD
HETATM   24  C   UNL     1      -6.994   0.392 -32.396  1.00  0.00     0.100 A 
ENDBRANCH   5  15
TORSDOF 2
ENDMDL
MODEL 7
REMARK VINA RESULT:      -7.6     15.260     17.515
REMARK  2 active torsions:
REMARK  status: ('A' for Active; 'I' for Inactive)
REMARK    1  A    between atoms: C_5  and  O_6 
REMARK    2  A    between atoms: C_5  and  C_7 
ROOT
HETATM    1  C   UNL     1      -8.599 -13.270 -37.636  1.00  0.00     0.050 C 
HETATM    2  C   UNL     1      -7.568 -12.871 -38.641  1.00  0.00    -0.035 A 
HETATM    3  C   UNL     1      -6.209 -12.907 -38.372  1.00  0.00     0.051 A 
HETATM    4  C   UNL     1      -5.236 -12.558 -39.321  1.00  0.00     0.018 A 
HETATM    5  C   UNL     1      -3.867 -12.678 -38.704  1.00  0.00     0.198 A 
HETATM    6  C   UNL     1      -4.215 -13.169 -37.260  1.00  0.00     0.266 A 
HETATM    7  O   UNL     1      -3.436 -13.352 -36.334  1.00  0.00    -0.269 OA
HETATM    8  N   UNL     1      -5.599 -13.280 -37.179  1.00  0.00    -0.323 N 
HETATM    9  C   UNL     1      -5.612 -12.149 -40.591  1.00  0.00     0.013 A 
HETATM   10  C   UNL     1      -6.974 -12.126 -40.899  1.00  0.00     0.001 A 
HETATM   11  C   UNL     1      -7.939 -12.487 -39.939  1.00  0.00     0.009 A 
HETATM   12  H   UNL     1      -6.072 -13.554 -36.332  1.00  0.00     0.169 HD
ENDROOT
BRANCH   5  13
HETATM   13  O   UNL     1      -3.264 -11.388 -38.671  1.00  0.00    -0.371 OA
HETATM   14  H   UNL     1      -3.748 -10.873 -39.340  1.00  0.00     0.212 HD
ENDBRANCH   5  13
BRANCH   5  15
HETATM   15  C   UNL     1      -3.034 -13.693 -39.454  1.00  0.00     0.018 A 
HETATM   16  C   UNL     1      -1.638 -14.044 -39.310  1.00  0.00     0.002 A 
HETATM   17  C   UNL     1      -1.343 -15.015 -40.272  1.00  0.00     0.043 A 
HETATM   18  C   UNL     1      -0.585 -13.638 -38.457  1.00  0.00     0.014 A 
HETATM   19  C   UNL     1      -0.077 -15.596 -40.417  1.00  0.00     0.030 A 
HETATM   20  N   UNL     1      -2.492 -15.244 -40.985  1.00  0.00    -0.365 N 
HETATM   21  C   UNL     1       0.934 -15.182 -39.547  1.00  0.00     0.002 A 
HETATM   22  C   UNL     1       0.685 -14.217 -38.579  1.00  0.00     0.001 A 
HETATM   23  H   UNL     1      -2.568 -15.894 -41.756  1.00  0.00     0.165 HD
HETATM   24  C   UNL     1      -3.508 -14.469 -40.506  1.00  0.00     0.100 A 
ENDBRANCH   5  15
TORSDOF 2
ENDMDL
MODEL 8
REMARK VINA RESULT:      -7.5     15.323     16.678
REMARK  2 active torsions:
REMARK  status: ('A' for Active; 'I' for Inactive)
REMARK    1  A    between atoms: C_5  and  O_6 
REMARK    2  A    between atoms: C_5  and  C_7 
ROOT
HETATM    1  C   UNL     1      -1.011 -14.451 -38.306  1.00  0.00     0.050 C 
HETATM    2  C   UNL     1      -2.366 -13.837 -38.160  1.00  0.00    -0.035 A 
HETATM    3  C   UNL     1      -3.221 -13.650 -39.235  1.00  0.00     0.051 A 
HETATM    4  C   UNL     1      -4.504 -13.099 -39.098  1.00  0.00     0.018 A 
HETATM    5  C   UNL     1      -5.158 -13.008 -40.452  1.00  0.00     0.198 A 
HETATM    6  C   UNL     1      -4.050 -13.613 -41.377  1.00  0.00     0.266 A 
HETATM    7  O   UNL     1      -4.072 -13.699 -42.598  1.00  0.00    -0.269 OA
HETATM    8  N   UNL     1      -2.975 -13.965 -40.567  1.00  0.00    -0.323 N 
HETATM    9  C   UNL     1      -4.968 -12.705 -37.853  1.00  0.00     0.013 A 
HETATM   10  C   UNL     1      -4.138 -12.904 -36.748  1.00  0.00     0.001 A 
HETATM   11  C   UNL     1      -2.856 -13.467 -36.899  1.00  0.00     0.009 A 
HETATM   12  H   UNL     1      -2.122 -14.352 -40.937  1.00  0.00     0.169 HD
ENDROOT
BRANCH   5  13
HETATM   13  O   UNL     1      -5.384 -11.636 -40.762  1.00  0.00    -0.371 OA
HETATM   14  H   UNL     1      -6.220 -11.418 -40.313  1.00  0.00     0.212 HD
ENDBRANCH   5  13
BRANCH   5  15
HETATM   15  C   UNL     1      -6.425 -13.831 -40.486  1.00  0.00     0.018 A 
HETATM   16  C   UNL     1      -7.808 -13.421 -40.364  1.00  0.00     0.002 A 
HETATM   17  C   UNL     1      -8.598 -14.573 -40.421  1.00  0.00     0.043 A 
HETATM   18  C   UNL     1      -8.477 -12.184 -40.211  1.00  0.00     0.014 A 
HETATM   19  C   UNL     1      -9.996 -14.552 -40.343  1.00  0.00     0.030 A 
HETATM   20  N   UNL     1      -7.750 -15.643 -40.557  1.00  0.00    -0.365 N 
HETATM   21  C   UNL     1     -10.624 -13.312 -40.209  1.00  0.00     0.002 A 
HETATM   22  C   UNL     1      -9.876 -12.143 -40.144  1.00  0.00     0.001 A 
HETATM   23  H   UNL     1      -8.049 -16.607 -40.611  1.00  0.00     0.165 HD
HETATM   24  C   UNL     1      -6.455 -15.215 -40.602  1.00  0.00     0.100 A 
ENDBRANCH   5  15
TORSDOF 2
ENDMDL
MODEL 9
REMARK VINA RESULT:      -7.4      1.821      6.007
REMARK  2 active torsions:
REMARK  status: ('A' for Active; 'I' for Inactive)
REMARK    1  A    between atoms: C_5  and  O_6 
REMARK    2  A    between atoms: C_5  and  C_7 
ROOT
HETATM    1  C   UNL     1     -11.092   4.017 -35.006  1.00  0.00     0.050 C 
HETATM    2  C   UNL     1      -9.841   3.691 -34.255  1.00  0.00    -0.035 A 
HETATM    3  C   UNL     1      -9.626   2.456 -33.663  1.00  0.00     0.051 A 
HETATM    4  C   UNL     1      -8.442   2.137 -32.979  1.00  0.00     0.018 A 
HETATM    5  C   UNL     1      -8.540   0.736 -32.435  1.00  0.00     0.198 A 
HETATM    6  C   UNL     1      -9.958   0.303 -32.934  1.00  0.00     0.266 A 
HETATM    7  O   UNL     1     -10.539  -0.746 -32.688  1.00  0.00    -0.269 OA
HETATM    8  N   UNL     1     -10.495   1.370 -33.646  1.00  0.00    -0.323 N 
HETATM    9  C   UNL     1      -7.426   3.072 -32.865  1.00  0.00     0.013 A 
HETATM   10  C   UNL     1      -7.605   4.316 -33.473  1.00  0.00     0.001 A 
HETATM   11  C   UNL     1      -8.794   4.620 -34.163  1.00  0.00     0.009 A 
HETATM   12  H   UNL     1     -11.420   1.345 -34.045  1.00  0.00     0.169 HD
ENDROOT
BRANCH   5  13
HETATM   13  O   UNL     1      -8.497   0.792 -31.012  1.00  0.00    -0.371 OA
HETATM   14  H   UNL     1      -9.029   1.572 -30.781  1.00  0.00     0.212 HD
ENDBRANCH   5  13
BRANCH   5  15
HETATM   15  C   UNL     1      -7.452  -0.137 -33.018  1.00  0.00     0.018 A 
HETATM   16  C   UNL     1      -6.104  -0.386 -32.552  1.00  0.00     0.002 A 
HETATM   17  C   UNL     1      -5.489  -1.240 -33.472  1.00  0.00     0.043 A 
HETATM   18  C   UNL     1      -5.337   0.027 -31.438  1.00  0.00     0.014 A 
HETATM   19  C   UNL     1      -4.174  -1.701 -33.333  1.00  0.00     0.030 A 
HETATM   20  N   UNL     1      -6.401  -1.497 -34.464  1.00  0.00    -0.365 N 
HETATM   21  C   UNL     1      -3.451  -1.286 -32.213  1.00  0.00     0.002 A 
HETATM   22  C   UNL     1      -4.024  -0.434 -31.277  1.00  0.00     0.001 A 
HETATM   23  H   UNL     1      -6.221  -2.079 -35.270  1.00  0.00     0.165 HD
HETATM   24  C   UNL     1      -7.575  -0.852 -34.204  1.00  0.00     0.100 A 
ENDBRANCH   5  15
TORSDOF 2
ENDMDL
MODEL 10
REMARK VINA RESULT:      -7.3      3.092      4.224
REMARK  2 active torsions:
REMARK  status: ('A' for Active; 'I' for Inactive)
REMARK    1  A    between atoms: C_5  and  O_6 
REMARK    2  A    between atoms: C_5  and  C_7 
ROOT
HETATM    1  C   UNL     1      -4.090  -3.287 -33.670  1.00  0.00     0.050 C 
HETATM    2  C   UNL     1      -4.256  -1.921 -33.085  1.00  0.00    -0.035 A 
HETATM    3  C   UNL     1      -5.250  -1.048 -33.496  1.00  0.00     0.051 A 
HETATM    4  C   UNL     1      -5.426   0.225 -32.931  1.00  0.00     0.018 A 
HETATM    5  C   UNL     1      -6.569   0.925 -33.618  1.00  0.00     0.198 A 
HETATM    6  C   UNL     1      -7.027  -0.158 -34.649  1.00  0.00     0.266 A 
HETATM    7  O   UNL     1      -7.895  -0.044 -35.505  1.00  0.00    -0.269 OA
HETATM    8  N   UNL     1      -6.203  -1.267 -34.485  1.00  0.00    -0.323 N 
HETATM    9  C   UNL     1      -4.585   0.665 -31.921  1.00  0.00     0.013 A 
HETATM   10  C   UNL     1      -3.589  -0.204 -31.469  1.00  0.00     0.001 A 
HETATM   11  C   UNL     1      -3.430  -1.481 -32.040  1.00  0.00     0.009 A 
HETATM   12  H   UNL     1      -6.283  -2.091 -35.059  1.00  0.00     0.169 HD
ENDROOT
BRANCH   5  13
HETATM   13  O   UNL     1      -6.066   2.080 -34.283  1.00  0.00    -0.371 OA
HETATM   14  H   UNL     1      -6.555   2.111 -35.124  1.00  0.00     0.212 HD
ENDBRANCH   5  13
BRANCH   5  15
HETATM   15  C   UNL     1      -7.663   1.252 -32.628  1.00  0.00     0.018 A 
HETATM   16  C   UNL     1      -8.000   2.506 -31.988  1.00  0.00     0.002 A 
HETATM   17  C   UNL     1      -9.074   2.267 -31.125  1.00  0.00     0.043 A 
HETATM   18  C   UNL     1      -7.504   3.829 -32.053  1.00  0.00     0.014 A 
HETATM   19  C   UNL     1      -9.670   3.265 -30.344  1.00  0.00     0.030 A 
HETATM   20  N   UNL     1      -9.378   0.933 -31.213  1.00  0.00    -0.365 N 
HETATM   21  C   UNL     1      -9.165   4.563 -30.446  1.00  0.00     0.002 A 
HETATM   22  C   UNL     1      -8.096   4.842 -31.289  1.00  0.00     0.001 A 
HETATM   23  H   UNL     1     -10.109   0.476 -30.685  1.00  0.00     0.165 HD
HETATM   24  C   UNL     1      -8.551   0.318 -32.107  1.00  0.00     0.100 A 
ENDBRANCH   5  15
TORSDOF 2
ENDMDL
