MODEL 1
REMARK VINA RESULT:     -10.0      0.000      0.000
REMARK  7 active torsions:
REMARK  status: ('A' for Active; 'I' for Inactive)
REMARK    1  A    between atoms: C_2  and  C_3 
REMARK    2  A    between atoms: C_4  and  N_5 
REMARK       I    between atoms: N_5  and  C_6 
REMARK    3  A    between atoms: C_6  and  C_7 
REMARK    4  A    between atoms: C_8  and  N_9 
REMARK       I    between atoms: N_9  and  C_10 
REMARK    5  A    between atoms: C_10  and  C_11 
REMARK    6  A    between atoms: C_11  and  N_12 
REMARK    7  A    between atoms: C_25  and  C_26 
ROOT
HETATM    1  C   UNL     1      -6.346   1.385 -32.457  1.00  0.00     0.073 A 
HETATM    2  C   UNL     1      -7.565   2.038 -32.392  1.00  0.00     0.093 A 
HETATM    3  S   UNL     1      -7.438   3.712 -32.152  1.00  0.00    -0.075 SA
HETATM    4  C   UNL     1      -5.743   3.644 -32.216  1.00  0.00    -0.008 A 
HETATM    5  C   UNL     1      -5.266   2.355 -32.366  1.00  0.00    -0.026 A 
HETATM    6  C   UNL     1      -3.788   2.085 -32.340  1.00  0.00     0.041 C 
HETATM    7  C   UNL     1      -3.008   3.231 -31.671  1.00  0.00     0.010 C 
HETATM    8  C   UNL     1      -3.404   4.619 -32.245  1.00  0.00    -0.002 C 
HETATM    9  C   UNL     1      -4.917   4.880 -32.008  1.00  0.00     0.052 C 
ENDROOT
BRANCH   1  10
HETATM   10  C   UNL     1      -6.221  -0.082 -32.460  1.00  0.00     0.259 C 
HETATM   11  N   UNL     1      -6.147  -0.629 -33.725  1.00  0.00    -0.322 N 
HETATM   12  H   UNL     1      -6.351   0.007 -34.483  1.00  0.00     0.169 HD
HETATM   13  O   UNL     1      -6.217  -0.705 -31.400  1.00  0.00    -0.267 OA
BRANCH  11  14
HETATM   14  C   UNL     1      -5.920  -1.981 -34.079  1.00  0.00     0.041 A 
HETATM   15  C   UNL     1      -4.639  -2.545 -33.873  1.00  0.00    -0.032 A 
HETATM   16  C   UNL     1      -4.413  -3.888 -34.236  1.00  0.00     0.009 A 
HETATM   17  C   UNL     1      -5.434  -4.671 -34.769  1.00  0.00     0.001 A 
HETATM   18  C   UNL     1      -6.697  -4.126 -34.946  1.00  0.00     0.002 A 
HETATM   19  C   UNL     1      -6.937  -2.793 -34.602  1.00  0.00     0.030 A 
BRANCH  15  20
HETATM   20  C   UNL     1      -3.467  -1.780 -33.295  1.00  0.00     0.036 C 
HETATM   21  C   UNL     1      -3.086  -2.277 -31.908  1.00  0.00     0.010 C 
ENDBRANCH  15  20
ENDBRANCH  11  14
ENDBRANCH   1  10
BRANCH   2  22
HETATM   22  N   UNL     1      -8.875   1.615 -32.420  1.00  0.00    -0.319 N 
HETATM   23  C   UNL     1      -9.357   0.790 -33.411  1.00  0.00     0.248 C 
HETATM   24  O   UNL     1      -8.891   0.664 -34.544  1.00  0.00    -0.271 OA
HETATM   25  H   UNL     1      -9.508   2.108 -31.800  1.00  0.00     0.169 HD
BRANCH  23  26
HETATM   26  C   UNL     1     -10.607   0.012 -33.014  1.00  0.00     0.337 C 
BRANCH  26  27
HETATM   27  N   UNL     1     -11.881   0.766 -33.380  1.00  0.00    -0.059 N 
HETATM   28  H   UNL     1     -12.040   1.422 -32.597  1.00  0.00     0.280 HD
HETATM   29  C   UNL     1     -11.704   1.649 -34.618  1.00  0.00     0.261 C 
HETATM   30  C   UNL     1     -13.021   2.377 -34.912  1.00  0.00     0.195 C 
HETATM   31  O   UNL     1     -14.097   1.445 -35.080  1.00  0.00    -0.388 OA
HETATM   32  C   UNL     1     -14.318   0.675 -33.894  1.00  0.00     0.195 C 
HETATM   33  C   UNL     1     -13.077  -0.148 -33.537  1.00  0.00     0.261 C 
ENDBRANCH  26  27
ENDBRANCH  23  26
ENDBRANCH   2  22
BRANCH   8  34
HETATM   34  C   UNL     1      -2.491   5.798 -31.735  1.00  0.00    -0.047 C 
HETATM   35  C   UNL     1      -3.145   6.488 -30.518  1.00  0.00     0.015 C 
HETATM   36  C   UNL     1      -1.120   5.260 -31.272  1.00  0.00     0.015 C 
HETATM   37  C   UNL     1      -2.247   6.869 -32.816  1.00  0.00     0.015 C 
ENDBRANCH   8  34
TORSDOF 7
ENDMDL
MODEL 2
REMARK VINA RESULT:     -10.0      0.785      1.872
REMARK  7 active torsions:
REMARK  status: ('A' for Active; 'I' for Inactive)
REMARK    1  A    between atoms: C_2  and  C_3 
REMARK    2  A    between atoms: C_4  and  N_5 
REMARK       I    between atoms: N_5  and  C_6 
REMARK    3  A    between atoms: C_6  and  C_7 
REMARK    4  A    between atoms: C_8  and  N_9 
REMARK       I    between atoms: N_9  and  C_10 
REMARK    5  A    between atoms: C_10  and  C_11 
REMARK    6  A    between atoms: C_11  and  N_12 
REMARK    7  A    between atoms: C_25  and  C_26 
ROOT
HETATM    1  C   UNL     1      -5.908   1.658 -32.469  1.00  0.00     0.073 A 
HETATM    2  C   UNL     1      -7.160   2.244 -32.551  1.00  0.00     0.093 A 
HETATM    3  S   UNL     1      -7.124   3.938 -32.635  1.00  0.00    -0.075 SA
HETATM    4  C   UNL     1      -5.426   3.950 -32.657  1.00  0.00    -0.008 A 
HETATM    5  C   UNL     1      -4.881   2.685 -32.548  1.00  0.00    -0.026 A 
HETATM    6  C   UNL     1      -3.393   2.505 -32.447  1.00  0.00     0.041 C 
HETATM    7  C   UNL     1      -2.689   3.799 -31.998  1.00  0.00     0.010 C 
HETATM    8  C   UNL     1      -3.139   5.028 -32.833  1.00  0.00    -0.002 C 
HETATM    9  C   UNL     1      -4.669   5.247 -32.676  1.00  0.00     0.052 C 
ENDROOT
BRANCH   1  10
HETATM   10  C   UNL     1      -5.710   0.227 -32.188  1.00  0.00     0.259 C 
HETATM   11  N   UNL     1      -4.757  -0.369 -32.990  1.00  0.00    -0.322 N 
HETATM   12  H   UNL     1      -4.437   0.191 -33.767  1.00  0.00     0.169 HD
HETATM   13  O   UNL     1      -6.383  -0.334 -31.324  1.00  0.00    -0.267 OA
BRANCH  11  14
HETATM   14  C   UNL     1      -4.253  -1.690 -32.913  1.00  0.00     0.041 A 
HETATM   15  C   UNL     1      -4.661  -2.645 -33.872  1.00  0.00    -0.032 A 
HETATM   16  C   UNL     1      -4.166  -3.962 -33.785  1.00  0.00     0.009 A 
HETATM   17  C   UNL     1      -3.266  -4.328 -32.788  1.00  0.00     0.001 A 
HETATM   18  C   UNL     1      -2.844  -3.383 -31.863  1.00  0.00     0.002 A 
HETATM   19  C   UNL     1      -3.334  -2.076 -31.927  1.00  0.00     0.030 A 
BRANCH  15  20
HETATM   20  C   UNL     1      -5.630  -2.345 -34.996  1.00  0.00     0.036 C 
HETATM   21  C   UNL     1      -7.079  -2.533 -34.569  1.00  0.00     0.010 C 
ENDBRANCH  15  20
ENDBRANCH  11  14
ENDBRANCH   1  10
BRANCH   2  22
HETATM   22  N   UNL     1      -8.446   1.753 -32.519  1.00  0.00    -0.319 N 
HETATM   23  C   UNL     1      -8.935   0.917 -33.496  1.00  0.00     0.248 C 
HETATM   24  O   UNL     1      -8.522   0.830 -34.654  1.00  0.00    -0.271 OA
HETATM   25  H   UNL     1      -9.071   2.204 -31.860  1.00  0.00     0.169 HD
BRANCH  23  26
HETATM   26  C   UNL     1     -10.121   0.069 -33.048  1.00  0.00     0.337 C 
BRANCH  26  27
HETATM   27  N   UNL     1     -11.450   0.756 -33.345  1.00  0.00    -0.059 N 
HETATM   28  H   UNL     1     -11.615   1.382 -32.540  1.00  0.00     0.280 HD
HETATM   29  C   UNL     1     -11.373   1.678 -34.565  1.00  0.00     0.261 C 
HETATM   30  C   UNL     1     -12.741   2.334 -34.789  1.00  0.00     0.195 C 
HETATM   31  O   UNL     1     -13.767   1.345 -34.941  1.00  0.00    -0.388 OA
HETATM   32  C   UNL     1     -13.895   0.534 -33.769  1.00  0.00     0.195 C 
HETATM   33  C   UNL     1     -12.596  -0.223 -33.482  1.00  0.00     0.261 C 
ENDBRANCH  26  27
ENDBRANCH  23  26
ENDBRANCH   2  22
BRANCH   8  34
HETATM   34  C   UNL     1      -2.300   6.331 -32.544  1.00  0.00    -0.047 C 
HETATM   35  C   UNL     1      -0.962   5.962 -31.869  1.00  0.00     0.015 C 
HETATM   36  C   UNL     1      -1.962   7.060 -33.863  1.00  0.00     0.015 C 
HETATM   37  C   UNL     1      -3.042   7.321 -31.625  1.00  0.00     0.015 C 
ENDBRANCH   8  34
TORSDOF 7
ENDMDL
MODEL 3
REMARK VINA RESULT:      -9.8      2.527      7.727
REMARK  7 active torsions:
REMARK  status: ('A' for Active; 'I' for Inactive)
REMARK    1  A    between atoms: C_2  and  C_3 
REMARK    2  A    between atoms: C_4  and  N_5 
REMARK       I    between atoms: N_5  and  C_6 
REMARK    3  A    between atoms: C_6  and  C_7 
REMARK    4  A    between atoms: C_8  and  N_9 
REMARK       I    between atoms: N_9  and  C_10 
REMARK    5  A    between atoms: C_10  and  C_11 
REMARK    6  A    between atoms: C_11  and  N_12 
REMARK    7  A    between atoms: C_25  and  C_26 
ROOT
HETATM    1  C   UNL     1      -7.081   1.298 -32.647  1.00  0.00     0.073 A 
HETATM    2  C   UNL     1      -6.566   2.486 -33.138  1.00  0.00     0.093 A 
HETATM    3  S   UNL     1      -7.727   3.500 -33.847  1.00  0.00    -0.075 SA
HETATM    4  C   UNL     1      -8.981   2.429 -33.442  1.00  0.00    -0.008 A 
HETATM    5  C   UNL     1      -8.525   1.282 -32.820  1.00  0.00    -0.026 A 
HETATM    6  C   UNL     1      -9.479   0.172 -32.481  1.00  0.00     0.041 C 
HETATM    7  C   UNL     1     -10.777   0.260 -33.304  1.00  0.00     0.010 C 
HETATM    8  C   UNL     1     -11.397   1.683 -33.265  1.00  0.00    -0.002 C 
HETATM    9  C   UNL     1     -10.396   2.716 -33.854  1.00  0.00     0.052 C 
ENDROOT
BRANCH   1  10
HETATM   10  C   UNL     1      -6.233   0.190 -32.176  1.00  0.00     0.259 C 
HETATM   11  N   UNL     1      -5.857  -0.683 -33.177  1.00  0.00    -0.322 N 
HETATM   12  H   UNL     1      -6.331  -0.558 -34.059  1.00  0.00     0.169 HD
HETATM   13  O   UNL     1      -5.947   0.093 -30.984  1.00  0.00    -0.267 OA
BRANCH  11  14
HETATM   14  C   UNL     1      -4.968  -1.781 -33.087  1.00  0.00     0.041 A 
HETATM   15  C   UNL     1      -5.119  -2.870 -33.976  1.00  0.00    -0.032 A 
HETATM   16  C   UNL     1      -4.238  -3.967 -33.876  1.00  0.00     0.009 A 
HETATM   17  C   UNL     1      -3.212  -3.982 -32.936  1.00  0.00     0.001 A 
HETATM   18  C   UNL     1      -3.047  -2.902 -32.081  1.00  0.00     0.002 A 
HETATM   19  C   UNL     1      -3.918  -1.811 -32.158  1.00  0.00     0.030 A 
BRANCH  15  20
HETATM   20  C   UNL     1      -6.197  -2.946 -35.036  1.00  0.00     0.036 C 
HETATM   21  C   UNL     1      -6.600  -4.381 -35.343  1.00  0.00     0.010 C 
ENDBRANCH  15  20
ENDBRANCH  11  14
ENDBRANCH   1  10
BRANCH   2  22
HETATM   22  N   UNL     1      -5.294   3.006 -33.234  1.00  0.00    -0.319 N 
HETATM   23  C   UNL     1      -4.639   3.540 -32.148  1.00  0.00     0.248 C 
HETATM   24  O   UNL     1      -5.165   4.002 -31.135  1.00  0.00    -0.271 OA
HETATM   25  H   UNL     1      -4.956   3.165 -34.176  1.00  0.00     0.169 HD
BRANCH  23  26
HETATM   26  C   UNL     1      -3.121   3.564 -32.293  1.00  0.00     0.337 C 
BRANCH  26  27
HETATM   27  N   UNL     1      -2.599   4.975 -32.542  1.00  0.00    -0.059 N 
HETATM   28  H   UNL     1      -3.167   5.584 -31.929  1.00  0.00     0.280 HD
HETATM   29  C   UNL     1      -1.156   5.159 -32.067  1.00  0.00     0.261 C 
HETATM   30  C   UNL     1      -0.712   6.600 -32.344  1.00  0.00     0.195 C 
HETATM   31  O   UNL     1      -0.854   6.924 -33.733  1.00  0.00    -0.388 OA
HETATM   32  C   UNL     1      -2.218   6.833 -34.158  1.00  0.00     0.195 C 
HETATM   33  C   UNL     1      -2.751   5.409 -33.984  1.00  0.00     0.261 C 
ENDBRANCH  26  27
ENDBRANCH  23  26
ENDBRANCH   2  22
BRANCH   8  34
HETATM   34  C   UNL     1     -12.826   1.769 -33.925  1.00  0.00    -0.047 C 
HETATM   35  C   UNL     1     -12.716   2.336 -35.357  1.00  0.00     0.015 C 
HETATM   36  C   UNL     1     -13.456   0.363 -34.037  1.00  0.00     0.015 C 
HETATM   37  C   UNL     1     -13.793   2.668 -33.129  1.00  0.00     0.015 C 
ENDBRANCH   8  34
TORSDOF 7
ENDMDL
MODEL 4
REMARK VINA RESULT:      -9.8      1.319      1.699
REMARK  7 active torsions:
REMARK  status: ('A' for Active; 'I' for Inactive)
REMARK    1  A    between atoms: C_2  and  C_3 
REMARK    2  A    between atoms: C_4  and  N_5 
REMARK       I    between atoms: N_5  and  C_6 
REMARK    3  A    between atoms: C_6  and  C_7 
REMARK    4  A    between atoms: C_8  and  N_9 
REMARK       I    between atoms: N_9  and  C_10 
REMARK    5  A    between atoms: C_10  and  C_11 
REMARK    6  A    between atoms: C_11  and  N_12 
REMARK    7  A    between atoms: C_25  and  C_26 
ROOT
HETATM    1  C   UNL     1      -6.480   2.267 -33.341  1.00  0.00     0.073 A 
HETATM    2  C   UNL     1      -7.535   3.131 -33.588  1.00  0.00     0.093 A 
HETATM    3  S   UNL     1      -7.134   4.771 -33.425  1.00  0.00    -0.075 SA
HETATM    4  C   UNL     1      -5.509   4.395 -33.106  1.00  0.00    -0.008 A 
HETATM    5  C   UNL     1      -5.274   3.033 -33.069  1.00  0.00    -0.026 A 
HETATM    6  C   UNL     1      -3.917   2.507 -32.699  1.00  0.00     0.041 C 
HETATM    7  C   UNL     1      -3.082   3.556 -31.942  1.00  0.00     0.010 C 
HETATM    8  C   UNL     1      -3.071   4.928 -32.671  1.00  0.00    -0.002 C 
HETATM    9  C   UNL     1      -4.518   5.478 -32.792  1.00  0.00     0.052 C 
ENDROOT
BRANCH   1  10
HETATM   10  C   UNL     1      -6.648   0.809 -33.229  1.00  0.00     0.259 C 
HETATM   11  N   UNL     1      -5.961   0.097 -34.192  1.00  0.00    -0.322 N 
HETATM   12  H   UNL     1      -5.571   0.650 -34.941  1.00  0.00     0.169 HD
HETATM   13  O   UNL     1      -7.370   0.334 -32.354  1.00  0.00    -0.267 OA
BRANCH  11  14
HETATM   14  C   UNL     1      -5.823  -1.308 -34.305  1.00  0.00     0.041 A 
HETATM   15  C   UNL     1      -4.635  -1.926 -33.853  1.00  0.00    -0.032 A 
HETATM   16  C   UNL     1      -4.497  -3.324 -33.978  1.00  0.00     0.009 A 
HETATM   17  C   UNL     1      -5.519  -4.103 -34.514  1.00  0.00     0.001 A 
HETATM   18  C   UNL     1      -6.696  -3.499 -34.932  1.00  0.00     0.002 A 
HETATM   19  C   UNL     1      -6.846  -2.113 -34.827  1.00  0.00     0.030 A 
BRANCH  15  20
HETATM   20  C   UNL     1      -3.470  -1.169 -33.252  1.00  0.00     0.036 C 
HETATM   21  C   UNL     1      -3.565  -1.081 -31.736  1.00  0.00     0.010 C 
ENDBRANCH  15  20
ENDBRANCH  11  14
ENDBRANCH   1  10
BRANCH   2  22
HETATM   22  N   UNL     1      -8.867   2.948 -33.882  1.00  0.00    -0.319 N 
HETATM   23  C   UNL     1      -9.838   2.951 -32.907  1.00  0.00     0.248 C 
HETATM   24  O   UNL     1      -9.672   2.699 -31.713  1.00  0.00    -0.271 OA
HETATM   25  H   UNL     1      -9.068   2.604 -34.814  1.00  0.00     0.169 HD
BRANCH  23  26
HETATM   26  C   UNL     1     -11.236   3.273 -33.427  1.00  0.00     0.337 C 
BRANCH  26  27
HETATM   27  N   UNL     1     -12.220   2.145 -33.134  1.00  0.00    -0.059 N 
HETATM   28  H   UNL     1     -12.149   1.983 -32.116  1.00  0.00     0.280 HD
HETATM   29  C   UNL     1     -13.674   2.558 -33.377  1.00  0.00     0.261 C 
HETATM   30  C   UNL     1     -14.596   1.376 -33.053  1.00  0.00     0.195 C 
HETATM   31  O   UNL     1     -14.241   0.220 -33.823  1.00  0.00    -0.388 OA
HETATM   32  C   UNL     1     -12.909  -0.216 -33.535  1.00  0.00     0.195 C 
HETATM   33  C   UNL     1     -11.889   0.872 -33.883  1.00  0.00     0.261 C 
ENDBRANCH  26  27
ENDBRANCH  23  26
ENDBRANCH   2  22
BRANCH   8  34
HETATM   34  C   UNL     1      -2.070   5.970 -32.041  1.00  0.00    -0.047 C 
HETATM   35  C   UNL     1      -0.776   5.259 -31.591  1.00  0.00     0.015 C 
HETATM   36  C   UNL     1      -1.668   7.034 -33.086  1.00  0.00     0.015 C 
HETATM   37  C   UNL     1      -2.664   6.698 -30.818  1.00  0.00     0.015 C 
ENDBRANCH   8  34
TORSDOF 7
ENDMDL
MODEL 5
REMARK VINA RESULT:      -9.2      2.686      7.499
REMARK  7 active torsions:
REMARK  status: ('A' for Active; 'I' for Inactive)
REMARK    1  A    between atoms: C_2  and  C_3 
REMARK    2  A    between atoms: C_4  and  N_5 
REMARK       I    between atoms: N_5  and  C_6 
REMARK    3  A    between atoms: C_6  and  C_7 
REMARK    4  A    between atoms: C_8  and  N_9 
REMARK       I    between atoms: N_9  and  C_10 
REMARK    5  A    between atoms: C_10  and  C_11 
REMARK    6  A    between atoms: C_11  and  N_12 
REMARK    7  A    between atoms: C_25  and  C_26 
ROOT
HETATM    1  C   UNL     1      -7.707   1.975 -33.602  1.00  0.00     0.073 A 
HETATM    2  C   UNL     1      -7.028   3.114 -33.203  1.00  0.00     0.093 A 
HETATM    3  S   UNL     1      -8.036   4.346 -32.615  1.00  0.00    -0.075 SA
HETATM    4  C   UNL     1      -9.414   3.369 -32.786  1.00  0.00    -0.008 A 
HETATM    5  C   UNL     1      -9.128   2.133 -33.335  1.00  0.00    -0.026 A 
HETATM    6  C   UNL     1     -10.236   1.171 -33.657  1.00  0.00     0.041 C 
HETATM    7  C   UNL     1     -11.597   1.881 -33.771  1.00  0.00     0.010 C 
HETATM    8  C   UNL     1     -11.874   2.808 -32.556  1.00  0.00    -0.002 C 
HETATM    9  C   UNL     1     -10.779   3.905 -32.463  1.00  0.00     0.052 C 
ENDROOT
BRANCH   1  10
HETATM   10  C   UNL     1      -7.059   0.868 -34.325  1.00  0.00     0.259 C 
HETATM   11  N   UNL     1      -6.735  -0.205 -33.519  1.00  0.00    -0.322 N 
HETATM   12  H   UNL     1      -6.824  -0.041 -32.526  1.00  0.00     0.169 HD
HETATM   13  O   UNL     1      -6.831   0.964 -35.530  1.00  0.00    -0.267 OA
BRANCH  11  14
HETATM   14  C   UNL     1      -6.205  -1.459 -33.907  1.00  0.00     0.041 A 
HETATM   15  C   UNL     1      -4.823  -1.710 -33.740  1.00  0.00    -0.032 A 
HETATM   16  C   UNL     1      -4.297  -2.956 -34.139  1.00  0.00     0.009 A 
HETATM   17  C   UNL     1      -5.119  -3.947 -34.668  1.00  0.00     0.001 A 
HETATM   18  C   UNL     1      -6.479  -3.711 -34.807  1.00  0.00     0.002 A 
HETATM   19  C   UNL     1      -7.016  -2.478 -34.428  1.00  0.00     0.030 A 
BRANCH  15  20
HETATM   20  C   UNL     1      -3.849  -0.701 -33.170  1.00  0.00     0.036 C 
HETATM   21  C   UNL     1      -3.242  -1.169 -31.856  1.00  0.00     0.010 C 
ENDBRANCH  15  20
ENDBRANCH  11  14
ENDBRANCH   1  10
BRANCH   2  22
HETATM   22  N   UNL     1      -5.706   3.495 -33.235  1.00  0.00    -0.319 N 
HETATM   23  C   UNL     1      -4.821   3.151 -32.238  1.00  0.00     0.248 C 
HETATM   24  O   UNL     1      -5.109   2.866 -31.075  1.00  0.00    -0.271 OA
HETATM   25  H   UNL     1      -5.472   4.212 -33.912  1.00  0.00     0.169 HD
BRANCH  23  26
HETATM   26  C   UNL     1      -3.359   3.175 -32.674  1.00  0.00     0.337 C 
BRANCH  26  27
HETATM   27  N   UNL     1      -2.827   4.600 -32.782  1.00  0.00    -0.059 N 
HETATM   28  H   UNL     1      -3.550   5.192 -32.341  1.00  0.00     0.280 HD
HETATM   29  C   UNL     1      -1.562   4.818 -31.949  1.00  0.00     0.261 C 
HETATM   30  C   UNL     1      -1.097   6.271 -32.105  1.00  0.00     0.195 C 
HETATM   31  O   UNL     1      -0.882   6.597 -33.484  1.00  0.00    -0.388 OA
HETATM   32  C   UNL     1      -2.085   6.473 -34.249  1.00  0.00     0.195 C 
HETATM   33  C   UNL     1      -2.609   5.035 -34.216  1.00  0.00     0.261 C 
ENDBRANCH  26  27
ENDBRANCH  23  26
ENDBRANCH   2  22
BRANCH   8  34
HETATM   34  C   UNL     1     -13.336   3.398 -32.532  1.00  0.00    -0.047 C 
HETATM   35  C   UNL     1     -13.697   3.863 -31.104  1.00  0.00     0.015 C 
HETATM   36  C   UNL     1     -13.437   4.632 -33.454  1.00  0.00     0.015 C 
HETATM   37  C   UNL     1     -14.396   2.373 -32.982  1.00  0.00     0.015 C 
ENDBRANCH   8  34
TORSDOF 7
ENDMDL
MODEL 6
REMARK VINA RESULT:      -9.2      1.819      2.230
REMARK  7 active torsions:
REMARK  status: ('A' for Active; 'I' for Inactive)
REMARK    1  A    between atoms: C_2  and  C_3 
REMARK    2  A    between atoms: C_4  and  N_5 
REMARK       I    between atoms: N_5  and  C_6 
REMARK    3  A    between atoms: C_6  and  C_7 
REMARK    4  A    between atoms: C_8  and  N_9 
REMARK       I    between atoms: N_9  and  C_10 
REMARK    5  A    between atoms: C_10  and  C_11 
REMARK    6  A    between atoms: C_11  and  N_12 
REMARK    7  A    between atoms: C_25  and  C_26 
ROOT
HETATM    1  C   UNL     1      -6.187   1.572 -33.362  1.00  0.00     0.073 A 
HETATM    2  C   UNL     1      -7.229   2.363 -33.816  1.00  0.00     0.093 A 
HETATM    3  S   UNL     1      -6.927   4.029 -33.711  1.00  0.00    -0.075 SA
HETATM    4  C   UNL     1      -5.352   3.757 -33.138  1.00  0.00    -0.008 A 
HETATM    5  C   UNL     1      -5.066   2.415 -32.974  1.00  0.00    -0.026 A 
HETATM    6  C   UNL     1      -3.757   1.984 -32.378  1.00  0.00     0.041 C 
HETATM    7  C   UNL     1      -3.087   3.120 -31.584  1.00  0.00     0.010 C 
HETATM    8  C   UNL     1      -3.027   4.442 -32.396  1.00  0.00    -0.002 C 
HETATM    9  C   UNL     1      -4.464   4.908 -32.762  1.00  0.00     0.052 C 
ENDROOT
BRANCH   1  10
HETATM   10  C   UNL     1      -6.308   0.117 -33.174  1.00  0.00     0.259 C 
HETATM   11  N   UNL     1      -5.910  -0.618 -34.273  1.00  0.00    -0.322 N 
HETATM   12  H   UNL     1      -5.746  -0.083 -35.114  1.00  0.00     0.169 HD
HETATM   13  O   UNL     1      -6.756  -0.337 -32.123  1.00  0.00    -0.267 OA
BRANCH  11  14
HETATM   14  C   UNL     1      -5.800  -2.025 -34.388  1.00  0.00     0.041 A 
HETATM   15  C   UNL     1      -4.594  -2.659 -34.008  1.00  0.00    -0.032 A 
HETATM   16  C   UNL     1      -4.485  -4.059 -34.135  1.00  0.00     0.009 A 
HETATM   17  C   UNL     1      -5.549  -4.825 -34.602  1.00  0.00     0.001 A 
HETATM   18  C   UNL     1      -6.741  -4.205 -34.949  1.00  0.00     0.002 A 
HETATM   19  C   UNL     1      -6.864  -2.818 -34.841  1.00  0.00     0.030 A 
BRANCH  15  20
HETATM   20  C   UNL     1      -3.383  -1.917 -33.484  1.00  0.00     0.036 C 
HETATM   21  C   UNL     1      -3.404  -1.785 -31.969  1.00  0.00     0.010 C 
ENDBRANCH  15  20
ENDBRANCH  11  14
ENDBRANCH   1  10
BRANCH   2  22
HETATM   22  N   UNL     1      -8.496   2.093 -34.284  1.00  0.00    -0.319 N 
HETATM   23  C   UNL     1      -9.618   2.295 -33.514  1.00  0.00     0.248 C 
HETATM   24  O   UNL     1      -9.663   2.320 -32.283  1.00  0.00    -0.271 OA
HETATM   25  H   UNL     1      -8.541   1.546 -35.136  1.00  0.00     0.169 HD
BRANCH  23  26
HETATM   26  C   UNL     1     -10.901   2.466 -34.323  1.00  0.00     0.337 C 
BRANCH  26  27
HETATM   27  N   UNL     1     -11.351   3.922 -34.367  1.00  0.00    -0.059 N 
HETATM   28  H   UNL     1     -11.356   4.232 -33.381  1.00  0.00     0.280 HD
HETATM   29  C   UNL     1     -10.336   4.828 -35.070  1.00  0.00     0.261 C 
HETATM   30  C   UNL     1     -10.857   6.270 -35.064  1.00  0.00     0.195 C 
HETATM   31  O   UNL     1     -12.150   6.352 -35.678  1.00  0.00    -0.388 OA
HETATM   32  C   UNL     1     -13.119   5.570 -34.972  1.00  0.00     0.195 C 
HETATM   33  C   UNL     1     -12.730   4.090 -34.968  1.00  0.00     0.261 C 
ENDBRANCH  26  27
ENDBRANCH  23  26
ENDBRANCH   2  22
BRANCH   8  34
HETATM   34  C   UNL     1      -2.174   5.573 -31.704  1.00  0.00    -0.047 C 
HETATM   35  C   UNL     1      -0.927   4.960 -31.031  1.00  0.00     0.015 C 
HETATM   36  C   UNL     1      -1.675   6.592 -32.751  1.00  0.00     0.015 C 
HETATM   37  C   UNL     1      -2.969   6.339 -30.628  1.00  0.00     0.015 C 
ENDBRANCH   8  34
TORSDOF 7
ENDMDL
MODEL 7
REMARK VINA RESULT:      -9.0      2.007      2.636
REMARK  7 active torsions:
REMARK  status: ('A' for Active; 'I' for Inactive)
REMARK    1  A    between atoms: C_2  and  C_3 
REMARK    2  A    between atoms: C_4  and  N_5 
REMARK       I    between atoms: N_5  and  C_6 
REMARK    3  A    between atoms: C_6  and  C_7 
REMARK    4  A    between atoms: C_8  and  N_9 
REMARK       I    between atoms: N_9  and  C_10 
REMARK    5  A    between atoms: C_10  and  C_11 
REMARK    6  A    between atoms: C_11  and  N_12 
REMARK    7  A    between atoms: C_25  and  C_26 
ROOT
HETATM    1  C   UNL     1      -5.947   3.685 -32.252  1.00  0.00     0.073 A 
HETATM    2  C   UNL     1      -6.839   4.731 -32.080  1.00  0.00     0.093 A 
HETATM    3  S   UNL     1      -6.101   6.213 -31.714  1.00  0.00    -0.075 SA
HETATM    4  C   UNL     1      -4.551   5.535 -31.862  1.00  0.00    -0.008 A 
HETATM    5  C   UNL     1      -4.584   4.181 -32.134  1.00  0.00    -0.026 A 
HETATM    6  C   UNL     1      -3.310   3.388 -32.198  1.00  0.00     0.041 C 
HETATM    7  C   UNL     1      -2.153   4.103 -31.478  1.00  0.00     0.010 C 
HETATM    8  C   UNL     1      -2.018   5.586 -31.922  1.00  0.00    -0.002 C 
HETATM    9  C   UNL     1      -3.325   6.360 -31.595  1.00  0.00     0.052 C 
ENDROOT
BRANCH   1  10
HETATM   10  C   UNL     1      -6.371   2.281 -32.375  1.00  0.00     0.259 C 
HETATM   11  N   UNL     1      -5.857   1.643 -33.487  1.00  0.00    -0.322 N 
HETATM   12  H   UNL     1      -5.399   2.244 -34.156  1.00  0.00     0.169 HD
HETATM   13  O   UNL     1      -7.137   1.790 -31.547  1.00  0.00    -0.267 OA
BRANCH  11  14
HETATM   14  C   UNL     1      -5.980   0.278 -33.843  1.00  0.00     0.041 A 
HETATM   15  C   UNL     1      -4.923  -0.613 -33.545  1.00  0.00    -0.032 A 
HETATM   16  C   UNL     1      -5.044  -1.969 -33.912  1.00  0.00     0.009 A 
HETATM   17  C   UNL     1      -6.193  -2.447 -34.536  1.00  0.00     0.001 A 
HETATM   18  C   UNL     1      -7.241  -1.577 -34.803  1.00  0.00     0.002 A 
HETATM   19  C   UNL     1      -7.134  -0.227 -34.458  1.00  0.00     0.030 A 
BRANCH  15  20
HETATM   20  C   UNL     1      -3.637  -0.195 -32.865  1.00  0.00     0.036 C 
HETATM   21  C   UNL     1      -3.578  -0.656 -31.416  1.00  0.00     0.010 C 
ENDBRANCH  15  20
ENDBRANCH  11  14
ENDBRANCH   1  10
BRANCH   2  22
HETATM   22  N   UNL     1      -8.213   4.820 -32.080  1.00  0.00    -0.319 N 
HETATM   23  C   UNL     1      -8.936   4.966 -33.242  1.00  0.00     0.248 C 
HETATM   24  O   UNL     1      -8.523   5.433 -34.304  1.00  0.00    -0.271 OA
HETATM   25  H   UNL     1      -8.642   4.985 -31.177  1.00  0.00     0.169 HD
BRANCH  23  26
HETATM   26  C   UNL     1     -10.390   4.517 -33.126  1.00  0.00     0.337 C 
BRANCH  26  27
HETATM   27  N   UNL     1     -10.588   3.104 -33.664  1.00  0.00    -0.059 N 
HETATM   28  H   UNL     1      -9.899   3.007 -34.427  1.00  0.00     0.280 HD
HETATM   29  C   UNL     1     -10.213   2.029 -32.641  1.00  0.00     0.261 C 
HETATM   30  C   UNL     1     -10.432   0.643 -33.260  1.00  0.00     0.195 C 
HETATM   31  O   UNL     1     -11.783   0.490 -33.712  1.00  0.00    -0.388 OA
HETATM   32  C   UNL     1     -12.110   1.443 -34.729  1.00  0.00     0.195 C 
HETATM   33  C   UNL     1     -11.985   2.873 -34.199  1.00  0.00     0.261 C 
ENDBRANCH  26  27
ENDBRANCH  23  26
ENDBRANCH   2  22
BRANCH   8  34
HETATM   34  C   UNL     1      -0.728   6.298 -31.363  1.00  0.00    -0.047 C 
HETATM   35  C   UNL     1      -1.047   7.005 -30.028  1.00  0.00     0.015 C 
HETATM   36  C   UNL     1       0.382   5.263 -31.078  1.00  0.00     0.015 C 
HETATM   37  C   UNL     1      -0.164   7.351 -32.337  1.00  0.00     0.015 C 
ENDBRANCH   8  34
TORSDOF 7
ENDMDL
MODEL 8
REMARK VINA RESULT:      -8.9      2.022      2.941
REMARK  7 active torsions:
REMARK  status: ('A' for Active; 'I' for Inactive)
REMARK    1  A    between atoms: C_2  and  C_3 
REMARK    2  A    between atoms: C_4  and  N_5 
REMARK       I    between atoms: N_5  and  C_6 
REMARK    3  A    between atoms: C_6  and  C_7 
REMARK    4  A    between atoms: C_8  and  N_9 
REMARK       I    between atoms: N_9  and  C_10 
REMARK    5  A    between atoms: C_10  and  C_11 
REMARK    6  A    between atoms: C_11  and  N_12 
REMARK    7  A    between atoms: C_25  and  C_26 
ROOT
HETATM    1  C   UNL     1      -5.386   3.892 -32.499  1.00  0.00     0.073 A 
HETATM    2  C   UNL     1      -6.373   4.430 -31.691  1.00  0.00     0.093 A 
HETATM    3  S   UNL     1      -5.792   5.513 -30.522  1.00  0.00    -0.075 SA
HETATM    4  C   UNL     1      -4.205   5.374 -31.110  1.00  0.00    -0.008 A 
HETATM    5  C   UNL     1      -4.098   4.474 -32.153  1.00  0.00    -0.026 A 
HETATM    6  C   UNL     1      -2.754   4.142 -32.735  1.00  0.00     0.041 C 
HETATM    7  C   UNL     1      -1.608   4.497 -31.770  1.00  0.00     0.010 C 
HETATM    8  C   UNL     1      -1.738   5.943 -31.218  1.00  0.00    -0.002 C 
HETATM    9  C   UNL     1      -3.073   6.097 -30.439  1.00  0.00     0.052 C 
ENDROOT
BRANCH   1  10
HETATM   10  C   UNL     1      -5.634   2.788 -33.441  1.00  0.00     0.259 C 
HETATM   11  N   UNL     1      -5.455   1.536 -32.886  1.00  0.00    -0.322 N 
HETATM   12  H   UNL     1      -5.024   1.527 -31.973  1.00  0.00     0.169 HD
HETATM   13  O   UNL     1      -5.942   3.026 -34.607  1.00  0.00    -0.267 OA
BRANCH  11  14
HETATM   14  C   UNL     1      -5.710   0.275 -33.478  1.00  0.00     0.041 A 
HETATM   15  C   UNL     1      -4.762  -0.764 -33.332  1.00  0.00    -0.032 A 
HETATM   16  C   UNL     1      -5.015  -2.014 -33.932  1.00  0.00     0.009 A 
HETATM   17  C   UNL     1      -6.190  -2.248 -34.641  1.00  0.00     0.001 A 
HETATM   18  C   UNL     1      -7.133  -1.237 -34.760  1.00  0.00     0.002 A 
HETATM   19  C   UNL     1      -6.894   0.013 -34.182  1.00  0.00     0.030 A 
BRANCH  15  20
HETATM   20  C   UNL     1      -3.458  -0.612 -32.577  1.00  0.00     0.036 C 
HETATM   21  C   UNL     1      -2.991  -1.927 -31.971  1.00  0.00     0.010 C 
ENDBRANCH  15  20
ENDBRANCH  11  14
ENDBRANCH   1  10
BRANCH   2  22
HETATM   22  N   UNL     1      -7.732   4.233 -31.586  1.00  0.00    -0.319 N 
HETATM   23  C   UNL     1      -8.264   3.129 -30.961  1.00  0.00     0.248 C 
HETATM   24  O   UNL     1      -7.707   2.042 -30.802  1.00  0.00    -0.271 OA
HETATM   25  H   UNL     1      -8.307   4.827 -32.172  1.00  0.00     0.169 HD
BRANCH  23  26
HETATM   26  C   UNL     1      -9.695   3.326 -30.471  1.00  0.00     0.337 C 
BRANCH  26  27
HETATM   27  N   UNL     1     -10.715   2.964 -31.546  1.00  0.00    -0.059 N 
HETATM   28  H   UNL     1     -11.473   2.474 -31.043  1.00  0.00     0.280 HD
HETATM   29  C   UNL     1     -11.373   4.197 -32.169  1.00  0.00     0.261 C 
HETATM   30  C   UNL     1     -12.386   3.748 -33.229  1.00  0.00     0.195 C 
HETATM   31  O   UNL     1     -11.760   2.926 -34.223  1.00  0.00    -0.388 OA
HETATM   32  C   UNL     1     -11.216   1.732 -33.653  1.00  0.00     0.195 C 
HETATM   33  C   UNL     1     -10.139   2.061 -32.617  1.00  0.00     0.261 C 
ENDBRANCH  26  27
ENDBRANCH  23  26
ENDBRANCH   2  22
BRANCH   8  34
HETATM   34  C   UNL     1      -0.485   6.417 -30.388  1.00  0.00    -0.047 C 
HETATM   35  C   UNL     1       0.201   5.205 -29.720  1.00  0.00     0.015 C 
HETATM   36  C   UNL     1       0.559   7.080 -31.314  1.00  0.00     0.015 C 
HETATM   37  C   UNL     1      -0.854   7.425 -29.282  1.00  0.00     0.015 C 
ENDBRANCH   8  34
TORSDOF 7
ENDMDL
MODEL 9
REMARK VINA RESULT:      -8.8      2.802      3.026
REMARK  7 active torsions:
REMARK  status: ('A' for Active; 'I' for Inactive)
REMARK    1  A    between atoms: C_2  and  C_3 
REMARK    2  A    between atoms: C_4  and  N_5 
REMARK       I    between atoms: N_5  and  C_6 
REMARK    3  A    between atoms: C_6  and  C_7 
REMARK    4  A    between atoms: C_8  and  N_9 
REMARK       I    between atoms: N_9  and  C_10 
REMARK    5  A    between atoms: C_10  and  C_11 
REMARK    6  A    between atoms: C_11  and  N_12 
REMARK    7  A    between atoms: C_25  and  C_26 
ROOT
HETATM    1  C   UNL     1      -6.176   2.650 -32.707  1.00  0.00     0.073 A 
HETATM    2  C   UNL     1      -7.259   3.513 -32.726  1.00  0.00     0.093 A 
HETATM    3  S   UNL     1      -6.844   5.144 -32.516  1.00  0.00    -0.075 SA
HETATM    4  C   UNL     1      -5.188   4.770 -32.484  1.00  0.00    -0.008 A 
HETATM    5  C   UNL     1      -4.944   3.412 -32.578  1.00  0.00    -0.026 A 
HETATM    6  C   UNL     1      -3.544   2.882 -32.463  1.00  0.00     0.041 C 
HETATM    7  C   UNL     1      -2.604   3.891 -31.778  1.00  0.00     0.010 C 
HETATM    8  C   UNL     1      -2.713   5.308 -32.404  1.00  0.00    -0.002 C 
HETATM    9  C   UNL     1      -4.163   5.844 -32.258  1.00  0.00     0.052 C 
ENDROOT
BRANCH   1  10
HETATM   10  C   UNL     1      -6.319   1.184 -32.669  1.00  0.00     0.259 C 
HETATM   11  N   UNL     1      -5.861   0.554 -33.809  1.00  0.00    -0.322 N 
HETATM   12  H   UNL     1      -5.642   1.166 -34.582  1.00  0.00     0.169 HD
HETATM   13  O   UNL     1      -6.833   0.637 -31.695  1.00  0.00    -0.267 OA
BRANCH  11  14
HETATM   14  C   UNL     1      -5.755  -0.836 -34.054  1.00  0.00     0.041 A 
HETATM   15  C   UNL     1      -4.538  -1.499 -33.771  1.00  0.00    -0.032 A 
HETATM   16  C   UNL     1      -4.433  -2.882 -34.026  1.00  0.00     0.009 A 
HETATM   17  C   UNL     1      -5.512  -3.606 -34.526  1.00  0.00     0.001 A 
HETATM   18  C   UNL     1      -6.714  -2.960 -34.778  1.00  0.00     0.002 A 
HETATM   19  C   UNL     1      -6.833  -1.588 -34.542  1.00  0.00     0.030 A 
BRANCH  15  20
HETATM   20  C   UNL     1      -3.310  -0.804 -33.222  1.00  0.00     0.036 C 
HETATM   21  C   UNL     1      -3.241  -0.878 -31.703  1.00  0.00     0.010 C 
ENDBRANCH  15  20
ENDBRANCH  11  14
ENDBRANCH   1  10
BRANCH   2  22
HETATM   22  N   UNL     1      -8.621   3.331 -32.817  1.00  0.00    -0.319 N 
HETATM   23  C   UNL     1      -9.419   3.211 -31.702  1.00  0.00     0.248 C 
HETATM   24  O   UNL     1      -9.059   2.841 -30.584  1.00  0.00    -0.271 OA
HETATM   25  H   UNL     1      -8.969   3.080 -33.735  1.00  0.00     0.169 HD
BRANCH  23  26
HETATM   26  C   UNL     1     -10.885   3.553 -31.952  1.00  0.00     0.337 C 
BRANCH  26  27
HETATM   27  N   UNL     1     -11.374   4.656 -31.020  1.00  0.00    -0.059 N 
HETATM   28  H   UNL     1     -11.138   4.329 -30.069  1.00  0.00     0.280 HD
HETATM   29  C   UNL     1     -10.598   5.963 -31.202  1.00  0.00     0.261 C 
HETATM   30  C   UNL     1     -11.142   7.014 -30.226  1.00  0.00     0.195 C 
HETATM   31  O   UNL     1     -12.551   7.208 -30.412  1.00  0.00    -0.388 OA
HETATM   32  C   UNL     1     -13.285   6.005 -30.162  1.00  0.00     0.195 C 
HETATM   33  C   UNL     1     -12.864   4.895 -31.129  1.00  0.00     0.261 C 
ENDBRANCH  26  27
ENDBRANCH  23  26
ENDBRANCH   2  22
BRANCH   8  34
HETATM   34  C   UNL     1      -1.629   6.320 -31.870  1.00  0.00    -0.047 C 
HETATM   35  C   UNL     1      -2.111   6.972 -30.557  1.00  0.00     0.015 C 
HETATM   36  C   UNL     1      -0.308   5.583 -31.557  1.00  0.00     0.015 C 
HETATM   37  C   UNL     1      -1.323   7.446 -32.877  1.00  0.00     0.015 C 
ENDBRANCH   8  34
TORSDOF 7
ENDMDL
MODEL 10
REMARK VINA RESULT:      -8.7      1.936      6.576
REMARK  7 active torsions:
REMARK  status: ('A' for Active; 'I' for Inactive)
REMARK    1  A    between atoms: C_2  and  C_3 
REMARK    2  A    between atoms: C_4  and  N_5 
REMARK       I    between atoms: N_5  and  C_6 
REMARK    3  A    between atoms: C_6  and  C_7 
REMARK    4  A    between atoms: C_8  and  N_9 
REMARK       I    between atoms: N_9  and  C_10 
REMARK    5  A    between atoms: C_10  and  C_11 
REMARK    6  A    between atoms: C_11  and  N_12 
REMARK    7  A    between atoms: C_25  and  C_26 
ROOT
HETATM    1  C   UNL     1      -7.386   1.392 -31.922  1.00  0.00     0.073 A 
HETATM    2  C   UNL     1      -8.749   1.322 -32.158  1.00  0.00     0.093 A 
HETATM    3  S   UNL     1      -9.221  -0.024 -33.076  1.00  0.00    -0.075 SA
HETATM    4  C   UNL     1      -7.630  -0.617 -33.117  1.00  0.00    -0.008 A 
HETATM    5  C   UNL     1      -6.731   0.222 -32.486  1.00  0.00    -0.026 A 
HETATM    6  C   UNL     1      -5.261  -0.085 -32.509  1.00  0.00     0.041 C 
HETATM    7  C   UNL     1      -4.896  -1.055 -33.647  1.00  0.00     0.010 C 
HETATM    8  C   UNL     1      -5.821  -2.302 -33.669  1.00  0.00    -0.002 C 
HETATM    9  C   UNL     1      -7.297  -1.867 -33.878  1.00  0.00     0.052 C 
ENDROOT
BRANCH   1  10
HETATM   10  C   UNL     1      -6.736   2.570 -31.324  1.00  0.00     0.259 C 
HETATM   11  N   UNL     1      -6.540   3.606 -32.216  1.00  0.00    -0.322 N 
HETATM   12  H   UNL     1      -6.708   3.378 -33.185  1.00  0.00     0.169 HD
HETATM   13  O   UNL     1      -6.397   2.558 -30.142  1.00  0.00    -0.267 OA
BRANCH  11  14
HETATM   14  C   UNL     1      -6.043   4.905 -31.948  1.00  0.00     0.041 A 
HETATM   15  C   UNL     1      -4.722   5.233 -32.327  1.00  0.00    -0.032 A 
HETATM   16  C   UNL     1      -4.227   6.524 -32.049  1.00  0.00     0.009 A 
HETATM   17  C   UNL     1      -5.026   7.483 -31.432  1.00  0.00     0.001 A 
HETATM   18  C   UNL     1      -6.331   7.169 -31.084  1.00  0.00     0.002 A 
HETATM   19  C   UNL     1      -6.835   5.891 -31.342  1.00  0.00     0.030 A 
BRANCH  15  20
HETATM   20  C   UNL     1      -3.777   4.265 -33.007  1.00  0.00     0.036 C 
HETATM   21  C   UNL     1      -2.510   4.034 -32.196  1.00  0.00     0.010 C 
ENDBRANCH  15  20
ENDBRANCH  11  14
ENDBRANCH   1  10
BRANCH   2  22
HETATM   22  N   UNL     1      -9.812   2.146 -31.860  1.00  0.00    -0.319 N 
HETATM   23  C   UNL     1     -10.208   3.161 -32.699  1.00  0.00     0.248 C 
HETATM   24  O   UNL     1      -9.506   3.731 -33.536  1.00  0.00    -0.271 OA
HETATM   25  H   UNL     1     -10.146   2.101 -30.904  1.00  0.00     0.169 HD
BRANCH  23  26
HETATM   26  C   UNL     1     -11.657   3.597 -32.502  1.00  0.00     0.337 C 
BRANCH  26  27
HETATM   27  N   UNL     1     -12.632   2.459 -32.787  1.00  0.00    -0.059 N 
HETATM   28  H   UNL     1     -12.415   1.736 -32.081  1.00  0.00     0.280 HD
HETATM   29  C   UNL     1     -14.087   2.855 -32.526  1.00  0.00     0.261 C 
HETATM   30  C   UNL     1     -14.998   1.659 -32.827  1.00  0.00     0.195 C 
HETATM   31  O   UNL     1     -14.812   1.195 -34.170  1.00  0.00    -0.388 OA
HETATM   32  C   UNL     1     -13.470   0.746 -34.391  1.00  0.00     0.195 C 
HETATM   33  C   UNL     1     -12.470   1.886 -34.178  1.00  0.00     0.261 C 
ENDBRANCH  26  27
ENDBRANCH  23  26
ENDBRANCH   2  22
BRANCH   8  34
HETATM   34  C   UNL     1      -5.359  -3.414 -34.687  1.00  0.00    -0.047 C 
HETATM   35  C   UNL     1      -4.212  -4.248 -34.078  1.00  0.00     0.015 C 
HETATM   36  C   UNL     1      -6.521  -4.386 -34.990  1.00  0.00     0.015 C 
HETATM   37  C   UNL     1      -4.865  -2.825 -36.023  1.00  0.00     0.015 C 
ENDBRANCH   8  34
TORSDOF 7
ENDMDL
