MODEL 1
REMARK VINA RESULT:      -8.5      0.000      0.000
REMARK  7 active torsions:
REMARK  status: ('A' for Active; 'I' for Inactive)
REMARK    1  A    between atoms: C_2  and  C_3 
REMARK    2  A    between atoms: C_3  and  C_4 
REMARK    3  A    between atoms: C_7  and  C_8 
REMARK    4  A    between atoms: C_14  and  C_15 
REMARK    5  A    between atoms: C_16  and  O_17 
REMARK    6  A    between atoms: O_17  and  C_18 
REMARK       I    between atoms: C_18  and  N_19 
REMARK    7  A    between atoms: C_33  and  N_34 
ROOT
HETATM    1  C   UNL     1     -12.521   0.786 -33.637  1.00  0.00     0.099 A 
HETATM    2  N   UNL     1     -13.247  -0.188 -34.224  1.00  0.00    -0.172 NA
HETATM    3  N   UNL     1     -14.529   0.175 -34.040  1.00  0.00    -0.256 N 
HETATM    4  H   UNL     1     -15.264  -0.431 -34.385  1.00  0.00     0.191 HD
HETATM    5  C   UNL     1     -14.650   1.351 -33.378  1.00  0.00     0.175 A 
HETATM    6  C   UNL     1     -13.379   1.799 -33.128  1.00  0.00     0.040 A 
HETATM    7  C   UNL     1     -13.185   3.099 -32.425  1.00  0.00     0.109 A 
HETATM    8  C   UNL     1     -14.528   3.652 -31.939  1.00  0.00     0.081 A 
HETATM    9  C   UNL     1     -14.467   4.777 -31.067  1.00  0.00     0.100 C 
HETATM   10  N   UNL     1     -14.402   5.682 -30.342  1.00  0.00    -0.191 NA
HETATM   11  C   UNL     1     -15.722   3.078 -32.252  1.00  0.00     0.140 A 
HETATM   12  O   UNL     1     -15.803   1.920 -33.047  1.00  0.00    -0.279 OA
ENDROOT
BRANCH   7  13
HETATM   13  C   UNL     1     -12.493   4.043 -33.402  1.00  0.00    -0.010 A 
HETATM   14  C   UNL     1     -11.220   4.574 -33.110  1.00  0.00     0.088 A 
HETATM   15  C   UNL     1     -10.613   5.507 -33.954  1.00  0.00     0.038 A 
HETATM   16  C   UNL     1     -11.256   5.909 -35.123  1.00  0.00     0.003 A 
HETATM   17  C   UNL     1     -12.513   5.400 -35.436  1.00  0.00     0.001 A 
HETATM   18  C   UNL     1     -13.131   4.487 -34.580  1.00  0.00     0.011 A 
BRANCH  14  19
HETATM   19  O   UNL     1     -10.638   4.189 -31.873  1.00  0.00    -0.261 OA
BRANCH  19  20
HETATM   20  C   UNL     1     -10.017   5.042 -30.954  1.00  0.00     0.368 C 
HETATM   21  N   UNL     1      -8.745   4.607 -30.611  1.00  0.00    -0.324 N 
HETATM   22  C   UNL     1      -8.228   3.292 -30.992  1.00  0.00     0.154 C 
HETATM   23  C   UNL     1      -8.103   5.204 -29.441  1.00  0.00     0.154 C 
HETATM   24  C   UNL     1      -6.697   3.282 -31.012  1.00  0.00     0.187 C 
HETATM   25  O   UNL     1      -6.157   3.756 -29.770  1.00  0.00    -0.388 OA
HETATM   26  C   UNL     1      -6.579   5.106 -29.522  1.00  0.00     0.187 C 
HETATM   27  O   UNL     1     -10.521   6.064 -30.504  1.00  0.00    -0.238 OA
ENDBRANCH  19  20
ENDBRANCH  14  19
ENDBRANCH   7  13
BRANCH  11  28
HETATM   28  N   UNL     1     -16.956   3.527 -31.841  1.00  0.00    -0.282 NA
HETATM   29  H   UNL     1     -17.582   3.830 -32.583  1.00  0.00     0.126 HD
HETATM   30  H   UNL     1     -17.398   2.885 -31.188  1.00  0.00     0.126 HD
ENDBRANCH  11  28
BRANCH   1  31
HETATM   31  C   UNL     1     -11.060   0.707 -33.596  1.00  0.00    -0.005 A 
HETATM   32  C   UNL     1     -10.293   1.504 -34.455  1.00  0.00     0.014 A 
HETATM   33  C   UNL     1      -8.898   1.429 -34.442  1.00  0.00     0.008 A 
HETATM   34  C   UNL     1      -8.242   0.553 -33.569  1.00  0.00    -0.058 A 
HETATM   35  C   UNL     1      -9.008  -0.247 -32.712  1.00  0.00     0.008 A 
HETATM   36  C   UNL     1     -10.404  -0.176 -32.731  1.00  0.00     0.014 A 
BRANCH  34  37
HETATM   37  C   UNL     1      -6.735   0.465 -33.555  1.00  0.00     0.042 C 
BRANCH  37  38
HETATM   38  C   UNL     1      -6.199  -0.972 -33.405  1.00  0.00    -0.019 C 
HETATM   39  C   UNL     1      -4.740  -0.994 -32.940  1.00  0.00     0.010 C 
HETATM   40  C   UNL     1      -6.327  -1.712 -34.738  1.00  0.00     0.010 C 
ENDBRANCH  37  38
ENDBRANCH  34  37
ENDBRANCH   1  31
TORSDOF 7
ENDMDL
MODEL 2
REMARK VINA RESULT:      -8.2      3.331      5.821
REMARK  7 active torsions:
REMARK  status: ('A' for Active; 'I' for Inactive)
REMARK    1  A    between atoms: C_2  and  C_3 
REMARK    2  A    between atoms: C_3  and  C_4 
REMARK    3  A    between atoms: C_7  and  C_8 
REMARK    4  A    between atoms: C_14  and  C_15 
REMARK    5  A    between atoms: C_16  and  O_17 
REMARK    6  A    between atoms: O_17  and  C_18 
REMARK       I    between atoms: C_18  and  N_19 
REMARK    7  A    between atoms: C_33  and  N_34 
ROOT
HETATM    1  C   UNL     1      -9.246   1.907 -32.852  1.00  0.00     0.099 A 
HETATM    2  N   UNL     1     -10.565   2.017 -33.114  1.00  0.00    -0.172 NA
HETATM    3  N   UNL     1     -10.994   3.017 -32.323  1.00  0.00    -0.256 N 
HETATM    4  H   UNL     1     -11.977   3.263 -32.337  1.00  0.00     0.191 HD
HETATM    5  C   UNL     1     -10.000   3.564 -31.584  1.00  0.00     0.175 A 
HETATM    6  C   UNL     1      -8.846   2.902 -31.918  1.00  0.00     0.040 A 
HETATM    7  C   UNL     1      -7.561   3.302 -31.279  1.00  0.00     0.109 A 
HETATM    8  C   UNL     1      -7.808   4.337 -30.178  1.00  0.00     0.081 A 
HETATM    9  C   UNL     1      -6.696   4.647 -29.342  1.00  0.00     0.100 C 
HETATM   10  N   UNL     1      -5.786   4.874 -28.657  1.00  0.00    -0.191 NA
HETATM   11  C   UNL     1      -9.028   4.895 -29.947  1.00  0.00     0.140 A 
HETATM   12  O   UNL     1     -10.160   4.547 -30.707  1.00  0.00    -0.279 OA
ENDROOT
BRANCH   7  13
HETATM   13  C   UNL     1      -6.655   3.839 -32.382  1.00  0.00    -0.010 A 
HETATM   14  C   UNL     1      -5.286   3.505 -32.414  1.00  0.00     0.088 A 
HETATM   15  C   UNL     1      -4.426   4.059 -33.366  1.00  0.00     0.038 A 
HETATM   16  C   UNL     1      -4.926   4.939 -34.324  1.00  0.00     0.003 A 
HETATM   17  C   UNL     1      -6.274   5.285 -34.316  1.00  0.00     0.001 A 
HETATM   18  C   UNL     1      -7.127   4.752 -33.349  1.00  0.00     0.011 A 
BRANCH  14  19
HETATM   19  O   UNL     1      -4.811   2.661 -31.374  1.00  0.00    -0.261 OA
BRANCH  19  20
HETATM   20  C   UNL     1      -3.530   2.106 -31.284  1.00  0.00     0.368 C 
HETATM   21  N   UNL     1      -3.545   0.726 -31.427  1.00  0.00    -0.324 N 
HETATM   22  C   UNL     1      -4.782  -0.055 -31.434  1.00  0.00     0.154 C 
HETATM   23  C   UNL     1      -2.347  -0.021 -31.046  1.00  0.00     0.154 C 
HETATM   24  C   UNL     1      -4.589  -1.392 -32.155  1.00  0.00     0.187 C 
HETATM   25  O   UNL     1      -3.473  -2.117 -31.620  1.00  0.00    -0.388 OA
HETATM   26  C   UNL     1      -2.261  -1.361 -31.776  1.00  0.00     0.187 C 
HETATM   27  O   UNL     1      -2.503   2.752 -31.110  1.00  0.00    -0.238 OA
ENDBRANCH  19  20
ENDBRANCH  14  19
ENDBRANCH   7  13
BRANCH  11  28
HETATM   28  N   UNL     1      -9.310   5.824 -28.970  1.00  0.00    -0.282 NA
HETATM   29  H   UNL     1      -8.513   6.139 -28.423  1.00  0.00     0.126 HD
HETATM   30  H   UNL     1      -9.874   6.592 -29.325  1.00  0.00     0.126 HD
ENDBRANCH  11  28
BRANCH   1  31
HETATM   31  C   UNL     1      -8.438   0.876 -33.504  1.00  0.00    -0.005 A 
HETATM   32  C   UNL     1      -8.436  -0.432 -33.001  1.00  0.00     0.014 A 
HETATM   33  C   UNL     1      -7.657  -1.425 -33.600  1.00  0.00     0.008 A 
HETATM   34  C   UNL     1      -6.863  -1.130 -34.714  1.00  0.00    -0.058 A 
HETATM   35  C   UNL     1      -6.861   0.178 -35.216  1.00  0.00     0.008 A 
HETATM   36  C   UNL     1      -7.636   1.173 -34.612  1.00  0.00     0.014 A 
BRANCH  34  37
HETATM   37  C   UNL     1      -6.016  -2.199 -35.362  1.00  0.00     0.042 C 
BRANCH  37  38
HETATM   38  C   UNL     1      -6.081  -3.561 -34.645  1.00  0.00    -0.019 C 
HETATM   39  C   UNL     1      -4.686  -4.126 -34.362  1.00  0.00     0.010 C 
HETATM   40  C   UNL     1      -6.877  -4.553 -35.494  1.00  0.00     0.010 C 
ENDBRANCH  37  38
ENDBRANCH  34  37
ENDBRANCH   1  31
TORSDOF 7
ENDMDL
MODEL 3
REMARK VINA RESULT:      -7.9      5.041     10.258
REMARK  7 active torsions:
REMARK  status: ('A' for Active; 'I' for Inactive)
REMARK    1  A    between atoms: C_2  and  C_3 
REMARK    2  A    between atoms: C_3  and  C_4 
REMARK    3  A    between atoms: C_7  and  C_8 
REMARK    4  A    between atoms: C_14  and  C_15 
REMARK    5  A    between atoms: C_16  and  O_17 
REMARK    6  A    between atoms: O_17  and  C_18 
REMARK       I    between atoms: C_18  and  N_19 
REMARK    7  A    between atoms: C_33  and  N_34 
ROOT
HETATM    1  C   UNL     1      -4.434   7.605 -30.482  1.00  0.00     0.099 A 
HETATM    2  N   UNL     1      -4.669   8.881 -30.111  1.00  0.00    -0.172 NA
HETATM    3  N   UNL     1      -3.483   9.339 -29.673  1.00  0.00    -0.256 N 
HETATM    4  H   UNL     1      -3.426  10.286 -29.316  1.00  0.00     0.191 HD
HETATM    5  C   UNL     1      -2.496   8.416 -29.768  1.00  0.00     0.175 A 
HETATM    6  C   UNL     1      -3.057   7.291 -30.317  1.00  0.00     0.040 A 
HETATM    7  C   UNL     1      -2.204   6.096 -30.572  1.00  0.00     0.109 A 
HETATM    8  C   UNL     1      -0.803   6.303 -29.987  1.00  0.00     0.081 A 
HETATM    9  C   UNL     1       0.047   5.159 -29.969  1.00  0.00     0.100 C 
HETATM   10  N   UNL     1       0.722   4.214 -29.943  1.00  0.00    -0.191 NA
HETATM   11  C   UNL     1      -0.393   7.483 -29.447  1.00  0.00     0.140 A 
HETATM   12  O   UNL     1      -1.241   8.604 -29.382  1.00  0.00    -0.279 OA
ENDROOT
BRANCH   7  13
HETATM   13  C   UNL     1      -2.171   5.877 -32.080  1.00  0.00    -0.010 A 
HETATM   14  C   UNL     1      -2.891   4.817 -32.669  1.00  0.00     0.088 A 
HETATM   15  C   UNL     1      -2.802   4.551 -34.037  1.00  0.00     0.038 A 
HETATM   16  C   UNL     1      -2.008   5.357 -34.851  1.00  0.00     0.003 A 
HETATM   17  C   UNL     1      -1.287   6.410 -34.297  1.00  0.00     0.001 A 
HETATM   18  C   UNL     1      -1.357   6.661 -32.926  1.00  0.00     0.011 A 
BRANCH  14  19
HETATM   19  O   UNL     1      -3.628   3.981 -31.787  1.00  0.00    -0.261 OA
BRANCH  19  20
HETATM   20  C   UNL     1      -3.440   2.606 -31.606  1.00  0.00     0.368 C 
HETATM   21  N   UNL     1      -4.430   1.856 -32.223  1.00  0.00    -0.324 N 
HETATM   22  C   UNL     1      -5.641   2.454 -32.787  1.00  0.00     0.154 C 
HETATM   23  C   UNL     1      -4.551   0.444 -31.864  1.00  0.00     0.154 C 
HETATM   24  C   UNL     1      -6.252   1.556 -33.866  1.00  0.00     0.187 C 
HETATM   25  O   UNL     1      -6.461   0.223 -33.378  1.00  0.00    -0.388 OA
HETATM   26  C   UNL     1      -5.215  -0.367 -32.978  1.00  0.00     0.187 C 
HETATM   27  O   UNL     1      -2.507   2.107 -30.987  1.00  0.00    -0.238 OA
ENDBRANCH  19  20
ENDBRANCH  14  19
ENDBRANCH   7  13
BRANCH  11  28
HETATM   28  N   UNL     1       0.849   7.724 -28.903  1.00  0.00    -0.282 NA
HETATM   29  H   UNL     1       0.979   7.399 -27.948  1.00  0.00     0.126 HD
HETATM   30  H   UNL     1       1.601   7.437 -29.525  1.00  0.00     0.126 HD
ENDBRANCH  11  28
BRANCH   1  31
HETATM   31  C   UNL     1      -5.520   6.759 -30.976  1.00  0.00    -0.005 A 
HETATM   32  C   UNL     1      -5.889   6.811 -32.327  1.00  0.00     0.014 A 
HETATM   33  C   UNL     1      -6.936   6.023 -32.812  1.00  0.00     0.008 A 
HETATM   34  C   UNL     1      -7.636   5.167 -31.955  1.00  0.00    -0.058 A 
HETATM   35  C   UNL     1      -7.271   5.115 -30.604  1.00  0.00     0.008 A 
HETATM   36  C   UNL     1      -6.228   5.910 -30.118  1.00  0.00     0.014 A 
BRANCH  34  37
HETATM   37  C   UNL     1      -8.772   4.317 -32.474  1.00  0.00     0.042 C 
BRANCH  37  38
HETATM   38  C   UNL     1      -9.328   3.325 -31.436  1.00  0.00    -0.019 C 
HETATM   39  C   UNL     1      -9.478   1.915 -32.014  1.00  0.00     0.010 C 
HETATM   40  C   UNL     1     -10.683   3.819 -30.923  1.00  0.00     0.010 C 
ENDBRANCH  37  38
ENDBRANCH  34  37
ENDBRANCH   1  31
TORSDOF 7
ENDMDL
MODEL 4
REMARK VINA RESULT:      -7.7      3.653      8.506
REMARK  7 active torsions:
REMARK  status: ('A' for Active; 'I' for Inactive)
REMARK    1  A    between atoms: C_2  and  C_3 
REMARK    2  A    between atoms: C_3  and  C_4 
REMARK    3  A    between atoms: C_7  and  C_8 
REMARK    4  A    between atoms: C_14  and  C_15 
REMARK    5  A    between atoms: C_16  and  O_17 
REMARK    6  A    between atoms: O_17  and  C_18 
REMARK       I    between atoms: C_18  and  N_19 
REMARK    7  A    between atoms: C_33  and  N_34 
ROOT
HETATM    1  C   UNL     1      -2.945   4.610 -31.700  1.00  0.00     0.099 A 
HETATM    2  N   UNL     1      -1.613   4.403 -31.638  1.00  0.00    -0.172 NA
HETATM    3  N   UNL     1      -1.085   5.613 -31.378  1.00  0.00    -0.256 N 
HETATM    4  H   UNL     1      -0.078   5.702 -31.311  1.00  0.00     0.191 HD
HETATM    5  C   UNL     1      -2.026   6.579 -31.251  1.00  0.00     0.175 A 
HETATM    6  C   UNL     1      -3.244   5.971 -31.416  1.00  0.00     0.040 A 
HETATM    7  C   UNL     1      -4.490   6.782 -31.305  1.00  0.00     0.109 A 
HETATM    8  C   UNL     1      -4.150   8.270 -31.177  1.00  0.00     0.081 A 
HETATM    9  C   UNL     1      -5.245   9.177 -31.278  1.00  0.00     0.100 C 
HETATM   10  N   UNL     1      -6.144   9.904 -31.382  1.00  0.00    -0.191 NA
HETATM   11  C   UNL     1      -2.876   8.730 -31.042  1.00  0.00     0.140 A 
HETATM   12  O   UNL     1      -1.771   7.860 -31.018  1.00  0.00    -0.279 OA
ENDROOT
BRANCH   7  13
HETATM   13  C   UNL     1      -5.262   6.262 -30.098  1.00  0.00    -0.010 A 
HETATM   14  C   UNL     1      -6.522   5.651 -30.259  1.00  0.00     0.088 A 
HETATM   15  C   UNL     1      -7.280   5.249 -29.157  1.00  0.00     0.038 A 
HETATM   16  C   UNL     1      -6.780   5.425 -27.868  1.00  0.00     0.003 A 
HETATM   17  C   UNL     1      -5.538   6.025 -27.680  1.00  0.00     0.001 A 
HETATM   18  C   UNL     1      -4.792   6.450 -28.780  1.00  0.00     0.011 A 
BRANCH  14  19
HETATM   19  O   UNL     1      -7.020   5.559 -31.587  1.00  0.00    -0.261 OA
BRANCH  19  20
HETATM   20  C   UNL     1      -8.198   6.141 -32.067  1.00  0.00     0.368 C 
HETATM   21  N   UNL     1      -9.180   5.196 -32.331  1.00  0.00    -0.324 N 
HETATM   22  C   UNL     1      -8.916   3.757 -32.326  1.00  0.00     0.154 C 
HETATM   23  C   UNL     1     -10.337   5.606 -33.125  1.00  0.00     0.154 C 
HETATM   24  C   UNL     1     -10.198   2.959 -32.072  1.00  0.00     0.187 C 
HETATM   25  O   UNL     1     -11.234   3.334 -32.990  1.00  0.00    -0.388 OA
HETATM   26  C   UNL     1     -11.555   4.726 -32.845  1.00  0.00     0.187 C 
HETATM   27  O   UNL     1      -8.363   7.344 -32.231  1.00  0.00    -0.238 OA
ENDBRANCH  19  20
ENDBRANCH  14  19
ENDBRANCH   7  13
BRANCH  11  28
HETATM   28  N   UNL     1      -2.513  10.053 -30.929  1.00  0.00    -0.282 NA
HETATM   29  H   UNL     1      -3.079  10.710 -31.460  1.00  0.00     0.126 HD
HETATM   30  H   UNL     1      -2.388  10.334 -29.959  1.00  0.00     0.126 HD
ENDBRANCH  11  28
BRANCH   1  31
HETATM   31  C   UNL     1      -3.858   3.511 -32.016  1.00  0.00    -0.005 A 
HETATM   32  C   UNL     1      -4.743   3.625 -33.095  1.00  0.00     0.014 A 
HETATM   33  C   UNL     1      -5.634   2.593 -33.401  1.00  0.00     0.008 A 
HETATM   34  C   UNL     1      -5.657   1.425 -32.630  1.00  0.00    -0.058 A 
HETATM   35  C   UNL     1      -4.776   1.310 -31.548  1.00  0.00     0.008 A 
HETATM   36  C   UNL     1      -3.890   2.347 -31.240  1.00  0.00     0.014 A 
BRANCH  34  37
HETATM   37  C   UNL     1      -6.622   0.308 -32.953  1.00  0.00     0.042 C 
BRANCH  37  38
HETATM   38  C   UNL     1      -6.437  -0.283 -34.363  1.00  0.00    -0.019 C 
HETATM   39  C   UNL     1      -7.553   0.149 -35.317  1.00  0.00     0.010 C 
HETATM   40  C   UNL     1      -6.392  -1.810 -34.280  1.00  0.00     0.010 C 
ENDBRANCH  37  38
ENDBRANCH  34  37
ENDBRANCH   1  31
TORSDOF 7
ENDMDL
MODEL 5
REMARK VINA RESULT:      -7.7      3.273      7.789
REMARK  7 active torsions:
REMARK  status: ('A' for Active; 'I' for Inactive)
REMARK    1  A    between atoms: C_2  and  C_3 
REMARK    2  A    between atoms: C_3  and  C_4 
REMARK    3  A    between atoms: C_7  and  C_8 
REMARK    4  A    between atoms: C_14  and  C_15 
REMARK    5  A    between atoms: C_16  and  O_17 
REMARK    6  A    between atoms: O_17  and  C_18 
REMARK       I    between atoms: C_18  and  N_19 
REMARK    7  A    between atoms: C_33  and  N_34 
ROOT
HETATM    1  C   UNL     1      -5.786   1.083 -31.877  1.00  0.00     0.099 A 
HETATM    2  N   UNL     1      -5.068   0.016 -31.468  1.00  0.00    -0.172 NA
HETATM    3  N   UNL     1      -3.834   0.496 -31.233  1.00  0.00    -0.256 N 
HETATM    4  H   UNL     1      -3.108  -0.144 -30.933  1.00  0.00     0.191 HD
HETATM    5  C   UNL     1      -3.740   1.830 -31.454  1.00  0.00     0.175 A 
HETATM    6  C   UNL     1      -4.985   2.257 -31.837  1.00  0.00     0.040 A 
HETATM    7  C   UNL     1      -5.206   3.702 -32.130  1.00  0.00     0.109 A 
HETATM    8  C   UNL     1      -3.878   4.464 -32.100  1.00  0.00     0.081 A 
HETATM    9  C   UNL     1      -3.913   5.809 -32.572  1.00  0.00     0.100 C 
HETATM   10  N   UNL     1      -3.953   6.896 -32.977  1.00  0.00    -0.191 NA
HETATM   11  C   UNL     1      -2.705   3.893 -31.714  1.00  0.00     0.140 A 
HETATM   12  O   UNL     1      -2.630   2.545 -31.319  1.00  0.00    -0.279 OA
ENDROOT
BRANCH   7  13
HETATM   13  C   UNL     1      -6.195   4.227 -31.094  1.00  0.00    -0.010 A 
HETATM   14  C   UNL     1      -7.302   5.006 -31.488  1.00  0.00     0.088 A 
HETATM   15  C   UNL     1      -8.166   5.567 -30.545  1.00  0.00     0.038 A 
HETATM   16  C   UNL     1      -7.956   5.336 -29.186  1.00  0.00     0.003 A 
HETATM   17  C   UNL     1      -6.871   4.570 -28.770  1.00  0.00     0.001 A 
HETATM   18  C   UNL     1      -5.993   4.031 -29.712  1.00  0.00     0.011 A 
BRANCH  14  19
HETATM   19  O   UNL     1      -7.432   5.272 -32.877  1.00  0.00    -0.261 OA
BRANCH  19  20
HETATM   20  C   UNL     1      -8.401   4.733 -33.732  1.00  0.00     0.368 C 
HETATM   21  N   UNL     1      -9.420   5.635 -34.005  1.00  0.00    -0.324 N 
HETATM   22  C   UNL     1      -9.566   6.904 -33.290  1.00  0.00     0.154 C 
HETATM   23  C   UNL     1     -10.648   5.127 -34.613  1.00  0.00     0.154 C 
HETATM   24  C   UNL     1     -10.353   7.921 -34.122  1.00  0.00     0.187 C 
HETATM   25  O   UNL     1     -11.606   7.378 -34.559  1.00  0.00    -0.388 OA
HETATM   26  C   UNL     1     -11.393   6.219 -35.380  1.00  0.00     0.187 C 
HETATM   27  O   UNL     1      -8.363   3.602 -34.201  1.00  0.00    -0.238 OA
ENDBRANCH  19  20
ENDBRANCH  14  19
ENDBRANCH   7  13
BRANCH  11  28
HETATM   28  N   UNL     1      -1.483   4.527 -31.673  1.00  0.00    -0.282 NA
HETATM   29  H   UNL     1      -1.411   5.375 -32.229  1.00  0.00     0.126 HD
HETATM   30  H   UNL     1      -1.147   4.648 -30.721  1.00  0.00     0.126 HD
ENDBRANCH  11  28
BRANCH   1  31
HETATM   31  C   UNL     1      -7.186   0.933 -32.273  1.00  0.00    -0.005 A 
HETATM   32  C   UNL     1      -8.203   1.427 -31.446  1.00  0.00     0.014 A 
HETATM   33  C   UNL     1      -9.547   1.278 -31.800  1.00  0.00     0.008 A 
HETATM   34  C   UNL     1      -9.899   0.630 -32.990  1.00  0.00    -0.058 A 
HETATM   35  C   UNL     1      -8.884   0.132 -33.816  1.00  0.00     0.008 A 
HETATM   36  C   UNL     1      -7.540   0.277 -33.457  1.00  0.00     0.014 A 
BRANCH  34  37
HETATM   37  C   UNL     1     -11.350   0.461 -33.374  1.00  0.00     0.042 C 
BRANCH  37  38
HETATM   38  C   UNL     1     -12.013   1.757 -33.877  1.00  0.00    -0.019 C 
HETATM   39  C   UNL     1     -13.361   2.012 -33.196  1.00  0.00     0.010 C 
HETATM   40  C   UNL     1     -12.207   1.684 -35.392  1.00  0.00     0.010 C 
ENDBRANCH  37  38
ENDBRANCH  34  37
ENDBRANCH   1  31
TORSDOF 7
ENDMDL
MODEL 6
REMARK VINA RESULT:      -7.6      4.222      6.425
REMARK  7 active torsions:
REMARK  status: ('A' for Active; 'I' for Inactive)
REMARK    1  A    between atoms: C_2  and  C_3 
REMARK    2  A    between atoms: C_3  and  C_4 
REMARK    3  A    between atoms: C_7  and  C_8 
REMARK    4  A    between atoms: C_14  and  C_15 
REMARK    5  A    between atoms: C_16  and  O_17 
REMARK    6  A    between atoms: O_17  and  C_18 
REMARK       I    between atoms: C_18  and  N_19 
REMARK    7  A    between atoms: C_33  and  N_34 
ROOT
HETATM    1  C   UNL     1      -8.089   1.725 -31.350  1.00  0.00     0.099 A 
HETATM    2  N   UNL     1      -9.399   1.404 -31.315  1.00  0.00    -0.172 NA
HETATM    3  N   UNL     1      -9.991   2.429 -30.675  1.00  0.00    -0.256 N 
HETATM    4  H   UNL     1     -10.991   2.391 -30.512  1.00  0.00     0.191 HD
HETATM    5  C   UNL     1      -9.116   3.400 -30.319  1.00  0.00     0.175 A 
HETATM    6  C   UNL     1      -7.881   3.005 -30.764  1.00  0.00     0.040 A 
HETATM    7  C   UNL     1      -6.703   3.889 -30.540  1.00  0.00     0.109 A 
HETATM    8  C   UNL     1      -7.087   5.079 -29.656  1.00  0.00     0.081 A 
HETATM    9  C   UNL     1      -6.012   5.888 -29.186  1.00  0.00     0.100 C 
HETATM   10  N   UNL     1      -5.124   6.525 -28.794  1.00  0.00    -0.191 NA
HETATM   11  C   UNL     1      -8.368   5.333 -29.271  1.00  0.00     0.140 A 
HETATM   12  O   UNL     1      -9.437   4.504 -29.657  1.00  0.00    -0.279 OA
ENDROOT
BRANCH   7  13
HETATM   13  C   UNL     1      -6.201   4.329 -31.911  1.00  0.00    -0.010 A 
HETATM   14  C   UNL     1      -4.828   4.559 -32.134  1.00  0.00     0.088 A 
HETATM   15  C   UNL     1      -4.362   5.046 -33.358  1.00  0.00     0.038 A 
HETATM   16  C   UNL     1      -5.261   5.288 -34.395  1.00  0.00     0.003 A 
HETATM   17  C   UNL     1      -6.622   5.070 -34.203  1.00  0.00     0.001 A 
HETATM   18  C   UNL     1      -7.089   4.608 -32.972  1.00  0.00     0.011 A 
BRANCH  14  19
HETATM   19  O   UNL     1      -3.961   4.365 -31.024  1.00  0.00    -0.261 OA
BRANCH  19  20
HETATM   20  C   UNL     1      -2.609   4.010 -31.087  1.00  0.00     0.368 C 
HETATM   21  N   UNL     1      -1.771   5.086 -30.835  1.00  0.00    -0.324 N 
HETATM   22  C   UNL     1      -2.257   6.464 -30.749  1.00  0.00     0.154 C 
HETATM   23  C   UNL     1      -0.355   4.953 -31.171  1.00  0.00     0.154 C 
HETATM   24  C   UNL     1      -1.305   7.337 -29.927  1.00  0.00     0.187 C 
HETATM   25  O   UNL     1       0.040   7.247 -30.418  1.00  0.00    -0.388 OA
HETATM   26  C   UNL     1       0.515   5.895 -30.339  1.00  0.00     0.187 C 
HETATM   27  O   UNL     1      -2.198   2.880 -31.325  1.00  0.00    -0.238 OA
ENDBRANCH  19  20
ENDBRANCH  14  19
ENDBRANCH   7  13
BRANCH  11  28
HETATM   28  N   UNL     1      -8.769   6.381 -28.474  1.00  0.00    -0.282 NA
HETATM   29  H   UNL     1      -8.413   7.296 -28.740  1.00  0.00     0.126 HD
HETATM   30  H   UNL     1      -9.775   6.379 -28.317  1.00  0.00     0.126 HD
ENDBRANCH  11  28
BRANCH   1  31
HETATM   31  C   UNL     1      -7.111   0.810 -31.938  1.00  0.00    -0.005 A 
HETATM   32  C   UNL     1      -6.280   0.046 -31.108  1.00  0.00     0.014 A 
HETATM   33  C   UNL     1      -5.329  -0.820 -31.653  1.00  0.00     0.008 A 
HETATM   34  C   UNL     1      -5.189  -0.939 -33.041  1.00  0.00    -0.058 A 
HETATM   35  C   UNL     1      -6.017  -0.174 -33.872  1.00  0.00     0.008 A 
HETATM   36  C   UNL     1      -6.964   0.698 -33.325  1.00  0.00     0.014 A 
BRANCH  34  37
HETATM   37  C   UNL     1      -4.159  -1.869 -33.635  1.00  0.00     0.042 C 
BRANCH  37  38
HETATM   38  C   UNL     1      -4.686  -3.293 -33.897  1.00  0.00    -0.019 C 
HETATM   39  C   UNL     1      -3.571  -4.339 -33.824  1.00  0.00     0.010 C 
HETATM   40  C   UNL     1      -5.358  -3.350 -35.270  1.00  0.00     0.010 C 
ENDBRANCH  37  38
ENDBRANCH  34  37
ENDBRANCH   1  31
TORSDOF 7
ENDMDL
MODEL 7
REMARK VINA RESULT:      -7.6      3.201      6.040
REMARK  7 active torsions:
REMARK  status: ('A' for Active; 'I' for Inactive)
REMARK    1  A    between atoms: C_2  and  C_3 
REMARK    2  A    between atoms: C_3  and  C_4 
REMARK    3  A    between atoms: C_7  and  C_8 
REMARK    4  A    between atoms: C_14  and  C_15 
REMARK    5  A    between atoms: C_16  and  O_17 
REMARK    6  A    between atoms: O_17  and  C_18 
REMARK       I    between atoms: C_18  and  N_19 
REMARK    7  A    between atoms: C_33  and  N_34 
ROOT
HETATM    1  C   UNL     1      -8.003   1.549 -31.528  1.00  0.00     0.099 A 
HETATM    2  N   UNL     1      -9.331   1.319 -31.595  1.00  0.00    -0.172 NA
HETATM    3  N   UNL     1      -9.896   2.342 -30.930  1.00  0.00    -0.256 N 
HETATM    4  H   UNL     1     -10.904   2.364 -30.832  1.00  0.00     0.191 HD
HETATM    5  C   UNL     1      -8.985   3.228 -30.460  1.00  0.00     0.175 A 
HETATM    6  C   UNL     1      -7.752   2.775 -30.852  1.00  0.00     0.040 A 
HETATM    7  C   UNL     1      -6.536   3.561 -30.500  1.00  0.00     0.109 A 
HETATM    8  C   UNL     1      -6.899   4.721 -29.567  1.00  0.00     0.081 A 
HETATM    9  C   UNL     1      -5.806   5.424 -28.982  1.00  0.00     0.100 C 
HETATM   10  N   UNL     1      -4.906   5.975 -28.496  1.00  0.00    -0.191 NA
HETATM   11  C   UNL     1      -8.183   5.039 -29.247  1.00  0.00     0.140 A 
HETATM   12  O   UNL     1      -9.276   4.311 -29.751  1.00  0.00    -0.279 OA
ENDROOT
BRANCH   7  13
HETATM   13  C   UNL     1      -5.916   4.045 -31.806  1.00  0.00    -0.010 A 
HETATM   14  C   UNL     1      -6.668   4.815 -32.717  1.00  0.00     0.088 A 
HETATM   15  C   UNL     1      -6.143   5.191 -33.955  1.00  0.00     0.038 A 
HETATM   16  C   UNL     1      -4.842   4.827 -34.298  1.00  0.00     0.003 A 
HETATM   17  C   UNL     1      -4.077   4.068 -33.417  1.00  0.00     0.001 A 
HETATM   18  C   UNL     1      -4.611   3.670 -32.191  1.00  0.00     0.011 A 
BRANCH  14  19
HETATM   19  O   UNL     1      -8.012   5.100 -32.353  1.00  0.00    -0.261 OA
BRANCH  19  20
HETATM   20  C   UNL     1      -8.883   5.960 -33.029  1.00  0.00     0.368 C 
HETATM   21  N   UNL     1      -9.749   5.276 -33.869  1.00  0.00    -0.324 N 
HETATM   22  C   UNL     1      -9.596   3.853 -34.175  1.00  0.00     0.154 C 
HETATM   23  C   UNL     1     -10.493   6.042 -34.867  1.00  0.00     0.154 C 
HETATM   24  C   UNL     1     -10.926   3.234 -34.615  1.00  0.00     0.187 C 
HETATM   25  O   UNL     1     -11.515   3.977 -35.692  1.00  0.00    -0.388 OA
HETATM   26  C   UNL     1     -11.780   5.328 -35.284  1.00  0.00     0.187 C 
HETATM   27  O   UNL     1      -8.900   7.179 -32.896  1.00  0.00    -0.238 OA
ENDBRANCH  19  20
ENDBRANCH  14  19
ENDBRANCH   7  13
BRANCH  11  28
HETATM   28  N   UNL     1      -8.567   6.065 -28.413  1.00  0.00    -0.282 NA
HETATM   29  H   UNL     1      -8.134   6.966 -28.598  1.00  0.00     0.126 HD
HETATM   30  H   UNL     1      -9.578   6.123 -28.320  1.00  0.00     0.126 HD
ENDBRANCH  11  28
BRANCH   1  31
HETATM   31  C   UNL     1      -7.051   0.604 -32.111  1.00  0.00    -0.005 A 
HETATM   32  C   UNL     1      -6.121  -0.048 -31.291  1.00  0.00     0.014 A 
HETATM   33  C   UNL     1      -5.192  -0.940 -31.833  1.00  0.00     0.008 A 
HETATM   34  C   UNL     1      -5.175  -1.197 -33.209  1.00  0.00    -0.058 A 
HETATM   35  C   UNL     1      -6.101  -0.543 -34.031  1.00  0.00     0.008 A 
HETATM   36  C   UNL     1      -7.025   0.354 -33.488  1.00  0.00     0.014 A 
BRANCH  34  37
HETATM   37  C   UNL     1      -4.169  -2.156 -33.800  1.00  0.00     0.042 C 
BRANCH  37  38
HETATM   38  C   UNL     1      -4.643  -3.621 -33.813  1.00  0.00    -0.019 C 
HETATM   39  C   UNL     1      -3.469  -4.603 -33.822  1.00  0.00     0.010 C 
HETATM   40  C   UNL     1      -5.530  -3.867 -35.036  1.00  0.00     0.010 C 
ENDBRANCH  37  38
ENDBRANCH  34  37
ENDBRANCH   1  31
TORSDOF 7
ENDMDL
MODEL 8
REMARK VINA RESULT:      -7.0      2.879      4.323
REMARK  7 active torsions:
REMARK  status: ('A' for Active; 'I' for Inactive)
REMARK    1  A    between atoms: C_2  and  C_3 
REMARK    2  A    between atoms: C_3  and  C_4 
REMARK    3  A    between atoms: C_7  and  C_8 
REMARK    4  A    between atoms: C_14  and  C_15 
REMARK    5  A    between atoms: C_16  and  O_17 
REMARK    6  A    between atoms: O_17  and  C_18 
REMARK       I    between atoms: C_18  and  N_19 
REMARK    7  A    between atoms: C_33  and  N_34 
ROOT
HETATM    1  C   UNL     1      -8.169   2.460 -33.962  1.00  0.00     0.099 A 
HETATM    2  N   UNL     1      -8.065   1.345 -34.714  1.00  0.00    -0.172 NA
HETATM    3  N   UNL     1      -9.304   0.822 -34.735  1.00  0.00    -0.256 N 
HETATM    4  H   UNL     1      -9.460  -0.047 -35.232  1.00  0.00     0.191 HD
HETATM    5  C   UNL     1     -10.199   1.568 -34.043  1.00  0.00     0.175 A 
HETATM    6  C   UNL     1      -9.518   2.654 -33.556  1.00  0.00     0.040 A 
HETATM    7  C   UNL     1     -10.250   3.683 -32.764  1.00  0.00     0.109 A 
HETATM    8  C   UNL     1     -11.686   3.227 -32.489  1.00  0.00     0.081 A 
HETATM    9  C   UNL     1     -12.430   4.014 -31.563  1.00  0.00     0.100 C 
HETATM   10  N   UNL     1     -13.017   4.653 -30.791  1.00  0.00    -0.191 NA
HETATM   11  C   UNL     1     -12.221   2.099 -33.032  1.00  0.00     0.140 A 
HETATM   12  O   UNL     1     -11.481   1.263 -33.887  1.00  0.00    -0.279 OA
ENDROOT
BRANCH   7  13
HETATM   13  C   UNL     1     -10.202   4.984 -33.559  1.00  0.00    -0.010 A 
HETATM   14  C   UNL     1      -9.925   6.208 -32.917  1.00  0.00     0.088 A 
HETATM   15  C   UNL     1      -9.964   7.418 -33.615  1.00  0.00     0.038 A 
HETATM   16  C   UNL     1     -10.254   7.424 -34.979  1.00  0.00     0.003 A 
HETATM   17  C   UNL     1     -10.530   6.230 -35.637  1.00  0.00     0.001 A 
HETATM   18  C   UNL     1     -10.516   5.024 -34.934  1.00  0.00     0.011 A 
BRANCH  14  19
HETATM   19  O   UNL     1      -9.706   6.157 -31.514  1.00  0.00    -0.261 OA
BRANCH  19  20
HETATM   20  C   UNL     1      -8.830   6.971 -30.787  1.00  0.00     0.368 C 
HETATM   21  N   UNL     1      -7.837   6.237 -30.153  1.00  0.00    -0.324 N 
HETATM   22  C   UNL     1      -7.861   4.776 -30.074  1.00  0.00     0.154 C 
HETATM   23  C   UNL     1      -7.048   6.897 -29.115  1.00  0.00     0.154 C 
HETATM   24  C   UNL     1      -6.454   4.209 -29.864  1.00  0.00     0.187 C 
HETATM   25  O   UNL     1      -5.809   4.820 -28.738  1.00  0.00    -0.388 OA
HETATM   26  C   UNL     1      -5.680   6.236 -28.939  1.00  0.00     0.187 C 
HETATM   27  O   UNL     1      -8.910   8.192 -30.718  1.00  0.00    -0.238 OA
ENDBRANCH  19  20
ENDBRANCH  14  19
ENDBRANCH   7  13
BRANCH  11  28
HETATM   28  N   UNL     1     -13.501   1.639 -32.816  1.00  0.00    -0.282 NA
HETATM   29  H   UNL     1     -14.207   1.992 -33.456  1.00  0.00     0.126 HD
HETATM   30  H   UNL     1     -13.530   0.628 -32.712  1.00  0.00     0.126 HD
ENDBRANCH  11  28
BRANCH   1  31
HETATM   31  C   UNL     1      -6.992   3.280 -33.675  1.00  0.00    -0.005 A 
HETATM   32  C   UNL     1      -5.822   2.679 -33.192  1.00  0.00     0.014 A 
HETATM   33  C   UNL     1      -4.694   3.449 -32.897  1.00  0.00     0.008 A 
HETATM   34  C   UNL     1      -4.715   4.837 -33.077  1.00  0.00    -0.058 A 
HETATM   35  C   UNL     1      -5.885   5.440 -33.556  1.00  0.00     0.008 A 
HETATM   36  C   UNL     1      -7.015   4.669 -33.845  1.00  0.00     0.014 A 
BRANCH  34  37
HETATM   37  C   UNL     1      -3.500   5.674 -32.753  1.00  0.00     0.042 C 
BRANCH  37  38
HETATM   38  C   UNL     1      -2.789   6.242 -33.996  1.00  0.00    -0.019 C 
HETATM   39  C   UNL     1      -2.043   5.156 -34.776  1.00  0.00     0.010 C 
HETATM   40  C   UNL     1      -1.810   7.340 -33.575  1.00  0.00     0.010 C 
ENDBRANCH  37  38
ENDBRANCH  34  37
ENDBRANCH   1  31
TORSDOF 7
ENDMDL
MODEL 9
REMARK VINA RESULT:      -7.0      4.001      6.078
REMARK  7 active torsions:
REMARK  status: ('A' for Active; 'I' for Inactive)
REMARK    1  A    between atoms: C_2  and  C_3 
REMARK    2  A    between atoms: C_3  and  C_4 
REMARK    3  A    between atoms: C_7  and  C_8 
REMARK    4  A    between atoms: C_14  and  C_15 
REMARK    5  A    between atoms: C_16  and  O_17 
REMARK    6  A    between atoms: O_17  and  C_18 
REMARK       I    between atoms: C_18  and  N_19 
REMARK    7  A    between atoms: C_33  and  N_34 
ROOT
HETATM    1  C   UNL     1      -8.083   1.915 -31.701  1.00  0.00     0.099 A 
HETATM    2  N   UNL     1      -9.403   1.780 -31.946  1.00  0.00    -0.172 NA
HETATM    3  N   UNL     1      -9.986   2.796 -31.285  1.00  0.00    -0.256 N 
HETATM    4  H   UNL     1     -10.995   2.880 -31.309  1.00  0.00     0.191 HD
HETATM    5  C   UNL     1      -9.091   3.586 -30.645  1.00  0.00     0.175 A 
HETATM    6  C   UNL     1      -7.847   3.076 -30.914  1.00  0.00     0.040 A 
HETATM    7  C   UNL     1      -6.641   3.755 -30.361  1.00  0.00     0.109 A 
HETATM    8  C   UNL     1      -7.049   4.876 -29.401  1.00  0.00     0.081 A 
HETATM    9  C   UNL     1      -6.000   5.466 -28.637  1.00  0.00     0.100 C 
HETATM   10  N   UNL     1      -5.138   5.923 -28.008  1.00  0.00    -0.191 NA
HETATM   11  C   UNL     1      -8.342   5.260 -29.219  1.00  0.00     0.140 A 
HETATM   12  O   UNL     1      -9.405   4.641 -29.903  1.00  0.00    -0.279 OA
ENDROOT
BRANCH   7  13
HETATM   13  C   UNL     1      -5.832   4.276 -31.544  1.00  0.00    -0.010 A 
HETATM   14  C   UNL     1      -6.323   5.330 -32.342  1.00  0.00     0.088 A 
HETATM   15  C   UNL     1      -5.637   5.760 -33.479  1.00  0.00     0.038 A 
HETATM   16  C   UNL     1      -4.428   5.160 -33.828  1.00  0.00     0.003 A 
HETATM   17  C   UNL     1      -3.920   4.119 -33.059  1.00  0.00     0.001 A 
HETATM   18  C   UNL     1      -4.619   3.672 -31.936  1.00  0.00     0.011 A 
BRANCH  14  19
HETATM   19  O   UNL     1      -7.593   5.860 -31.986  1.00  0.00    -0.261 OA
BRANCH  19  20
HETATM   20  C   UNL     1      -8.568   6.328 -32.874  1.00  0.00     0.368 C 
HETATM   21  N   UNL     1      -8.840   7.676 -32.692  1.00  0.00    -0.324 N 
HETATM   22  C   UNL     1      -8.330   8.440 -31.553  1.00  0.00     0.154 C 
HETATM   23  C   UNL     1     -10.041   8.229 -33.315  1.00  0.00     0.154 C 
HETATM   24  C   UNL     1      -8.271   9.937 -31.870  1.00  0.00     0.187 C 
HETATM   25  O   UNL     1      -9.536  10.418 -32.345  1.00  0.00    -0.388 OA
HETATM   26  C   UNL     1      -9.914   9.735 -33.550  1.00  0.00     0.187 C 
HETATM   27  O   UNL     1      -9.120   5.641 -33.726  1.00  0.00    -0.238 OA
ENDBRANCH  19  20
ENDBRANCH  14  19
ENDBRANCH   7  13
BRANCH  11  28
HETATM   28  N   UNL     1      -8.768   6.255 -28.368  1.00  0.00    -0.282 NA
HETATM   29  H   UNL     1      -8.262   7.135 -28.435  1.00  0.00     0.126 HD
HETATM   30  H   UNL     1      -9.777   6.376 -28.395  1.00  0.00     0.126 HD
ENDBRANCH  11  28
BRANCH   1  31
HETATM   31  C   UNL     1      -7.122   0.946 -32.228  1.00  0.00    -0.005 A 
HETATM   32  C   UNL     1      -6.421   0.108 -31.351  1.00  0.00     0.014 A 
HETATM   33  C   UNL     1      -5.487  -0.811 -31.835  1.00  0.00     0.008 A 
HETATM   34  C   UNL     1      -5.234  -0.909 -33.208  1.00  0.00    -0.058 A 
HETATM   35  C   UNL     1      -5.930  -0.069 -34.087  1.00  0.00     0.008 A 
HETATM   36  C   UNL     1      -6.860   0.855 -33.600  1.00  0.00     0.014 A 
BRANCH  34  37
HETATM   37  C   UNL     1      -4.221  -1.897 -33.736  1.00  0.00     0.042 C 
BRANCH  37  38
HETATM   38  C   UNL     1      -4.789  -3.312 -33.952  1.00  0.00    -0.019 C 
HETATM   39  C   UNL     1      -3.690  -4.378 -33.943  1.00  0.00     0.010 C 
HETATM   40  C   UNL     1      -5.549  -3.367 -35.279  1.00  0.00     0.010 C 
ENDBRANCH  37  38
ENDBRANCH  34  37
ENDBRANCH   1  31
TORSDOF 7
ENDMDL
MODEL 10
REMARK VINA RESULT:      -6.8      4.822      7.614
REMARK  7 active torsions:
REMARK  status: ('A' for Active; 'I' for Inactive)
REMARK    1  A    between atoms: C_2  and  C_3 
REMARK    2  A    between atoms: C_3  and  C_4 
REMARK    3  A    between atoms: C_7  and  C_8 
REMARK    4  A    between atoms: C_14  and  C_15 
REMARK    5  A    between atoms: C_16  and  O_17 
REMARK    6  A    between atoms: O_17  and  C_18 
REMARK       I    between atoms: C_18  and  N_19 
REMARK    7  A    between atoms: C_33  and  N_34 
ROOT
HETATM    1  C   UNL     1      -6.257   4.920 -32.636  1.00  0.00     0.099 A 
HETATM    2  N   UNL     1      -6.810   4.279 -33.686  1.00  0.00    -0.172 NA
HETATM    3  N   UNL     1      -8.134   4.302 -33.450  1.00  0.00    -0.256 N 
HETATM    4  H   UNL     1      -8.757   3.849 -34.109  1.00  0.00     0.191 HD
HETATM    5  C   UNL     1      -8.450   4.950 -32.303  1.00  0.00     0.175 A 
HETATM    6  C   UNL     1      -7.273   5.397 -31.762  1.00  0.00     0.040 A 
HETATM    7  C   UNL     1      -7.299   6.177 -30.492  1.00  0.00     0.109 A 
HETATM    8  C   UNL     1      -8.713   6.201 -29.906  1.00  0.00     0.081 A 
HETATM    9  C   UNL     1      -8.841   6.728 -28.589  1.00  0.00     0.100 C 
HETATM   10  N   UNL     1      -8.926   7.143 -27.507  1.00  0.00    -0.191 NA
HETATM   11  C   UNL     1      -9.794   5.691 -30.559  1.00  0.00     0.140 A 
HETATM   12  O   UNL     1      -9.681   5.094 -31.828  1.00  0.00    -0.279 OA
ENDROOT
BRANCH   7  13
HETATM   13  C   UNL     1      -6.784   7.577 -30.812  1.00  0.00    -0.010 A 
HETATM   14  C   UNL     1      -5.734   8.145 -30.063  1.00  0.00     0.088 A 
HETATM   15  C   UNL     1      -5.311   9.458 -30.286  1.00  0.00     0.038 A 
HETATM   16  C   UNL     1      -5.915  10.222 -31.284  1.00  0.00     0.003 A 
HETATM   17  C   UNL     1      -6.953   9.685 -32.039  1.00  0.00     0.001 A 
HETATM   18  C   UNL     1      -7.392   8.383 -31.798  1.00  0.00     0.011 A 
BRANCH  14  19
HETATM   19  O   UNL     1      -5.201   7.353 -29.011  1.00  0.00    -0.261 OA
BRANCH  19  20
HETATM   20  C   UNL     1      -3.850   7.249 -28.662  1.00  0.00     0.368 C 
HETATM   21  N   UNL     1      -3.600   7.723 -27.382  1.00  0.00    -0.324 N 
HETATM   22  C   UNL     1      -4.598   8.454 -26.600  1.00  0.00     0.154 C 
HETATM   23  C   UNL     1      -2.212   7.973 -26.997  1.00  0.00     0.154 C 
HETATM   24  C   UNL     1      -4.308   8.355 -25.100  1.00  0.00     0.187 C 
HETATM   25  O   UNL     1      -2.963   8.752 -24.802  1.00  0.00    -0.388 OA
HETATM   26  C   UNL     1      -2.025   7.902 -25.481  1.00  0.00     0.187 C 
HETATM   27  O   UNL     1      -2.978   6.784 -29.387  1.00  0.00    -0.238 OA
ENDBRANCH  19  20
ENDBRANCH  14  19
ENDBRANCH   7  13
BRANCH  11  28
HETATM   28  N   UNL     1     -11.084   5.680 -30.080  1.00  0.00    -0.282 NA
HETATM   29  H   UNL     1     -11.177   5.571 -29.073  1.00  0.00     0.126 HD
HETATM   30  H   UNL     1     -11.635   6.453 -30.446  1.00  0.00     0.126 HD
ENDBRANCH  11  28
BRANCH   1  31
HETATM   31  C   UNL     1      -4.805   5.053 -32.522  1.00  0.00    -0.005 A 
HETATM   32  C   UNL     1      -4.163   6.185 -33.040  1.00  0.00     0.014 A 
HETATM   33  C   UNL     1      -2.774   6.320 -32.956  1.00  0.00     0.008 A 
HETATM   34  C   UNL     1      -2.000   5.323 -32.352  1.00  0.00    -0.058 A 
HETATM   35  C   UNL     1      -2.639   4.188 -31.836  1.00  0.00     0.008 A 
HETATM   36  C   UNL     1      -4.028   4.052 -31.928  1.00  0.00     0.014 A 
BRANCH  34  37
HETATM   37  C   UNL     1      -0.499   5.461 -32.263  1.00  0.00     0.042 C 
BRANCH  37  38
HETATM   38  C   UNL     1       0.029   5.580 -30.821  1.00  0.00    -0.019 C 
HETATM   39  C   UNL     1       0.367   7.027 -30.452  1.00  0.00     0.010 C 
HETATM   40  C   UNL     1       1.270   4.701 -30.651  1.00  0.00     0.010 C 
ENDBRANCH  37  38
ENDBRANCH  34  37
ENDBRANCH   1  31
TORSDOF 7
ENDMDL
