MODEL 1
REMARK VINA RESULT:      -9.2      0.000      0.000
REMARK  7 active torsions:
REMARK  status: ('A' for Active; 'I' for Inactive)
REMARK    1  A    between atoms: C_3  and  C_4 
REMARK       I    between atoms: C_4  and  N_5 
REMARK    2  A    between atoms: N_5  and  C_6 
REMARK    3  A    between atoms: C_6  and  C_7 
REMARK    4  A    between atoms: C_7  and  O_8 
REMARK    5  A    between atoms: C_7  and  C_9 
REMARK    6  A    between atoms: C_18  and  N_19 
REMARK       I    between atoms: N_19  and  C_20 
REMARK    7  A    between atoms: C_20  and  C_21 
ROOT
HETATM    1  C   UNL     1      -7.209  -0.056 -35.264  1.00  0.00     0.050 C 
HETATM    2  C   UNL     1      -7.963   0.536 -34.116  1.00  0.00    -0.037 A 
HETATM    3  C   UNL     1      -7.391   1.031 -32.947  1.00  0.00     0.080 A 
HETATM    4  S   UNL     1      -8.590   1.610 -31.867  1.00  0.00    -0.066 SA
HETATM    5  C   UNL     1      -9.850   1.276 -32.942  1.00  0.00     0.078 A 
HETATM    6  C   UNL     1      -9.389   0.693 -34.100  1.00  0.00     0.045 A 
ENDROOT
BRANCH   3   7
HETATM    7  C   UNL     1      -5.971   1.112 -32.613  1.00  0.00     0.259 C 
HETATM    8  N   UNL     1      -5.449   0.066 -31.879  1.00  0.00    -0.354 N 
HETATM    9  H   UNL     1      -6.108  -0.644 -31.577  1.00  0.00     0.162 HD
HETATM   10  O   UNL     1      -5.254   2.058 -32.934  1.00  0.00    -0.267 OA
BRANCH   8  11
HETATM   11  C   UNL     1      -4.163   0.146 -31.195  1.00  0.00     0.159 C 
BRANCH  11  12
HETATM   12  C   UNL     1      -2.973  -0.473 -31.969  1.00  0.00     0.169 C 
BRANCH  12  13
HETATM   13  O   UNL     1      -1.866  -0.764 -31.115  1.00  0.00    -0.389 OA
HETATM   14  H   UNL     1      -1.403  -1.541 -31.496  1.00  0.00     0.210 HD
ENDBRANCH  12  13
BRANCH  12  15
HETATM   15  C   UNL     1      -3.398  -1.776 -32.622  1.00  0.00    -0.028 A 
HETATM   16  C   UNL     1      -3.054  -3.007 -32.041  1.00  0.00     0.013 A 
HETATM   17  C   UNL     1      -3.416  -4.206 -32.660  1.00  0.00     0.043 A 
HETATM   18  C   UNL     1      -4.119  -4.177 -33.860  1.00  0.00     0.116 A 
HETATM   19  F   UNL     1      -4.462  -5.329 -34.452  1.00  0.00    -0.206 F 
HETATM   20  C   UNL     1      -4.468  -2.972 -34.454  1.00  0.00     0.043 A 
HETATM   21  C   UNL     1      -4.108  -1.774 -33.837  1.00  0.00     0.013 A 
ENDBRANCH  12  15
ENDBRANCH  11  12
ENDBRANCH   8  11
ENDBRANCH   3   7
BRANCH   5  22
HETATM   22  N   UNL     1     -11.168   1.603 -32.680  1.00  0.00    -0.317 N 
HETATM   23  C   UNL     1     -11.922   2.585 -33.292  1.00  0.00     0.258 C 
HETATM   24  O   UNL     1     -11.517   3.401 -34.115  1.00  0.00    -0.267 OA
HETATM   25  H   UNL     1     -11.607   1.060 -31.947  1.00  0.00     0.169 HD
BRANCH  23  26
HETATM   26  C   UNL     1     -13.382   2.619 -32.942  1.00  0.00     0.054 A 
HETATM   27  C   UNL     1     -14.330   1.633 -33.254  1.00  0.00     0.049 A 
HETATM   28 CL   UNL     1     -13.952   0.140 -34.044  1.00  0.00    -0.083 Cl
HETATM   29  C   UNL     1     -15.676   1.813 -32.902  1.00  0.00     0.025 A 
HETATM   30  C   UNL     1     -16.088   2.961 -32.227  1.00  0.00     0.002 A 
HETATM   31  C   UNL     1     -15.156   3.936 -31.894  1.00  0.00     0.001 A 
HETATM   32  C   UNL     1     -13.816   3.765 -32.247  1.00  0.00     0.019 A 
ENDBRANCH  23  26
ENDBRANCH   5  22
TORSDOF 7
ENDMDL
MODEL 2
REMARK VINA RESULT:      -9.1      6.684     10.186
REMARK  7 active torsions:
REMARK  status: ('A' for Active; 'I' for Inactive)
REMARK    1  A    between atoms: C_3  and  C_4 
REMARK       I    between atoms: C_4  and  N_5 
REMARK    2  A    between atoms: N_5  and  C_6 
REMARK    3  A    between atoms: C_6  and  C_7 
REMARK    4  A    between atoms: C_7  and  O_8 
REMARK    5  A    between atoms: C_7  and  C_9 
REMARK    6  A    between atoms: C_18  and  N_19 
REMARK       I    between atoms: N_19  and  C_20 
REMARK    7  A    between atoms: C_20  and  C_21 
ROOT
HETATM    1  C   UNL     1      -1.963   4.848 -34.571  1.00  0.00     0.050 C 
HETATM    2  C   UNL     1      -2.301   5.081 -33.133  1.00  0.00    -0.037 A 
HETATM    3  C   UNL     1      -3.433   4.597 -32.484  1.00  0.00     0.080 A 
HETATM    4  S   UNL     1      -3.465   5.094 -30.843  1.00  0.00    -0.066 SA
HETATM    5  C   UNL     1      -1.978   5.888 -30.958  1.00  0.00     0.078 A 
HETATM    6  C   UNL     1      -1.464   5.822 -32.232  1.00  0.00     0.045 A 
ENDROOT
BRANCH   3   7
HETATM    7  C   UNL     1      -4.485   3.750 -33.037  1.00  0.00     0.259 C 
HETATM    8  N   UNL     1      -4.680   2.528 -32.424  1.00  0.00    -0.354 N 
HETATM    9  H   UNL     1      -4.035   2.291 -31.678  1.00  0.00     0.162 HD
HETATM   10  O   UNL     1      -5.167   4.066 -34.011  1.00  0.00    -0.267 OA
BRANCH   8  11
HETATM   11  C   UNL     1      -5.446   1.449 -33.040  1.00  0.00     0.159 C 
BRANCH  11  12
HETATM   12  C   UNL     1      -5.419   0.108 -32.269  1.00  0.00     0.169 C 
BRANCH  12  13
HETATM   13  O   UNL     1      -6.494  -0.001 -31.335  1.00  0.00    -0.389 OA
HETATM   14  H   UNL     1      -6.106   0.072 -30.437  1.00  0.00     0.210 HD
ENDBRANCH  12  13
BRANCH  12  15
HETATM   15  C   UNL     1      -5.542  -1.054 -33.240  1.00  0.00    -0.028 A 
HETATM   16  C   UNL     1      -6.798  -1.430 -33.742  1.00  0.00     0.013 A 
HETATM   17  C   UNL     1      -6.915  -2.520 -34.608  1.00  0.00     0.043 A 
HETATM   18  C   UNL     1      -5.780  -3.236 -34.972  1.00  0.00     0.116 A 
HETATM   19  F   UNL     1      -5.896  -4.282 -35.801  1.00  0.00    -0.206 F 
HETATM   20  C   UNL     1      -4.528  -2.884 -34.486  1.00  0.00     0.043 A 
HETATM   21  C   UNL     1      -4.409  -1.796 -33.621  1.00  0.00     0.013 A 
ENDBRANCH  12  15
ENDBRANCH  11  12
ENDBRANCH   8  11
ENDBRANCH   3   7
BRANCH   5  22
HETATM   22  N   UNL     1      -1.358   6.482 -29.875  1.00  0.00    -0.317 N 
HETATM   23  C   UNL     1      -0.241   6.029 -29.200  1.00  0.00     0.258 C 
HETATM   24  O   UNL     1       0.341   4.966 -29.395  1.00  0.00    -0.267 OA
HETATM   25  H   UNL     1      -1.794   7.335 -29.545  1.00  0.00     0.169 HD
BRANCH  23  26
HETATM   26  C   UNL     1       0.334   6.954 -28.166  1.00  0.00     0.054 A 
HETATM   27  C   UNL     1       0.110   6.890 -26.783  1.00  0.00     0.049 A 
HETATM   28 CL   UNL     1      -0.824   5.655 -26.009  1.00  0.00    -0.083 Cl
HETATM   29  C   UNL     1       0.679   7.849 -25.931  1.00  0.00     0.025 A 
HETATM   30  C   UNL     1       1.483   8.867 -26.442  1.00  0.00     0.002 A 
HETATM   31  C   UNL     1       1.729   8.930 -27.808  1.00  0.00     0.001 A 
HETATM   32  C   UNL     1       1.161   7.982 -28.661  1.00  0.00     0.019 A 
ENDBRANCH  23  26
ENDBRANCH   5  22
TORSDOF 7
ENDMDL
MODEL 3
REMARK VINA RESULT:      -8.8      5.501      8.337
REMARK  7 active torsions:
REMARK  status: ('A' for Active; 'I' for Inactive)
REMARK    1  A    between atoms: C_3  and  C_4 
REMARK       I    between atoms: C_4  and  N_5 
REMARK    2  A    between atoms: N_5  and  C_6 
REMARK    3  A    between atoms: C_6  and  C_7 
REMARK    4  A    between atoms: C_7  and  O_8 
REMARK    5  A    between atoms: C_7  and  C_9 
REMARK    6  A    between atoms: C_18  and  N_19 
REMARK       I    between atoms: N_19  and  C_20 
REMARK    7  A    between atoms: C_20  and  C_21 
ROOT
HETATM    1  C   UNL     1      -8.361   4.919 -29.830  1.00  0.00     0.050 C 
HETATM    2  C   UNL     1      -7.237   4.103 -30.384  1.00  0.00    -0.037 A 
HETATM    3  C   UNL     1      -5.889   4.446 -30.328  1.00  0.00     0.080 A 
HETATM    4  S   UNL     1      -4.914   3.258 -31.089  1.00  0.00    -0.066 SA
HETATM    5  C   UNL     1      -6.237   2.266 -31.439  1.00  0.00     0.078 A 
HETATM    6  C   UNL     1      -7.421   2.832 -31.026  1.00  0.00     0.045 A 
ENDROOT
BRANCH   3   7
HETATM    7  C   UNL     1      -5.293   5.623 -29.700  1.00  0.00     0.259 C 
HETATM    8  N   UNL     1      -4.846   6.615 -30.550  1.00  0.00    -0.354 N 
HETATM    9  H   UNL     1      -4.910   6.419 -31.543  1.00  0.00     0.162 HD
HETATM   10  O   UNL     1      -5.161   5.747 -28.484  1.00  0.00    -0.267 OA
BRANCH   8  11
HETATM   11  C   UNL     1      -3.949   7.681 -30.115  1.00  0.00     0.159 C 
BRANCH  11  12
HETATM   12  C   UNL     1      -2.444   7.319 -30.142  1.00  0.00     0.169 C 
BRANCH  12  13
HETATM   13  O   UNL     1      -2.111   6.316 -29.182  1.00  0.00    -0.389 OA
HETATM   14  H   UNL     1      -1.606   5.619 -29.653  1.00  0.00     0.210 HD
ENDBRANCH  12  13
BRANCH  12  15
HETATM   15  C   UNL     1      -2.062   6.782 -31.510  1.00  0.00    -0.028 A 
HETATM   16  C   UNL     1      -2.018   7.637 -32.623  1.00  0.00     0.013 A 
HETATM   17  C   UNL     1      -1.699   7.135 -33.887  1.00  0.00     0.043 A 
HETATM   18  C   UNL     1      -1.427   5.780 -34.042  1.00  0.00     0.116 A 
HETATM   19  F   UNL     1      -1.124   5.302 -35.257  1.00  0.00    -0.206 F 
HETATM   20  C   UNL     1      -1.465   4.915 -32.957  1.00  0.00     0.043 A 
HETATM   21  C   UNL     1      -1.784   5.414 -31.694  1.00  0.00     0.013 A 
ENDBRANCH  12  15
ENDBRANCH  11  12
ENDBRANCH   8  11
ENDBRANCH   3   7
BRANCH   5  22
HETATM   22  N   UNL     1      -6.108   1.022 -32.028  1.00  0.00    -0.317 N 
HETATM   23  C   UNL     1      -6.244   0.715 -33.368  1.00  0.00     0.258 C 
HETATM   24  O   UNL     1      -6.594   1.487 -34.256  1.00  0.00    -0.267 OA
HETATM   25  H   UNL     1      -5.906   0.263 -31.389  1.00  0.00     0.169 HD
BRANCH  23  26
HETATM   26  C   UNL     1      -5.883  -0.686 -33.770  1.00  0.00     0.054 A 
HETATM   27  C   UNL     1      -4.608  -1.267 -33.690  1.00  0.00     0.049 A 
HETATM   28 CL   UNL     1      -3.221  -0.474 -33.023  1.00  0.00    -0.083 Cl
HETATM   29  C   UNL     1      -4.401  -2.579 -34.142  1.00  0.00     0.025 A 
HETATM   30  C   UNL     1      -5.457  -3.327 -34.663  1.00  0.00     0.002 A 
HETATM   31  C   UNL     1      -6.729  -2.771 -34.729  1.00  0.00     0.001 A 
HETATM   32  C   UNL     1      -6.939  -1.464 -34.286  1.00  0.00     0.019 A 
ENDBRANCH  23  26
ENDBRANCH   5  22
TORSDOF 7
ENDMDL
MODEL 4
REMARK VINA RESULT:      -8.8      6.990      9.938
REMARK  7 active torsions:
REMARK  status: ('A' for Active; 'I' for Inactive)
REMARK    1  A    between atoms: C_3  and  C_4 
REMARK       I    between atoms: C_4  and  N_5 
REMARK    2  A    between atoms: N_5  and  C_6 
REMARK    3  A    between atoms: C_6  and  C_7 
REMARK    4  A    between atoms: C_7  and  O_8 
REMARK    5  A    between atoms: C_7  and  C_9 
REMARK    6  A    between atoms: C_18  and  N_19 
REMARK       I    between atoms: N_19  and  C_20 
REMARK    7  A    between atoms: C_20  and  C_21 
ROOT
HETATM    1  C   UNL     1      -5.480   4.882 -29.763  1.00  0.00     0.050 C 
HETATM    2  C   UNL     1      -4.827   4.091 -30.852  1.00  0.00    -0.037 A 
HETATM    3  C   UNL     1      -3.616   4.407 -31.461  1.00  0.00     0.080 A 
HETATM    4  S   UNL     1      -3.215   3.263 -32.673  1.00  0.00    -0.066 SA
HETATM    5  C   UNL     1      -4.585   2.321 -32.367  1.00  0.00     0.078 A 
HETATM    6  C   UNL     1      -5.373   2.875 -31.385  1.00  0.00     0.045 A 
ENDROOT
BRANCH   3   7
HETATM    7  C   UNL     1      -2.727   5.523 -31.152  1.00  0.00     0.259 C 
HETATM    8  N   UNL     1      -1.524   5.206 -30.554  1.00  0.00    -0.354 N 
HETATM    9  H   UNL     1      -1.382   4.230 -30.319  1.00  0.00     0.162 HD
HETATM   10  O   UNL     1      -3.011   6.698 -31.380  1.00  0.00    -0.267 OA
BRANCH   8  11
HETATM   11  C   UNL     1      -0.684   6.201 -29.895  1.00  0.00     0.159 C 
BRANCH  11  12
HETATM   12  C   UNL     1       0.043   5.702 -28.623  1.00  0.00     0.169 C 
BRANCH  12  13
HETATM   13  O   UNL     1       1.142   4.843 -28.930  1.00  0.00    -0.389 OA
HETATM   14  H   UNL     1       1.817   4.973 -28.230  1.00  0.00     0.210 HD
ENDBRANCH  12  13
BRANCH  12  15
HETATM   15  C   UNL     1       0.595   6.881 -27.841  1.00  0.00    -0.028 A 
HETATM   16  C   UNL     1       1.125   7.994 -28.513  1.00  0.00     0.013 A 
HETATM   17  C   UNL     1       1.662   9.064 -27.793  1.00  0.00     0.043 A 
HETATM   18  C   UNL     1       1.674   9.023 -26.403  1.00  0.00     0.116 A 
HETATM   19  F   UNL     1       2.193  10.049 -25.716  1.00  0.00    -0.206 F 
HETATM   20  C   UNL     1       1.157   7.932 -25.717  1.00  0.00     0.043 A 
HETATM   21  C   UNL     1       0.620   6.863 -26.434  1.00  0.00     0.013 A 
ENDBRANCH  12  15
ENDBRANCH  11  12
ENDBRANCH   8  11
ENDBRANCH   3   7
BRANCH   5  22
HETATM   22  N   UNL     1      -4.832   1.123 -33.010  1.00  0.00    -0.317 N 
HETATM   23  C   UNL     1      -4.818  -0.141 -32.454  1.00  0.00     0.258 C 
HETATM   24  O   UNL     1      -4.491  -0.424 -31.305  1.00  0.00    -0.267 OA
HETATM   25  H   UNL     1      -5.030   1.200 -34.000  1.00  0.00     0.169 HD
BRANCH  23  26
HETATM   26  C   UNL     1      -5.292  -1.262 -33.335  1.00  0.00     0.054 A 
HETATM   27  C   UNL     1      -6.616  -1.495 -33.736  1.00  0.00     0.049 A 
HETATM   28 CL   UNL     1      -7.946  -0.461 -33.339  1.00  0.00    -0.083 Cl
HETATM   29  C   UNL     1      -6.926  -2.610 -34.530  1.00  0.00     0.025 A 
HETATM   30  C   UNL     1      -5.926  -3.490 -34.943  1.00  0.00     0.002 A 
HETATM   31  C   UNL     1      -4.608  -3.259 -34.570  1.00  0.00     0.001 A 
HETATM   32  C   UNL     1      -4.294  -2.155 -33.775  1.00  0.00     0.019 A 
ENDBRANCH  23  26
ENDBRANCH   5  22
TORSDOF 7
ENDMDL
MODEL 5
REMARK VINA RESULT:      -8.7      5.826      8.702
REMARK  7 active torsions:
REMARK  status: ('A' for Active; 'I' for Inactive)
REMARK    1  A    between atoms: C_3  and  C_4 
REMARK       I    between atoms: C_4  and  N_5 
REMARK    2  A    between atoms: N_5  and  C_6 
REMARK    3  A    between atoms: C_6  and  C_7 
REMARK    4  A    between atoms: C_7  and  O_8 
REMARK    5  A    between atoms: C_7  and  C_9 
REMARK    6  A    between atoms: C_18  and  N_19 
REMARK       I    between atoms: N_19  and  C_20 
REMARK    7  A    between atoms: C_20  and  C_21 
ROOT
HETATM    1  C   UNL     1      -7.644   4.790 -29.263  1.00  0.00     0.050 C 
HETATM    2  C   UNL     1      -6.719   4.069 -30.191  1.00  0.00    -0.037 A 
HETATM    3  C   UNL     1      -5.511   4.567 -30.670  1.00  0.00     0.080 A 
HETATM    4  S   UNL     1      -4.752   3.445 -31.722  1.00  0.00    -0.066 SA
HETATM    5  C   UNL     1      -5.963   2.286 -31.509  1.00  0.00     0.078 A 
HETATM    6  C   UNL     1      -6.964   2.743 -30.682  1.00  0.00     0.045 A 
ENDROOT
BRANCH   3   7
HETATM    7  C   UNL     1      -4.883   5.845 -30.350  1.00  0.00     0.259 C 
HETATM    8  N   UNL     1      -4.627   6.690 -31.412  1.00  0.00    -0.354 N 
HETATM    9  H   UNL     1      -4.839   6.329 -32.335  1.00  0.00     0.162 HD
HETATM   10  O   UNL     1      -4.564   6.176 -29.209  1.00  0.00    -0.267 OA
BRANCH   8  11
HETATM   11  C   UNL     1      -3.727   7.834 -31.311  1.00  0.00     0.159 C 
BRANCH  11  12
HETATM   12  C   UNL     1      -2.383   7.676 -32.062  1.00  0.00     0.169 C 
BRANCH  12  13
HETATM   13  O   UNL     1      -1.787   8.935 -32.375  1.00  0.00    -0.389 OA
HETATM   14  H   UNL     1      -1.992   9.545 -31.635  1.00  0.00     0.210 HD
ENDBRANCH  12  13
BRANCH  12  15
HETATM   15  C   UNL     1      -1.394   6.906 -31.204  1.00  0.00    -0.028 A 
HETATM   16  C   UNL     1      -1.252   7.208 -29.840  1.00  0.00     0.013 A 
HETATM   17  C   UNL     1      -0.318   6.522 -29.059  1.00  0.00     0.043 A 
HETATM   18  C   UNL     1       0.475   5.538 -29.639  1.00  0.00     0.116 A 
HETATM   19  F   UNL     1       1.372   4.884 -28.887  1.00  0.00    -0.206 F 
HETATM   20  C   UNL     1       0.353   5.223 -30.986  1.00  0.00     0.043 A 
HETATM   21  C   UNL     1      -0.579   5.907 -31.767  1.00  0.00     0.013 A 
ENDBRANCH  12  15
ENDBRANCH  11  12
ENDBRANCH   8  11
ENDBRANCH   3   7
BRANCH   5  22
HETATM   22  N   UNL     1      -5.906   1.026 -32.073  1.00  0.00    -0.317 N 
HETATM   23  C   UNL     1      -6.175   0.685 -33.385  1.00  0.00     0.258 C 
HETATM   24  O   UNL     1      -6.602   1.438 -34.255  1.00  0.00    -0.267 OA
HETATM   25  H   UNL     1      -5.650   0.281 -31.436  1.00  0.00     0.169 HD
BRANCH  23  26
HETATM   26  C   UNL     1      -5.869  -0.730 -33.782  1.00  0.00     0.054 A 
HETATM   27  C   UNL     1      -4.606  -1.343 -33.756  1.00  0.00     0.049 A 
HETATM   28 CL   UNL     1      -3.169  -0.575 -33.174  1.00  0.00    -0.083 Cl
HETATM   29  C   UNL     1      -4.455  -2.667 -34.196  1.00  0.00     0.025 A 
HETATM   30  C   UNL     1      -5.554  -3.395 -34.650  1.00  0.00     0.002 A 
HETATM   31  C   UNL     1      -6.813  -2.807 -34.662  1.00  0.00     0.001 A 
HETATM   32  C   UNL     1      -6.969  -1.489 -34.230  1.00  0.00     0.019 A 
ENDBRANCH  23  26
ENDBRANCH   5  22
TORSDOF 7
ENDMDL
MODEL 6
REMARK VINA RESULT:      -8.6      3.710      9.243
REMARK  7 active torsions:
REMARK  status: ('A' for Active; 'I' for Inactive)
REMARK    1  A    between atoms: C_3  and  C_4 
REMARK       I    between atoms: C_4  and  N_5 
REMARK    2  A    between atoms: N_5  and  C_6 
REMARK    3  A    between atoms: C_6  and  C_7 
REMARK    4  A    between atoms: C_7  and  O_8 
REMARK    5  A    between atoms: C_7  and  C_9 
REMARK    6  A    between atoms: C_18  and  N_19 
REMARK       I    between atoms: N_19  and  C_20 
REMARK    7  A    between atoms: C_20  and  C_21 
ROOT
HETATM    1  C   UNL     1      -7.085   3.793 -29.719  1.00  0.00     0.050 C 
HETATM    2  C   UNL     1      -7.663   2.745 -30.615  1.00  0.00    -0.037 A 
HETATM    3  C   UNL     1      -8.932   2.784 -31.185  1.00  0.00     0.080 A 
HETATM    4  S   UNL     1      -9.227   1.388 -32.137  1.00  0.00    -0.066 SA
HETATM    5  C   UNL     1      -7.683   0.760 -31.859  1.00  0.00     0.078 A 
HETATM    6  C   UNL     1      -6.949   1.567 -31.021  1.00  0.00     0.045 A 
ENDROOT
BRANCH   3   7
HETATM    7  C   UNL     1      -9.931   3.843 -31.068  1.00  0.00     0.259 C 
HETATM    8  N   UNL     1     -11.158   3.479 -30.551  1.00  0.00    -0.354 N 
HETATM    9  H   UNL     1     -11.288   2.493 -30.352  1.00  0.00     0.162 HD
HETATM   10  O   UNL     1      -9.731   5.004 -31.422  1.00  0.00    -0.267 OA
BRANCH   8  11
HETATM   11  C   UNL     1     -12.345   4.319 -30.671  1.00  0.00     0.159 C 
BRANCH  11  12
HETATM   12  C   UNL     1     -13.530   3.669 -31.426  1.00  0.00     0.169 C 
BRANCH  12  13
HETATM   13  O   UNL     1     -14.712   4.468 -31.367  1.00  0.00    -0.389 OA
HETATM   14  H   UNL     1     -14.551   5.267 -31.912  1.00  0.00     0.210 HD
ENDBRANCH  12  13
BRANCH  12  15
HETATM   15  C   UNL     1     -13.177   3.490 -32.893  1.00  0.00    -0.028 A 
HETATM   16  C   UNL     1     -12.983   4.609 -33.719  1.00  0.00     0.013 A 
HETATM   17  C   UNL     1     -12.692   4.443 -35.075  1.00  0.00     0.043 A 
HETATM   18  C   UNL     1     -12.597   3.162 -35.608  1.00  0.00     0.116 A 
HETATM   19  F   UNL     1     -12.321   3.007 -36.910  1.00  0.00    -0.206 F 
HETATM   20  C   UNL     1     -12.787   2.041 -34.811  1.00  0.00     0.043 A 
HETATM   21  C   UNL     1     -13.078   2.204 -33.457  1.00  0.00     0.013 A 
ENDBRANCH  12  15
ENDBRANCH  11  12
ENDBRANCH   8  11
ENDBRANCH   3   7
BRANCH   5  22
HETATM   22  N   UNL     1      -7.227  -0.403 -32.451  1.00  0.00    -0.317 N 
HETATM   23  C   UNL     1      -6.624  -0.529 -33.688  1.00  0.00     0.258 C 
HETATM   24  O   UNL     1      -6.472   0.366 -34.514  1.00  0.00    -0.267 OA
HETATM   25  H   UNL     1      -7.373  -1.246 -31.910  1.00  0.00     0.169 HD
BRANCH  23  26
HETATM   26  C   UNL     1      -6.066  -1.883 -34.021  1.00  0.00     0.054 A 
HETATM   27  C   UNL     1      -4.730  -2.287 -33.871  1.00  0.00     0.049 A 
HETATM   28 CL   UNL     1      -3.489  -1.295 -33.184  1.00  0.00    -0.083 Cl
HETATM   29  C   UNL     1      -4.335  -3.575 -34.263  1.00  0.00     0.025 A 
HETATM   30  C   UNL     1      -5.260  -4.473 -34.793  1.00  0.00     0.002 A 
HETATM   31  C   UNL     1      -6.590  -4.092 -34.929  1.00  0.00     0.001 A 
HETATM   32  C   UNL     1      -6.988  -2.811 -34.545  1.00  0.00     0.019 A 
ENDBRANCH  23  26
ENDBRANCH   5  22
TORSDOF 7
ENDMDL
MODEL 7
REMARK VINA RESULT:      -8.4      5.523      7.027
REMARK  7 active torsions:
REMARK  status: ('A' for Active; 'I' for Inactive)
REMARK    1  A    between atoms: C_3  and  C_4 
REMARK       I    between atoms: C_4  and  N_5 
REMARK    2  A    between atoms: N_5  and  C_6 
REMARK    3  A    between atoms: C_6  and  C_7 
REMARK    4  A    between atoms: C_7  and  O_8 
REMARK    5  A    between atoms: C_7  and  C_9 
REMARK    6  A    between atoms: C_18  and  N_19 
REMARK       I    between atoms: N_19  and  C_20 
REMARK    7  A    between atoms: C_20  and  C_21 
ROOT
HETATM    1  C   UNL     1      -3.615   2.396 -31.494  1.00  0.00     0.050 C 
HETATM    2  C   UNL     1      -4.678   3.061 -32.309  1.00  0.00    -0.037 A 
HETATM    3  C   UNL     1      -4.487   4.166 -33.134  1.00  0.00     0.080 A 
HETATM    4  S   UNL     1      -5.953   4.639 -33.886  1.00  0.00    -0.066 SA
HETATM    5  C   UNL     1      -6.827   3.372 -33.189  1.00  0.00     0.078 A 
HETATM    6  C   UNL     1      -6.040   2.609 -32.357  1.00  0.00     0.045 A 
ENDROOT
BRANCH   3   7
HETATM    7  C   UNL     1      -3.237   4.871 -33.406  1.00  0.00     0.259 C 
HETATM    8  N   UNL     1      -3.212   6.219 -33.108  1.00  0.00    -0.354 N 
HETATM    9  H   UNL     1      -4.084   6.624 -32.784  1.00  0.00     0.162 HD
HETATM   10  O   UNL     1      -2.247   4.329 -33.894  1.00  0.00    -0.267 OA
BRANCH   8  11
HETATM   11  C   UNL     1      -2.181   7.119 -33.613  1.00  0.00     0.159 C 
BRANCH  11  12
HETATM   12  C   UNL     1      -1.550   8.050 -32.549  1.00  0.00     0.169 C 
BRANCH  12  13
HETATM   13  O   UNL     1      -2.522   8.877 -31.909  1.00  0.00    -0.389 OA
HETATM   14  H   UNL     1      -3.306   8.913 -32.498  1.00  0.00     0.210 HD
ENDBRANCH  12  13
BRANCH  12  15
HETATM   15  C   UNL     1      -0.876   7.223 -31.468  1.00  0.00    -0.028 A 
HETATM   16  C   UNL     1      -1.069   7.533 -30.112  1.00  0.00     0.013 A 
HETATM   17  C   UNL     1      -0.422   6.794 -29.119  1.00  0.00     0.043 A 
HETATM   18  C   UNL     1       0.420   5.747 -29.478  1.00  0.00     0.116 A 
HETATM   19  F   UNL     1       1.041   5.041 -28.523  1.00  0.00    -0.206 F 
HETATM   20  C   UNL     1       0.628   5.422 -30.812  1.00  0.00     0.043 A 
HETATM   21  C   UNL     1      -0.018   6.160 -31.805  1.00  0.00     0.013 A 
ENDBRANCH  12  15
ENDBRANCH  11  12
ENDBRANCH   8  11
ENDBRANCH   3   7
BRANCH   5  22
HETATM   22  N   UNL     1      -8.158   3.130 -33.473  1.00  0.00    -0.317 N 
HETATM   23  C   UNL     1      -8.681   2.062 -34.175  1.00  0.00     0.258 C 
HETATM   24  O   UNL     1      -8.039   1.186 -34.747  1.00  0.00    -0.267 OA
HETATM   25  H   UNL     1      -8.804   3.833 -33.134  1.00  0.00     0.169 HD
BRANCH  23  26
HETATM   26  C   UNL     1     -10.178   1.947 -34.195  1.00  0.00     0.054 A 
HETATM   27  C   UNL     1     -10.937   0.916 -33.619  1.00  0.00     0.049 A 
HETATM   28 CL   UNL     1     -10.261  -0.387 -32.700  1.00  0.00    -0.083 Cl
HETATM   29  C   UNL     1     -12.334   0.911 -33.749  1.00  0.00     0.025 A 
HETATM   30  C   UNL     1     -12.988   1.933 -34.436  1.00  0.00     0.002 A 
HETATM   31  C   UNL     1     -12.251   2.971 -34.993  1.00  0.00     0.001 A 
HETATM   32  C   UNL     1     -10.860   2.978 -34.872  1.00  0.00     0.019 A 
ENDBRANCH  23  26
ENDBRANCH   5  22
TORSDOF 7
ENDMDL
MODEL 8
REMARK VINA RESULT:      -8.3      6.467      9.504
REMARK  7 active torsions:
REMARK  status: ('A' for Active; 'I' for Inactive)
REMARK    1  A    between atoms: C_3  and  C_4 
REMARK       I    between atoms: C_4  and  N_5 
REMARK    2  A    between atoms: N_5  and  C_6 
REMARK    3  A    between atoms: C_6  and  C_7 
REMARK    4  A    between atoms: C_7  and  O_8 
REMARK    5  A    between atoms: C_7  and  C_9 
REMARK    6  A    between atoms: C_18  and  N_19 
REMARK       I    between atoms: N_19  and  C_20 
REMARK    7  A    between atoms: C_20  and  C_21 
ROOT
HETATM    1  C   UNL     1      -7.153   6.003 -32.148  1.00  0.00     0.050 C 
HETATM    2  C   UNL     1      -5.773   5.654 -31.691  1.00  0.00    -0.037 A 
HETATM    3  C   UNL     1      -5.059   4.523 -32.077  1.00  0.00     0.080 A 
HETATM    4  S   UNL     1      -3.519   4.475 -31.324  1.00  0.00    -0.066 SA
HETATM    5  C   UNL     1      -3.753   5.955 -30.543  1.00  0.00     0.078 A 
HETATM    6  C   UNL     1      -4.998   6.478 -30.806  1.00  0.00     0.045 A 
ENDROOT
BRANCH   3   7
HETATM    7  C   UNL     1      -5.475   3.482 -33.013  1.00  0.00     0.259 C 
HETATM    8  N   UNL     1      -5.751   2.242 -32.473  1.00  0.00    -0.354 N 
HETATM    9  H   UNL     1      -5.582   2.136 -31.479  1.00  0.00     0.162 HD
HETATM   10  O   UNL     1      -5.564   3.659 -34.227  1.00  0.00    -0.267 OA
BRANCH   8  11
HETATM   11  C   UNL     1      -5.856   1.034 -33.285  1.00  0.00     0.159 C 
BRANCH  11  12
HETATM   12  C   UNL     1      -5.053  -0.179 -32.757  1.00  0.00     0.169 C 
BRANCH  12  13
HETATM   13  O   UNL     1      -5.349  -0.471 -31.391  1.00  0.00    -0.389 OA
HETATM   14  H   UNL     1      -5.370  -1.447 -31.300  1.00  0.00     0.210 HD
ENDBRANCH  12  13
BRANCH  12  15
HETATM   15  C   UNL     1      -5.387  -1.419 -33.568  1.00  0.00    -0.028 A 
HETATM   16  C   UNL     1      -6.715  -1.697 -33.927  1.00  0.00     0.013 A 
HETATM   17  C   UNL     1      -7.026  -2.855 -34.644  1.00  0.00     0.043 A 
HETATM   18  C   UNL     1      -6.012  -3.737 -35.001  1.00  0.00     0.116 A 
HETATM   19  F   UNL     1      -6.314  -4.848 -35.686  1.00  0.00    -0.206 F 
HETATM   20  C   UNL     1      -4.691  -3.485 -34.655  1.00  0.00     0.043 A 
HETATM   21  C   UNL     1      -4.379  -2.329 -33.939  1.00  0.00     0.013 A 
ENDBRANCH  12  15
ENDBRANCH  11  12
ENDBRANCH   8  11
ENDBRANCH   3   7
BRANCH   5  22
HETATM   22  N   UNL     1      -2.776   6.563 -29.776  1.00  0.00    -0.317 N 
HETATM   23  C   UNL     1      -1.748   7.371 -30.221  1.00  0.00     0.258 C 
HETATM   24  O   UNL     1      -1.473   7.615 -31.392  1.00  0.00    -0.267 OA
HETATM   25  H   UNL     1      -2.829   6.371 -28.783  1.00  0.00     0.169 HD
BRANCH  23  26
HETATM   26  C   UNL     1      -0.925   8.046 -29.162  1.00  0.00     0.054 A 
HETATM   27  C   UNL     1      -1.353   9.081 -28.316  1.00  0.00     0.049 A 
HETATM   28 CL   UNL     1      -2.964   9.714 -28.297  1.00  0.00    -0.083 Cl
HETATM   29  C   UNL     1      -0.462   9.651 -27.394  1.00  0.00     0.025 A 
HETATM   30  C   UNL     1       0.851   9.192 -27.294  1.00  0.00     0.002 A 
HETATM   31  C   UNL     1       1.281   8.154 -28.112  1.00  0.00     0.001 A 
HETATM   32  C   UNL     1       0.401   7.586 -29.035  1.00  0.00     0.019 A 
ENDBRANCH  23  26
ENDBRANCH   5  22
TORSDOF 7
ENDMDL
MODEL 9
REMARK VINA RESULT:      -8.3      6.579      9.707
REMARK  7 active torsions:
REMARK  status: ('A' for Active; 'I' for Inactive)
REMARK    1  A    between atoms: C_3  and  C_4 
REMARK       I    between atoms: C_4  and  N_5 
REMARK    2  A    between atoms: N_5  and  C_6 
REMARK    3  A    between atoms: C_6  and  C_7 
REMARK    4  A    between atoms: C_7  and  O_8 
REMARK    5  A    between atoms: C_7  and  C_9 
REMARK    6  A    between atoms: C_18  and  N_19 
REMARK       I    between atoms: N_19  and  C_20 
REMARK    7  A    between atoms: C_20  and  C_21 
ROOT
HETATM    1  C   UNL     1      -8.443   3.690 -30.096  1.00  0.00     0.050 C 
HETATM    2  C   UNL     1      -7.348   2.952 -30.796  1.00  0.00    -0.037 A 
HETATM    3  C   UNL     1      -6.074   3.452 -31.051  1.00  0.00     0.080 A 
HETATM    4  S   UNL     1      -5.113   2.305 -31.887  1.00  0.00    -0.066 SA
HETATM    5  C   UNL     1      -6.330   1.133 -31.866  1.00  0.00     0.078 A 
HETATM    6  C   UNL     1      -7.478   1.603 -31.270  1.00  0.00     0.045 A 
ENDROOT
BRANCH   3   7
HETATM    7  C   UNL     1      -5.534   4.754 -30.668  1.00  0.00     0.259 C 
HETATM    8  N   UNL     1      -5.157   4.901 -29.348  1.00  0.00    -0.354 N 
HETATM    9  H   UNL     1      -5.344   4.114 -28.736  1.00  0.00     0.162 HD
HETATM   10  O   UNL     1      -5.427   5.698 -31.448  1.00  0.00    -0.267 OA
BRANCH   8  11
HETATM   11  C   UNL     1      -4.914   6.204 -28.738  1.00  0.00     0.159 C 
BRANCH  11  12
HETATM   12  C   UNL     1      -4.994   6.226 -27.192  1.00  0.00     0.169 C 
BRANCH  12  13
HETATM   13  O   UNL     1      -4.866   4.921 -26.626  1.00  0.00    -0.389 OA
HETATM   14  H   UNL     1      -4.067   4.929 -26.056  1.00  0.00     0.210 HD
ENDBRANCH  12  13
BRANCH  12  15
HETATM   15  C   UNL     1      -3.872   7.078 -26.624  1.00  0.00    -0.028 A 
HETATM   16  C   UNL     1      -2.605   7.079 -27.228  1.00  0.00     0.013 A 
HETATM   17  C   UNL     1      -1.565   7.838 -26.685  1.00  0.00     0.043 A 
HETATM   18  C   UNL     1      -1.788   8.593 -25.540  1.00  0.00     0.116 A 
HETATM   19  F   UNL     1      -0.787   9.318 -25.020  1.00  0.00    -0.206 F 
HETATM   20  C   UNL     1      -3.032   8.607 -24.924  1.00  0.00     0.043 A 
HETATM   21  C   UNL     1      -4.073   7.850 -25.464  1.00  0.00     0.013 A 
ENDBRANCH  12  15
ENDBRANCH  11  12
ENDBRANCH   8  11
ENDBRANCH   3   7
BRANCH   5  22
HETATM   22  N   UNL     1      -6.150  -0.147 -32.356  1.00  0.00    -0.317 N 
HETATM   23  C   UNL     1      -6.133  -0.540 -33.680  1.00  0.00     0.258 C 
HETATM   24  O   UNL     1      -6.367   0.175 -34.650  1.00  0.00    -0.267 OA
HETATM   25  H   UNL     1      -6.033  -0.864 -31.650  1.00  0.00     0.169 HD
BRANCH  23  26
HETATM   26  C   UNL     1      -5.746  -1.965 -33.947  1.00  0.00     0.054 A 
HETATM   27  C   UNL     1      -4.529  -2.572 -33.598  1.00  0.00     0.049 A 
HETATM   28 CL   UNL     1      -3.273  -1.781 -32.708  1.00  0.00    -0.083 Cl
HETATM   29  C   UNL     1      -4.281  -3.908 -33.947  1.00  0.00     0.025 A 
HETATM   30  C   UNL     1      -5.240  -4.655 -34.631  1.00  0.00     0.002 A 
HETATM   31  C   UNL     1      -6.457  -4.072 -34.966  1.00  0.00     0.001 A 
HETATM   32  C   UNL     1      -6.707  -2.742 -34.625  1.00  0.00     0.019 A 
ENDBRANCH  23  26
ENDBRANCH   5  22
TORSDOF 7
ENDMDL
MODEL 10
REMARK VINA RESULT:      -8.2      6.447      9.714
REMARK  7 active torsions:
REMARK  status: ('A' for Active; 'I' for Inactive)
REMARK    1  A    between atoms: C_3  and  C_4 
REMARK       I    between atoms: C_4  and  N_5 
REMARK    2  A    between atoms: N_5  and  C_6 
REMARK    3  A    between atoms: C_6  and  C_7 
REMARK    4  A    between atoms: C_7  and  O_8 
REMARK    5  A    between atoms: C_7  and  C_9 
REMARK    6  A    between atoms: C_18  and  N_19 
REMARK       I    between atoms: N_19  and  C_20 
REMARK    7  A    between atoms: C_20  and  C_21 
ROOT
HETATM    1  C   UNL     1      -7.332   6.059 -31.432  1.00  0.00     0.050 C 
HETATM    2  C   UNL     1      -5.873   5.732 -31.387  1.00  0.00    -0.037 A 
HETATM    3  C   UNL     1      -5.203   4.920 -32.296  1.00  0.00     0.080 A 
HETATM    4  S   UNL     1      -3.542   4.778 -31.894  1.00  0.00    -0.066 SA
HETATM    5  C   UNL     1      -3.679   5.822 -30.572  1.00  0.00     0.078 A 
HETATM    6  C   UNL     1      -4.974   6.253 -30.397  1.00  0.00     0.045 A 
ENDROOT
BRANCH   3   7
HETATM    7  C   UNL     1      -5.752   4.261 -33.479  1.00  0.00     0.259 C 
HETATM    8  N   UNL     1      -6.234   2.979 -33.303  1.00  0.00    -0.354 N 
HETATM    9  H   UNL     1      -6.111   2.575 -32.381  1.00  0.00     0.162 HD
HETATM   10  O   UNL     1      -5.779   4.782 -34.592  1.00  0.00    -0.267 OA
BRANCH   8  11
HETATM   11  C   UNL     1      -6.506   2.079 -34.418  1.00  0.00     0.159 C 
BRANCH  11  12
HETATM   12  C   UNL     1      -7.308   0.808 -34.049  1.00  0.00     0.169 C 
BRANCH  12  13
HETATM   13  O   UNL     1      -8.375   0.557 -34.965  1.00  0.00    -0.389 OA
HETATM   14  H   UNL     1      -9.188   0.421 -34.433  1.00  0.00     0.210 HD
ENDBRANCH  12  13
BRANCH  12  15
HETATM   15  C   UNL     1      -6.398  -0.408 -34.071  1.00  0.00    -0.028 A 
HETATM   16  C   UNL     1      -5.173  -0.391 -33.384  1.00  0.00     0.013 A 
HETATM   17  C   UNL     1      -4.322  -1.497 -33.432  1.00  0.00     0.043 A 
HETATM   18  C   UNL     1      -4.690  -2.619 -34.166  1.00  0.00     0.116 A 
HETATM   19  F   UNL     1      -3.869  -3.678 -34.211  1.00  0.00    -0.206 F 
HETATM   20  C   UNL     1      -5.895  -2.659 -34.854  1.00  0.00     0.043 A 
HETATM   21  C   UNL     1      -6.747  -1.555 -34.808  1.00  0.00     0.013 A 
ENDBRANCH  12  15
ENDBRANCH  11  12
ENDBRANCH   8  11
ENDBRANCH   3   7
BRANCH   5  22
HETATM   22  N   UNL     1      -2.596   6.212 -29.807  1.00  0.00    -0.317 N 
HETATM   23  C   UNL     1      -1.618   7.125 -30.148  1.00  0.00     0.258 C 
HETATM   24  O   UNL     1      -1.495   7.682 -31.235  1.00  0.00    -0.267 OA
HETATM   25  H   UNL     1      -2.521   5.756 -28.905  1.00  0.00     0.169 HD
BRANCH  23  26
HETATM   26  C   UNL     1      -0.647   7.497 -29.065  1.00  0.00     0.054 A 
HETATM   27  C   UNL     1       0.399   6.697 -28.580  1.00  0.00     0.049 A 
HETATM   28 CL   UNL     1       0.804   5.140 -29.218  1.00  0.00    -0.083 Cl
HETATM   29  C   UNL     1       1.209   7.155 -27.530  1.00  0.00     0.025 A 
HETATM   30  C   UNL     1       0.998   8.413 -26.965  1.00  0.00     0.002 A 
HETATM   31  C   UNL     1      -0.021   9.224 -27.450  1.00  0.00     0.001 A 
HETATM   32  C   UNL     1      -0.833   8.770 -28.490  1.00  0.00     0.019 A 
ENDBRANCH  23  26
ENDBRANCH   5  22
TORSDOF 7
ENDMDL
