MODEL 1
REMARK VINA RESULT:     -10.1      0.000      0.000
REMARK  8 active torsions:
REMARK  status: ('A' for Active; 'I' for Inactive)
REMARK    1  A    between atoms: C_4  and  N_5 
REMARK    2  A    between atoms: N_5  and  C_6 
REMARK    3  A    between atoms: C_8  and  N_9 
REMARK    4  A    between atoms: N_12  and  C_14 
REMARK    5  A    between atoms: C_14  and  C_15 
REMARK       I    between atoms: C_15  and  N_16 
REMARK    6  A    between atoms: N_16  and  C_17 
REMARK    7  A    between atoms: C_26  and  N_27 
REMARK    8  A    between atoms: N_27  and  C_28 
ROOT
HETATM    1  C   UNL     1      -9.069   0.199 -32.575  1.00  0.00     0.758 A 
HETATM    2  N   UNL     1      -8.551   0.991 -31.642  1.00  0.00     0.131 NA
HETATM    3  C   UNL     1      -7.233   1.102 -31.630  1.00  0.00     0.756 A 
HETATM    4  N   UNL     1      -6.436   0.403 -32.425  1.00  0.00     0.131 NA
HETATM    5  C   UNL     1      -7.026  -0.362 -33.339  1.00  0.00     0.758 A 
HETATM    6  N   UNL     1      -8.341  -0.475 -33.451  1.00  0.00     0.131 NA
ENDROOT
BRANCH   3   7
HETATM    7  N   UNL     1      -6.643   2.034 -30.779  1.00  0.00    -0.210 N 
HETATM    8  C   UNL     1      -7.359   3.312 -30.668  1.00  0.00     0.169 C 
HETATM    9  C   UNL     1      -6.847   4.329 -31.718  1.00  0.00     0.256 C 
HETATM   10  N   UNL     1      -5.327   4.456 -31.593  1.00  0.00    -0.060 N 
HETATM   11  H   UNL     1      -5.139   4.684 -30.610  1.00  0.00     0.280 HD
HETATM   12  C   UNL     1      -4.660   3.100 -31.847  1.00  0.00     0.256 C 
HETATM   13  C   UNL     1      -5.173   2.094 -30.796  1.00  0.00     0.169 C 
BRANCH  10  14
HETATM   14  C   UNL     1      -4.719   5.612 -32.391  1.00  0.00     0.337 C 
BRANCH  14  15
HETATM   15  C   UNL     1      -4.218   5.280 -33.804  1.00  0.00     0.249 C 
HETATM   16  N   UNL     1      -2.878   5.278 -34.066  1.00  0.00    -0.304 N 
HETATM   17  H   UNL     1      -2.584   5.053 -35.009  1.00  0.00     0.171 HD
HETATM   18  O   UNL     1      -5.007   5.013 -34.714  1.00  0.00    -0.271 OA
BRANCH  16  19
HETATM   19  C   UNL     1      -1.905   5.556 -33.152  1.00  0.00     0.172 A 
HETATM   20  S   UNL     1      -1.382   7.176 -33.122  1.00  0.00    -0.062 SA
HETATM   21  C   UNL     1      -0.282   6.770 -31.868  1.00  0.00     0.072 A 
HETATM   22  C   UNL     1      -0.400   5.428 -31.569  1.00  0.00     0.126 A 
HETATM   23  N   UNL     1      -1.338   4.729 -32.311  1.00  0.00    -0.236 NA
ENDBRANCH  16  19
ENDBRANCH  14  15
ENDBRANCH  10  14
ENDBRANCH   3   7
BRANCH   1  24
HETATM   24  N   UNL     1     -10.447   0.097 -32.737  1.00  0.00    -0.187 N 
HETATM   25  H   UNL     1     -10.856  -0.371 -31.937  1.00  0.00     0.184 HD
BRANCH  24  26
HETATM   26  C   UNL     1     -11.348   0.802 -33.545  1.00  0.00     0.049 A 
HETATM   27  C   UNL     1     -10.894   1.944 -34.220  1.00  0.00     0.030 A 
HETATM   28  C   UNL     1     -11.753   2.700 -35.018  1.00  0.00     0.002 A 
HETATM   29  C   UNL     1     -13.087   2.326 -35.153  1.00  0.00     0.000 A 
HETATM   30  C   UNL     1     -13.559   1.203 -34.478  1.00  0.00     0.002 A 
HETATM   31  C   UNL     1     -12.698   0.457 -33.669  1.00  0.00     0.030 A 
ENDBRANCH  24  26
ENDBRANCH   1  24
BRANCH   5  32
HETATM   32  N   UNL     1      -6.164  -1.009 -34.221  1.00  0.00    -0.187 N 
HETATM   33  H   UNL     1      -5.910  -0.390 -34.977  1.00  0.00     0.184 HD
BRANCH  32  34
HETATM   34  C   UNL     1      -5.698  -2.326 -34.312  1.00  0.00     0.049 A 
HETATM   35  C   UNL     1      -6.568  -3.313 -34.806  1.00  0.00     0.030 A 
HETATM   36  C   UNL     1      -6.175  -4.653 -34.891  1.00  0.00     0.002 A 
HETATM   37  C   UNL     1      -4.900  -5.030 -34.484  1.00  0.00     0.000 A 
HETATM   38  C   UNL     1      -4.022  -4.069 -33.992  1.00  0.00     0.002 A 
HETATM   39  C   UNL     1      -4.421  -2.730 -33.904  1.00  0.00     0.030 A 
ENDBRANCH  32  34
ENDBRANCH   5  32
TORSDOF 8
ENDMDL
MODEL 2
REMARK VINA RESULT:      -9.9      0.549      5.424
REMARK  8 active torsions:
REMARK  status: ('A' for Active; 'I' for Inactive)
REMARK    1  A    between atoms: C_4  and  N_5 
REMARK    2  A    between atoms: N_5  and  C_6 
REMARK    3  A    between atoms: C_8  and  N_9 
REMARK    4  A    between atoms: N_12  and  C_14 
REMARK    5  A    between atoms: C_14  and  C_15 
REMARK       I    between atoms: C_15  and  N_16 
REMARK    6  A    between atoms: N_16  and  C_17 
REMARK    7  A    between atoms: C_26  and  N_27 
REMARK    8  A    between atoms: N_27  and  C_28 
ROOT
HETATM    1  C   UNL     1      -6.858  -0.180 -33.600  1.00  0.00     0.758 A 
HETATM    2  N   UNL     1      -6.248   0.597 -32.711  1.00  0.00     0.131 NA
HETATM    3  C   UNL     1      -7.024   1.193 -31.821  1.00  0.00     0.756 A 
HETATM    4  N   UNL     1      -8.347   1.122 -31.846  1.00  0.00     0.131 NA
HETATM    5  C   UNL     1      -8.885   0.319 -32.758  1.00  0.00     0.758 A 
HETATM    6  N   UNL     1      -8.168  -0.358 -33.641  1.00  0.00     0.131 NA
ENDROOT
BRANCH   3   7
HETATM    7  N   UNL     1      -6.433   1.894 -30.772  1.00  0.00    -0.210 N 
HETATM    8  C   UNL     1      -7.132   3.126 -30.380  1.00  0.00     0.169 C 
HETATM    9  C   UNL     1      -6.590   4.347 -31.164  1.00  0.00     0.256 C 
HETATM   10  N   UNL     1      -5.071   4.415 -30.996  1.00  0.00    -0.060 N 
HETATM   11  H   UNL     1      -4.894   4.409 -29.984  1.00  0.00     0.280 HD
HETATM   12  C   UNL     1      -4.419   3.142 -31.547  1.00  0.00     0.256 C 
HETATM   13  C   UNL     1      -4.962   1.931 -30.760  1.00  0.00     0.169 C 
BRANCH  10  14
HETATM   14  C   UNL     1      -4.434   5.713 -31.501  1.00  0.00     0.337 C 
BRANCH  14  15
HETATM   15  C   UNL     1      -4.074   5.763 -32.993  1.00  0.00     0.249 C 
HETATM   16  N   UNL     1      -2.764   5.804 -33.374  1.00  0.00    -0.304 N 
HETATM   17  H   UNL     1      -2.563   5.835 -34.366  1.00  0.00     0.171 HD
HETATM   18  O   UNL     1      -4.950   5.766 -33.862  1.00  0.00    -0.271 OA
BRANCH  16  19
HETATM   19  C   UNL     1      -1.703   5.806 -32.517  1.00  0.00     0.172 A 
HETATM   20  S   UNL     1      -1.080   7.344 -32.140  1.00  0.00    -0.062 SA
HETATM   21  C   UNL     1       0.093   6.595 -31.135  1.00  0.00     0.072 A 
HETATM   22  C   UNL     1      -0.082   5.226 -31.164  1.00  0.00     0.126 A 
HETATM   23  N   UNL     1      -1.120   4.773 -31.963  1.00  0.00    -0.236 NA
ENDBRANCH  16  19
ENDBRANCH  14  15
ENDBRANCH  10  14
ENDBRANCH   3   7
BRANCH   1  24
HETATM   24  N   UNL     1      -6.121  -0.932 -34.511  1.00  0.00    -0.187 N 
HETATM   25  H   UNL     1      -5.596  -0.319 -35.122  1.00  0.00     0.184 HD
BRANCH  24  26
HETATM   26  C   UNL     1      -5.701  -2.267 -34.496  1.00  0.00     0.049 A 
HETATM   27  C   UNL     1      -6.620  -3.265 -34.853  1.00  0.00     0.030 A 
HETATM   28  C   UNL     1      -6.265  -4.615 -34.831  1.00  0.00     0.002 A 
HETATM   29  C   UNL     1      -4.980  -4.990 -34.450  1.00  0.00     0.000 A 
HETATM   30  C   UNL     1      -4.059  -4.014 -34.078  1.00  0.00     0.002 A 
HETATM   31  C   UNL     1      -4.423  -2.665 -34.088  1.00  0.00     0.030 A 
ENDBRANCH  24  26
ENDBRANCH   1  24
BRANCH   5  32
HETATM   32  N   UNL     1     -10.271   0.190 -32.696  1.00  0.00    -0.187 N 
HETATM   33  H   UNL     1     -10.527  -0.494 -32.000  1.00  0.00     0.184 HD
BRANCH  32  34
HETATM   34  C   UNL     1     -11.318   0.721 -33.459  1.00  0.00     0.049 A 
HETATM   35  C   UNL     1     -12.552   0.050 -33.465  1.00  0.00     0.030 A 
HETATM   36  C   UNL     1     -13.628   0.510 -34.233  1.00  0.00     0.002 A 
HETATM   37  C   UNL     1     -13.486   1.654 -35.010  1.00  0.00     0.000 A 
HETATM   38  C   UNL     1     -12.272   2.334 -35.019  1.00  0.00     0.002 A 
HETATM   39  C   UNL     1     -11.198   1.867 -34.253  1.00  0.00     0.030 A 
ENDBRANCH  32  34
ENDBRANCH   5  32
TORSDOF 8
ENDMDL
MODEL 3
REMARK VINA RESULT:      -9.7      2.800      7.377
REMARK  8 active torsions:
REMARK  status: ('A' for Active; 'I' for Inactive)
REMARK    1  A    between atoms: C_4  and  N_5 
REMARK    2  A    between atoms: N_5  and  C_6 
REMARK    3  A    between atoms: C_8  and  N_9 
REMARK    4  A    between atoms: N_12  and  C_14 
REMARK    5  A    between atoms: C_14  and  C_15 
REMARK       I    between atoms: C_15  and  N_16 
REMARK    6  A    between atoms: N_16  and  C_17 
REMARK    7  A    between atoms: C_26  and  N_27 
REMARK    8  A    between atoms: N_27  and  C_28 
ROOT
HETATM    1  C   UNL     1      -3.447   2.645 -31.132  1.00  0.00     0.758 A 
HETATM    2  N   UNL     1      -4.740   2.799 -30.864  1.00  0.00     0.131 NA
HETATM    3  C   UNL     1      -5.450   1.690 -30.745  1.00  0.00     0.756 A 
HETATM    4  N   UNL     1      -4.957   0.481 -30.971  1.00  0.00     0.131 NA
HETATM    5  C   UNL     1      -3.655   0.406 -31.226  1.00  0.00     0.758 A 
HETATM    6  N   UNL     1      -2.867   1.468 -31.299  1.00  0.00     0.131 NA
ENDROOT
BRANCH   3   7
HETATM    7  N   UNL     1      -6.773   1.779 -30.314  1.00  0.00    -0.210 N 
HETATM    8  C   UNL     1      -7.744   1.052 -31.143  1.00  0.00     0.169 C 
HETATM    9  C   UNL     1      -8.315   1.962 -32.259  1.00  0.00     0.256 C 
HETATM   10  N   UNL     1      -8.871   3.240 -31.627  1.00  0.00    -0.060 N 
HETATM   11  H   UNL     1      -9.534   2.936 -30.904  1.00  0.00     0.280 HD
HETATM   12  C   UNL     1      -7.758   3.994 -30.890  1.00  0.00     0.256 C 
HETATM   13  C   UNL     1      -7.197   3.082 -29.779  1.00  0.00     0.169 C 
BRANCH  10  14
HETATM   14  C   UNL     1      -9.694   4.112 -32.578  1.00  0.00     0.337 C 
BRANCH  14  15
HETATM   15  C   UNL     1      -9.233   4.153 -34.042  1.00  0.00     0.249 C 
HETATM   16  N   UNL     1      -9.942   3.482 -34.997  1.00  0.00    -0.304 N 
HETATM   17  H   UNL     1      -9.609   3.533 -35.952  1.00  0.00     0.171 HD
HETATM   18  O   UNL     1      -8.228   4.786 -34.377  1.00  0.00    -0.271 OA
BRANCH  16  19
HETATM   19  C   UNL     1     -11.066   2.746 -34.759  1.00  0.00     0.172 A 
HETATM   20  S   UNL     1     -12.534   3.542 -35.084  1.00  0.00    -0.062 SA
HETATM   21  C   UNL     1     -13.378   2.132 -34.590  1.00  0.00     0.072 A 
HETATM   22  C   UNL     1     -12.472   1.160 -34.215  1.00  0.00     0.126 A 
HETATM   23  N   UNL     1     -11.137   1.518 -34.313  1.00  0.00    -0.236 NA
ENDBRANCH  16  19
ENDBRANCH  14  15
ENDBRANCH  10  14
ENDBRANCH   3   7
BRANCH   1  24
HETATM   24  N   UNL     1      -2.594   3.744 -31.173  1.00  0.00    -0.187 N 
HETATM   25  H   UNL     1      -1.987   3.742 -30.363  1.00  0.00     0.184 HD
BRANCH  24  26
HETATM   26  C   UNL     1      -2.186   4.571 -32.227  1.00  0.00     0.049 A 
HETATM   27  C   UNL     1      -2.406   4.140 -33.543  1.00  0.00     0.030 A 
HETATM   28  C   UNL     1      -1.997   4.911 -34.633  1.00  0.00     0.002 A 
HETATM   29  C   UNL     1      -1.357   6.129 -34.422  1.00  0.00     0.000 A 
HETATM   30  C   UNL     1      -1.117   6.566 -33.122  1.00  0.00     0.002 A 
HETATM   31  C   UNL     1      -1.516   5.784 -32.034  1.00  0.00     0.030 A 
ENDBRANCH  24  26
ENDBRANCH   1  24
BRANCH   5  32
HETATM   32  N   UNL     1      -3.148  -0.885 -31.363  1.00  0.00    -0.187 N 
HETATM   33  H   UNL     1      -2.366  -1.021 -30.740  1.00  0.00     0.184 HD
BRANCH  32  34
HETATM   34  C   UNL     1      -3.433  -1.937 -32.242  1.00  0.00     0.049 A 
HETATM   35  C   UNL     1      -4.169  -1.660 -33.406  1.00  0.00     0.030 A 
HETATM   36  C   UNL     1      -4.515  -2.673 -34.307  1.00  0.00     0.002 A 
HETATM   37  C   UNL     1      -4.128  -3.985 -34.059  1.00  0.00     0.000 A 
HETATM   38  C   UNL     1      -3.398  -4.282 -32.912  1.00  0.00     0.002 A 
HETATM   39  C   UNL     1      -3.058  -3.267 -32.011  1.00  0.00     0.030 A 
ENDBRANCH  32  34
ENDBRANCH   5  32
TORSDOF 8
ENDMDL
MODEL 4
REMARK VINA RESULT:      -9.5      1.617      2.065
REMARK  8 active torsions:
REMARK  status: ('A' for Active; 'I' for Inactive)
REMARK    1  A    between atoms: C_4  and  N_5 
REMARK    2  A    between atoms: N_5  and  C_6 
REMARK    3  A    between atoms: C_8  and  N_9 
REMARK    4  A    between atoms: N_12  and  C_14 
REMARK    5  A    between atoms: C_14  and  C_15 
REMARK       I    between atoms: C_15  and  N_16 
REMARK    6  A    between atoms: N_16  and  C_17 
REMARK    7  A    between atoms: C_26  and  N_27 
REMARK    8  A    between atoms: N_27  and  C_28 
ROOT
HETATM    1  C   UNL     1      -8.666   1.393 -33.767  1.00  0.00     0.758 A 
HETATM    2  N   UNL     1      -8.436   1.908 -32.563  1.00  0.00     0.131 NA
HETATM    3  C   UNL     1      -7.302   1.555 -31.981  1.00  0.00     0.756 A 
HETATM    4  N   UNL     1      -6.466   0.664 -32.494  1.00  0.00     0.131 NA
HETATM    5  C   UNL     1      -6.759   0.198 -33.704  1.00  0.00     0.758 A 
HETATM    6  N   UNL     1      -7.844   0.553 -34.374  1.00  0.00     0.131 NA
ENDROOT
BRANCH   3   7
HETATM    7  N   UNL     1      -6.932   2.180 -30.791  1.00  0.00    -0.210 N 
HETATM    8  C   UNL     1      -7.240   3.616 -30.725  1.00  0.00     0.169 C 
HETATM    9  C   UNL     1      -6.051   4.464 -31.242  1.00  0.00     0.256 C 
HETATM   10  N   UNL     1      -4.784   4.065 -30.483  1.00  0.00    -0.060 N 
HETATM   11  H   UNL     1      -5.008   4.156 -29.485  1.00  0.00     0.280 HD
HETATM   12  C   UNL     1      -4.474   2.582 -30.713  1.00  0.00     0.256 C 
HETATM   13  C   UNL     1      -5.661   1.744 -30.193  1.00  0.00     0.169 C 
BRANCH  10  14
HETATM   14  C   UNL     1      -3.590   4.996 -30.707  1.00  0.00     0.337 C 
BRANCH  14  15
HETATM   15  C   UNL     1      -3.911   6.484 -30.913  1.00  0.00     0.249 C 
HETATM   16  N   UNL     1      -3.662   7.071 -32.120  1.00  0.00    -0.304 N 
HETATM   17  H   UNL     1      -3.887   8.053 -32.221  1.00  0.00     0.171 HD
HETATM   18  O   UNL     1      -4.395   7.164 -30.005  1.00  0.00    -0.271 OA
BRANCH  16  19
HETATM   19  C   UNL     1      -3.130   6.433 -33.202  1.00  0.00     0.172 A 
HETATM   20  S   UNL     1      -1.432   6.488 -33.313  1.00  0.00    -0.062 SA
HETATM   21  C   UNL     1      -1.524   5.577 -34.765  1.00  0.00     0.072 A 
HETATM   22  C   UNL     1      -2.845   5.300 -35.053  1.00  0.00     0.126 A 
HETATM   23  N   UNL     1      -3.771   5.795 -34.149  1.00  0.00    -0.236 NA
ENDBRANCH  16  19
ENDBRANCH  14  15
ENDBRANCH  10  14
ENDBRANCH   3   7
BRANCH   1  24
HETATM   24  N   UNL     1      -9.779   1.783 -34.506  1.00  0.00    -0.187 N 
HETATM   25  H   UNL     1      -9.488   2.150 -35.403  1.00  0.00     0.184 HD
BRANCH  24  26
HETATM   26  C   UNL     1     -11.132   1.437 -34.410  1.00  0.00     0.049 A 
HETATM   27  C   UNL     1     -12.076   2.220 -35.090  1.00  0.00     0.030 A 
HETATM   28  C   UNL     1     -13.441   1.937 -35.010  1.00  0.00     0.002 A 
HETATM   29  C   UNL     1     -13.885   0.864 -34.243  1.00  0.00     0.000 A 
HETATM   30  C   UNL     1     -12.964   0.084 -33.549  1.00  0.00     0.002 A 
HETATM   31  C   UNL     1     -11.599   0.379 -33.621  1.00  0.00     0.030 A 
ENDBRANCH  24  26
ENDBRANCH   1  24
BRANCH   5  32
HETATM   32  N   UNL     1      -5.812  -0.662 -34.256  1.00  0.00    -0.187 N 
HETATM   33  H   UNL     1      -5.105  -0.134 -34.745  1.00  0.00     0.184 HD
BRANCH  32  34
HETATM   34  C   UNL     1      -5.726  -2.056 -34.353  1.00  0.00     0.049 A 
HETATM   35  C   UNL     1      -4.479  -2.669 -34.144  1.00  0.00     0.030 A 
HETATM   36  C   UNL     1      -4.319  -4.054 -34.259  1.00  0.00     0.002 A 
HETATM   37  C   UNL     1      -5.409  -4.853 -34.586  1.00  0.00     0.000 A 
HETATM   38  C   UNL     1      -6.653  -4.268 -34.798  1.00  0.00     0.002 A 
HETATM   39  C   UNL     1      -6.807  -2.881 -34.686  1.00  0.00     0.030 A 
ENDBRANCH  32  34
ENDBRANCH   5  32
TORSDOF 8
ENDMDL
MODEL 5
REMARK VINA RESULT:      -9.5      3.126      6.978
REMARK  8 active torsions:
REMARK  status: ('A' for Active; 'I' for Inactive)
REMARK    1  A    between atoms: C_4  and  N_5 
REMARK    2  A    between atoms: N_5  and  C_6 
REMARK    3  A    between atoms: C_8  and  N_9 
REMARK    4  A    between atoms: N_12  and  C_14 
REMARK    5  A    between atoms: C_14  and  C_15 
REMARK       I    between atoms: C_15  and  N_16 
REMARK    6  A    between atoms: N_16  and  C_17 
REMARK    7  A    between atoms: C_26  and  N_27 
REMARK    8  A    between atoms: N_27  and  C_28 
ROOT
HETATM    1  C   UNL     1      -5.646   2.332 -32.540  1.00  0.00     0.758 A 
HETATM    2  N   UNL     1      -6.891   2.301 -32.074  1.00  0.00     0.131 NA
HETATM    3  C   UNL     1      -7.571   1.188 -32.290  1.00  0.00     0.756 A 
HETATM    4  N   UNL     1      -7.106   0.179 -33.013  1.00  0.00     0.131 NA
HETATM    5  C   UNL     1      -5.851   0.278 -33.438  1.00  0.00     0.758 A 
HETATM    6  N   UNL     1      -5.088   1.335 -33.206  1.00  0.00     0.131 NA
ENDROOT
BRANCH   3   7
HETATM    7  N   UNL     1      -8.822   1.036 -31.695  1.00  0.00    -0.210 N 
HETATM    8  C   UNL     1      -9.722   0.096 -32.378  1.00  0.00     0.169 C 
HETATM    9  C   UNL     1     -10.595   0.825 -33.428  1.00  0.00     0.256 C 
HETATM   10  N   UNL     1     -11.314   1.996 -32.756  1.00  0.00    -0.060 N 
HETATM   11  H   UNL     1     -11.810   1.601 -31.948  1.00  0.00     0.280 HD
HETATM   12  C   UNL     1     -10.294   2.986 -32.182  1.00  0.00     0.256 C 
HETATM   13  C   UNL     1      -9.431   2.253 -31.136  1.00  0.00     0.169 C 
BRANCH  10  14
HETATM   14  C   UNL     1     -12.405   2.646 -33.610  1.00  0.00     0.337 C 
BRANCH  14  15
HETATM   15  C   UNL     1     -12.302   2.437 -35.128  1.00  0.00     0.249 C 
HETATM   16  N   UNL     1     -11.729   3.400 -35.908  1.00  0.00    -0.304 N 
HETATM   17  H   UNL     1     -11.677   3.227 -36.905  1.00  0.00     0.171 HD
HETATM   18  O   UNL     1     -12.728   1.409 -35.661  1.00  0.00    -0.271 OA
BRANCH  16  19
HETATM   19  C   UNL     1     -11.222   4.578 -35.445  1.00  0.00     0.172 A 
HETATM   20  S   UNL     1     -12.346   5.851 -35.321  1.00  0.00    -0.062 SA
HETATM   21  C   UNL     1     -11.090   6.868 -34.741  1.00  0.00     0.072 A 
HETATM   22  C   UNL     1      -9.909   6.157 -34.687  1.00  0.00     0.126 A 
HETATM   23  N   UNL     1      -9.987   4.834 -35.094  1.00  0.00    -0.236 NA
ENDBRANCH  16  19
ENDBRANCH  14  15
ENDBRANCH  10  14
ENDBRANCH   3   7
BRANCH   1  24
HETATM   24  N   UNL     1      -4.814   3.416 -32.273  1.00  0.00    -0.187 N 
HETATM   25  H   UNL     1      -4.671   3.505 -31.275  1.00  0.00     0.184 HD
BRANCH  24  26
HETATM   26  C   UNL     1      -3.902   4.112 -33.074  1.00  0.00     0.049 A 
HETATM   27  C   UNL     1      -2.566   4.194 -32.656  1.00  0.00     0.030 A 
HETATM   28  C   UNL     1      -1.618   4.898 -33.402  1.00  0.00     0.002 A 
HETATM   29  C   UNL     1      -1.994   5.535 -34.581  1.00  0.00     0.000 A 
HETATM   30  C   UNL     1      -3.319   5.477 -35.004  1.00  0.00     0.002 A 
HETATM   31  C   UNL     1      -4.268   4.783 -34.246  1.00  0.00     0.030 A 
ENDBRANCH  24  26
ENDBRANCH   1  24
BRANCH   5  32
HETATM   32  N   UNL     1      -5.360  -0.839 -34.111  1.00  0.00    -0.187 N 
HETATM   33  H   UNL     1      -5.640  -0.813 -35.080  1.00  0.00     0.184 HD
BRANCH  32  34
HETATM   34  C   UNL     1      -4.684  -1.990 -33.690  1.00  0.00     0.049 A 
HETATM   35  C   UNL     1      -3.937  -1.934 -32.501  1.00  0.00     0.030 A 
HETATM   36  C   UNL     1      -3.212  -3.039 -32.044  1.00  0.00     0.002 A 
HETATM   37  C   UNL     1      -3.223  -4.225 -32.769  1.00  0.00     0.000 A 
HETATM   38  C   UNL     1      -3.957  -4.304 -33.948  1.00  0.00     0.002 A 
HETATM   39  C   UNL     1      -4.677  -3.194 -34.405  1.00  0.00     0.030 A 
ENDBRANCH  32  34
ENDBRANCH   5  32
TORSDOF 8
ENDMDL
MODEL 6
REMARK VINA RESULT:      -9.5      2.714      7.807
REMARK  8 active torsions:
REMARK  status: ('A' for Active; 'I' for Inactive)
REMARK    1  A    between atoms: C_4  and  N_5 
REMARK    2  A    between atoms: N_5  and  C_6 
REMARK    3  A    between atoms: C_8  and  N_9 
REMARK    4  A    between atoms: N_12  and  C_14 
REMARK    5  A    between atoms: C_14  and  C_15 
REMARK       I    between atoms: C_15  and  N_16 
REMARK    6  A    between atoms: N_16  and  C_17 
REMARK    7  A    between atoms: C_26  and  N_27 
REMARK    8  A    between atoms: N_27  and  C_28 
ROOT
HETATM    1  C   UNL     1      -4.173   0.512 -32.320  1.00  0.00     0.758 A 
HETATM    2  N   UNL     1      -5.351   0.579 -31.708  1.00  0.00     0.131 NA
HETATM    3  C   UNL     1      -5.576   1.664 -30.985  1.00  0.00     0.756 A 
HETATM    4  N   UNL     1      -4.665   2.603 -30.778  1.00  0.00     0.131 NA
HETATM    5  C   UNL     1      -3.514   2.471 -31.429  1.00  0.00     0.758 A 
HETATM    6  N   UNL     1      -3.241   1.445 -32.220  1.00  0.00     0.131 NA
ENDROOT
BRANCH   3   7
HETATM    7  N   UNL     1      -6.846   1.864 -30.447  1.00  0.00    -0.210 N 
HETATM    8  C   UNL     1      -7.928   1.139 -31.129  1.00  0.00     0.169 C 
HETATM    9  C   UNL     1      -8.549   1.999 -32.257  1.00  0.00     0.256 C 
HETATM   10  N   UNL     1      -8.975   3.350 -31.679  1.00  0.00    -0.060 N 
HETATM   11  H   UNL     1      -9.584   3.140 -30.879  1.00  0.00     0.280 HD
HETATM   12  C   UNL     1      -7.760   4.087 -31.104  1.00  0.00     0.256 C 
HETATM   13  C   UNL     1      -7.149   3.225 -29.980  1.00  0.00     0.169 C 
BRANCH  10  14
HETATM   14  C   UNL     1      -9.835   4.200 -32.619  1.00  0.00     0.337 C 
BRANCH  14  15
HETATM   15  C   UNL     1      -9.404   4.240 -34.092  1.00  0.00     0.249 C 
HETATM   16  N   UNL     1     -10.111   3.538 -35.026  1.00  0.00    -0.304 N 
HETATM   17  H   UNL     1      -9.799   3.589 -35.988  1.00  0.00     0.171 HD
HETATM   18  O   UNL     1      -8.426   4.900 -34.453  1.00  0.00    -0.271 OA
BRANCH  16  19
HETATM   19  C   UNL     1     -11.207   2.771 -34.758  1.00  0.00     0.172 A 
HETATM   20  S   UNL     1     -12.702   3.576 -34.883  1.00  0.00    -0.062 SA
HETATM   21  C   UNL     1     -13.494   2.117 -34.446  1.00  0.00     0.072 A 
HETATM   22  C   UNL     1     -12.555   1.127 -34.239  1.00  0.00     0.126 A 
HETATM   23  N   UNL     1     -11.235   1.507 -34.420  1.00  0.00    -0.236 NA
ENDBRANCH  16  19
ENDBRANCH  14  15
ENDBRANCH  10  14
ENDBRANCH   3   7
BRANCH   1  24
HETATM   24  N   UNL     1      -3.882  -0.537 -33.187  1.00  0.00    -0.187 N 
HETATM   25  H   UNL     1      -2.888  -0.733 -33.172  1.00  0.00     0.184 HD
BRANCH  24  26
HETATM   26  C   UNL     1      -4.683  -1.543 -33.739  1.00  0.00     0.049 A 
HETATM   27  C   UNL     1      -4.152  -2.836 -33.860  1.00  0.00     0.030 A 
HETATM   28  C   UNL     1      -4.896  -3.872 -34.426  1.00  0.00     0.002 A 
HETATM   29  C   UNL     1      -6.188  -3.631 -34.884  1.00  0.00     0.000 A 
HETATM   30  C   UNL     1      -6.727  -2.351 -34.785  1.00  0.00     0.002 A 
HETATM   31  C   UNL     1      -5.973  -1.313 -34.230  1.00  0.00     0.030 A 
ENDBRANCH  24  26
ENDBRANCH   1  24
BRANCH   5  32
HETATM   32  N   UNL     1      -2.614   3.523 -31.268  1.00  0.00    -0.187 N 
HETATM   33  H   UNL     1      -2.357   3.616 -30.296  1.00  0.00     0.184 HD
BRANCH  32  34
HETATM   34  C   UNL     1      -2.116   4.500 -32.138  1.00  0.00     0.049 A 
HETATM   35  C   UNL     1      -1.431   5.599 -31.594  1.00  0.00     0.030 A 
HETATM   36  C   UNL     1      -0.937   6.625 -32.407  1.00  0.00     0.002 A 
HETATM   37  C   UNL     1      -1.121   6.569 -33.784  1.00  0.00     0.000 A 
HETATM   38  C   UNL     1      -1.796   5.489 -34.345  1.00  0.00     0.002 A 
HETATM   39  C   UNL     1      -2.292   4.467 -33.527  1.00  0.00     0.030 A 
ENDBRANCH  32  34
ENDBRANCH   5  32
TORSDOF 8
ENDMDL
MODEL 7
REMARK VINA RESULT:      -9.1      2.091      5.920
REMARK  8 active torsions:
REMARK  status: ('A' for Active; 'I' for Inactive)
REMARK    1  A    between atoms: C_4  and  N_5 
REMARK    2  A    between atoms: N_5  and  C_6 
REMARK    3  A    between atoms: C_8  and  N_9 
REMARK    4  A    between atoms: N_12  and  C_14 
REMARK    5  A    between atoms: C_14  and  C_15 
REMARK       I    between atoms: C_15  and  N_16 
REMARK    6  A    between atoms: N_16  and  C_17 
REMARK    7  A    between atoms: C_26  and  N_27 
REMARK    8  A    between atoms: N_27  and  C_28 
ROOT
HETATM    1  C   UNL     1      -6.833  -0.006 -33.679  1.00  0.00     0.758 A 
HETATM    2  N   UNL     1      -5.909   0.477 -32.855  1.00  0.00     0.131 NA
HETATM    3  C   UNL     1      -6.342   1.255 -31.877  1.00  0.00     0.756 A 
HETATM    4  N   UNL     1      -7.606   1.634 -31.754  1.00  0.00     0.131 NA
HETATM    5  C   UNL     1      -8.474   1.104 -32.610  1.00  0.00     0.758 A 
HETATM    6  N   UNL     1      -8.123   0.269 -33.576  1.00  0.00     0.131 NA
ENDROOT
BRANCH   3   7
HETATM    7  N   UNL     1      -5.445   1.665 -30.893  1.00  0.00    -0.210 N 
HETATM    8  C   UNL     1      -5.741   2.974 -30.293  1.00  0.00     0.169 C 
HETATM    9  C   UNL     1      -5.024   4.112 -31.060  1.00  0.00     0.256 C 
HETATM   10  N   UNL     1      -3.530   3.793 -31.149  1.00  0.00    -0.060 N 
HETATM   11  H   UNL     1      -3.215   3.625 -30.186  1.00  0.00     0.280 HD
HETATM   12  C   UNL     1      -3.314   2.474 -31.900  1.00  0.00     0.256 C 
HETATM   13  C   UNL     1      -4.028   1.346 -31.129  1.00  0.00     0.169 C 
BRANCH  10  14
HETATM   14  C   UNL     1      -2.663   4.949 -31.653  1.00  0.00     0.337 C 
BRANCH  14  15
HETATM   15  C   UNL     1      -1.414   5.280 -30.824  1.00  0.00     0.249 C 
HETATM   16  N   UNL     1      -1.317   6.488 -30.194  1.00  0.00    -0.304 N 
HETATM   17  H   UNL     1      -0.479   6.671 -29.655  1.00  0.00     0.171 HD
HETATM   18  O   UNL     1      -0.489   4.471 -30.712  1.00  0.00    -0.271 OA
BRANCH  16  19
HETATM   19  C   UNL     1      -2.265   7.468 -30.239  1.00  0.00     0.172 A 
HETATM   20  S   UNL     1      -3.425   7.410 -28.995  1.00  0.00    -0.062 SA
HETATM   21  C   UNL     1      -4.178   8.798 -29.668  1.00  0.00     0.072 A 
HETATM   22  C   UNL     1      -3.484   9.199 -30.791  1.00  0.00     0.126 A 
HETATM   23  N   UNL     1      -2.379   8.430 -31.119  1.00  0.00    -0.236 NA
ENDBRANCH  16  19
ENDBRANCH  14  15
ENDBRANCH  10  14
ENDBRANCH   3   7
BRANCH   1  24
HETATM   24  N   UNL     1      -6.492  -0.917 -34.675  1.00  0.00    -0.187 N 
HETATM   25  H   UNL     1      -6.355  -0.433 -35.554  1.00  0.00     0.184 HD
BRANCH  24  26
HETATM   26  C   UNL     1      -5.968  -2.213 -34.615  1.00  0.00     0.049 A 
HETATM   27  C   UNL     1      -6.825  -3.297 -34.858  1.00  0.00     0.030 A 
HETATM   28  C   UNL     1      -6.363  -4.612 -34.787  1.00  0.00     0.002 A 
HETATM   29  C   UNL     1      -5.032  -4.866 -34.468  1.00  0.00     0.000 A 
HETATM   30  C   UNL     1      -4.171  -3.804 -34.208  1.00  0.00     0.002 A 
HETATM   31  C   UNL     1      -4.641  -2.488 -34.268  1.00  0.00     0.030 A 
ENDBRANCH  24  26
ENDBRANCH   1  24
BRANCH   5  32
HETATM   32  N   UNL     1      -9.808   1.446 -32.395  1.00  0.00    -0.187 N 
HETATM   33  H   UNL     1     -10.017   1.426 -31.408  1.00  0.00     0.184 HD
BRANCH  32  34
HETATM   34  C   UNL     1     -10.886   1.687 -33.254  1.00  0.00     0.049 A 
HETATM   35  C   UNL     1     -11.056   2.982 -33.772  1.00  0.00     0.030 A 
HETATM   36  C   UNL     1     -12.132   3.296 -34.610  1.00  0.00     0.002 A 
HETATM   37  C   UNL     1     -13.058   2.316 -34.946  1.00  0.00     0.000 A 
HETATM   38  C   UNL     1     -12.909   1.026 -34.445  1.00  0.00     0.002 A 
HETATM   39  C   UNL     1     -11.834   0.718 -33.604  1.00  0.00     0.030 A 
ENDBRANCH  32  34
ENDBRANCH   5  32
TORSDOF 8
ENDMDL
MODEL 8
REMARK VINA RESULT:      -9.0      3.480      7.913
REMARK  8 active torsions:
REMARK  status: ('A' for Active; 'I' for Inactive)
REMARK    1  A    between atoms: C_4  and  N_5 
REMARK    2  A    between atoms: N_5  and  C_6 
REMARK    3  A    between atoms: C_8  and  N_9 
REMARK    4  A    between atoms: N_12  and  C_14 
REMARK    5  A    between atoms: C_14  and  C_15 
REMARK       I    between atoms: C_15  and  N_16 
REMARK    6  A    between atoms: N_16  and  C_17 
REMARK    7  A    between atoms: C_26  and  N_27 
REMARK    8  A    between atoms: N_27  and  C_28 
ROOT
HETATM    1  C   UNL     1      -4.416   3.098 -32.041  1.00  0.00     0.758 A 
HETATM    2  N   UNL     1      -5.533   3.784 -32.266  1.00  0.00     0.131 NA
HETATM    3  C   UNL     1      -6.639   3.073 -32.410  1.00  0.00     0.756 A 
HETATM    4  N   UNL     1      -6.656   1.749 -32.434  1.00  0.00     0.131 NA
HETATM    5  C   UNL     1      -5.503   1.132 -32.194  1.00  0.00     0.758 A 
HETATM    6  N   UNL     1      -4.367   1.778 -31.979  1.00  0.00     0.131 NA
ENDROOT
BRANCH   3   7
HETATM    7  N   UNL     1      -7.861   3.738 -32.493  1.00  0.00    -0.210 N 
HETATM    8  C   UNL     1      -8.844   3.357 -31.468  1.00  0.00     0.169 C 
HETATM    9  C   UNL     1      -9.736   2.190 -31.960  1.00  0.00     0.256 C 
HETATM   10  N   UNL     1     -10.357   2.567 -33.305  1.00  0.00    -0.060 N 
HETATM   11  H   UNL     1     -10.827   3.469 -33.161  1.00  0.00     0.280 HD
HETATM   12  C   UNL     1      -9.258   2.825 -34.343  1.00  0.00     0.256 C 
HETATM   13  C   UNL     1      -8.377   3.989 -33.848  1.00  0.00     0.169 C 
BRANCH  10  14
HETATM   14  C   UNL     1     -11.460   1.619 -33.784  1.00  0.00     0.337 C 
BRANCH  14  15
HETATM   15  C   UNL     1     -12.507   2.213 -34.736  1.00  0.00     0.249 C 
HETATM   16  N   UNL     1     -13.303   3.240 -34.316  1.00  0.00    -0.304 N 
HETATM   17  H   UNL     1     -13.982   3.607 -34.972  1.00  0.00     0.171 HD
HETATM   18  O   UNL     1     -12.646   1.779 -35.883  1.00  0.00    -0.271 OA
BRANCH  16  19
HETATM   19  C   UNL     1     -13.251   3.808 -33.077  1.00  0.00     0.172 A 
HETATM   20  S   UNL     1     -14.349   3.172 -31.943  1.00  0.00    -0.062 SA
HETATM   21  C   UNL     1     -13.743   4.276 -30.776  1.00  0.00     0.072 A 
HETATM   22  C   UNL     1     -12.747   5.046 -31.343  1.00  0.00     0.126 A 
HETATM   23  N   UNL     1     -12.465   4.774 -32.673  1.00  0.00    -0.236 NA
ENDBRANCH  16  19
ENDBRANCH  14  15
ENDBRANCH  10  14
ENDBRANCH   3   7
BRANCH   1  24
HETATM   24  N   UNL     1      -3.220   3.757 -31.773  1.00  0.00    -0.187 N 
HETATM   25  H   UNL     1      -2.664   3.214 -31.124  1.00  0.00     0.184 HD
BRANCH  24  26
HETATM   26  C   UNL     1      -2.527   4.755 -32.468  1.00  0.00     0.049 A 
HETATM   27  C   UNL     1      -2.201   4.533 -33.814  1.00  0.00     0.030 A 
HETATM   28  C   UNL     1      -1.488   5.482 -34.550  1.00  0.00     0.002 A 
HETATM   29  C   UNL     1      -1.087   6.671 -33.947  1.00  0.00     0.000 A 
HETATM   30  C   UNL     1      -1.388   6.901 -32.608  1.00  0.00     0.002 A 
HETATM   31  C   UNL     1      -2.090   5.942 -31.872  1.00  0.00     0.030 A 
ENDBRANCH  24  26
ENDBRANCH   1  24
BRANCH   5  32
HETATM   32  N   UNL     1      -5.573  -0.258 -32.130  1.00  0.00    -0.187 N 
HETATM   33  H   UNL     1      -5.488  -0.567 -31.174  1.00  0.00     0.184 HD
BRANCH  32  34
HETATM   34  C   UNL     1      -5.620  -1.260 -33.106  1.00  0.00     0.049 A 
HETATM   35  C   UNL     1      -4.423  -1.903 -33.467  1.00  0.00     0.030 A 
HETATM   36  C   UNL     1      -4.397  -2.889 -34.459  1.00  0.00     0.002 A 
HETATM   37  C   UNL     1      -5.572  -3.252 -35.108  1.00  0.00     0.000 A 
HETATM   38  C   UNL     1      -6.768  -2.629 -34.766  1.00  0.00     0.002 A 
HETATM   39  C   UNL     1      -6.788  -1.639 -33.777  1.00  0.00     0.030 A 
ENDBRANCH  32  34
ENDBRANCH   5  32
TORSDOF 8
ENDMDL
MODEL 9
REMARK VINA RESULT:      -9.0      3.473      8.172
REMARK  8 active torsions:
REMARK  status: ('A' for Active; 'I' for Inactive)
REMARK    1  A    between atoms: C_4  and  N_5 
REMARK    2  A    between atoms: N_5  and  C_6 
REMARK    3  A    between atoms: C_8  and  N_9 
REMARK    4  A    between atoms: N_12  and  C_14 
REMARK    5  A    between atoms: C_14  and  C_15 
REMARK       I    between atoms: C_15  and  N_16 
REMARK    6  A    between atoms: N_16  and  C_17 
REMARK    7  A    between atoms: C_26  and  N_27 
REMARK    8  A    between atoms: N_27  and  C_28 
ROOT
HETATM    1  C   UNL     1      -5.606   1.190 -31.720  1.00  0.00     0.758 A 
HETATM    2  N   UNL     1      -6.760   1.809 -31.947  1.00  0.00     0.131 NA
HETATM    3  C   UNL     1      -6.722   3.131 -31.974  1.00  0.00     0.756 A 
HETATM    4  N   UNL     1      -5.634   3.834 -31.696  1.00  0.00     0.131 NA
HETATM    5  C   UNL     1      -4.516   3.147 -31.487  1.00  0.00     0.758 A 
HETATM    6  N   UNL     1      -4.464   1.824 -31.507  1.00  0.00     0.131 NA
ENDROOT
BRANCH   3   7
HETATM    7  N   UNL     1      -7.865   3.830 -32.359  1.00  0.00    -0.210 N 
HETATM    8  C   UNL     1      -9.004   3.707 -31.438  1.00  0.00     0.169 C 
HETATM    9  C   UNL     1      -9.912   2.516 -31.833  1.00  0.00     0.256 C 
HETATM   10  N   UNL     1     -10.312   2.657 -33.303  1.00  0.00    -0.060 N 
HETATM   11  H   UNL     1     -10.724   3.593 -33.399  1.00  0.00     0.280 HD
HETATM   12  C   UNL     1      -9.066   2.650 -34.195  1.00  0.00     0.256 C 
HETATM   13  C   UNL     1      -8.170   3.840 -33.798  1.00  0.00     0.169 C 
BRANCH  10  14
HETATM   14  C   UNL     1     -11.412   1.693 -33.756  1.00  0.00     0.337 C 
BRANCH  14  15
HETATM   15  C   UNL     1     -12.451   2.253 -34.739  1.00  0.00     0.249 C 
HETATM   16  N   UNL     1     -13.277   3.267 -34.349  1.00  0.00    -0.304 N 
HETATM   17  H   UNL     1     -13.949   3.612 -35.024  1.00  0.00     0.171 HD
HETATM   18  O   UNL     1     -12.554   1.803 -35.883  1.00  0.00    -0.271 OA
BRANCH  16  19
HETATM   19  C   UNL     1     -13.266   3.851 -33.116  1.00  0.00     0.172 A 
HETATM   20  S   UNL     1     -14.334   3.166 -31.982  1.00  0.00    -0.062 SA
HETATM   21  C   UNL     1     -13.799   4.314 -30.824  1.00  0.00     0.072 A 
HETATM   22  C   UNL     1     -12.845   5.133 -31.393  1.00  0.00     0.126 A 
HETATM   23  N   UNL     1     -12.538   4.863 -32.718  1.00  0.00    -0.236 NA
ENDBRANCH  16  19
ENDBRANCH  14  15
ENDBRANCH  10  14
ENDBRANCH   3   7
BRANCH   1  24
HETATM   24  N   UNL     1      -5.520  -0.198 -31.776  1.00  0.00    -0.187 N 
HETATM   25  H   UNL     1      -5.781  -0.597 -30.883  1.00  0.00     0.184 HD
BRANCH  24  26
HETATM   26  C   UNL     1      -5.515  -1.090 -32.854  1.00  0.00     0.049 A 
HETATM   27  C   UNL     1      -6.716  -1.319 -33.543  1.00  0.00     0.030 A 
HETATM   28  C   UNL     1      -6.777  -2.218 -34.609  1.00  0.00     0.002 A 
HETATM   29  C   UNL     1      -5.633  -2.907 -35.004  1.00  0.00     0.000 A 
HETATM   30  C   UNL     1      -4.436  -2.704 -34.323  1.00  0.00     0.002 A 
HETATM   31  C   UNL     1      -4.383  -1.812 -33.247  1.00  0.00     0.030 A 
ENDBRANCH  24  26
ENDBRANCH   1  24
BRANCH   5  32
HETATM   32  N   UNL     1      -3.371   3.917 -31.294  1.00  0.00    -0.187 N 
HETATM   33  H   UNL     1      -3.117   3.924 -30.317  1.00  0.00     0.184 HD
BRANCH  32  34
HETATM   34  C   UNL     1      -2.613   4.734 -32.139  1.00  0.00     0.049 A 
HETATM   35  C   UNL     1      -2.510   4.385 -33.497  1.00  0.00     0.030 A 
HETATM   36  C   UNL     1      -1.740   5.142 -34.387  1.00  0.00     0.002 A 
HETATM   37  C   UNL     1      -1.059   6.266 -33.934  1.00  0.00     0.000 A 
HETATM   38  C   UNL     1      -1.147   6.631 -32.594  1.00  0.00     0.002 A 
HETATM   39  C   UNL     1      -1.914   5.868 -31.706  1.00  0.00     0.030 A 
ENDBRANCH  32  34
ENDBRANCH   5  32
TORSDOF 8
ENDMDL
MODEL 10
REMARK VINA RESULT:      -8.9      2.797      7.537
REMARK  8 active torsions:
REMARK  status: ('A' for Active; 'I' for Inactive)
REMARK    1  A    between atoms: C_4  and  N_5 
REMARK    2  A    between atoms: N_5  and  C_6 
REMARK    3  A    between atoms: C_8  and  N_9 
REMARK    4  A    between atoms: N_12  and  C_14 
REMARK    5  A    between atoms: C_14  and  C_15 
REMARK       I    between atoms: C_15  and  N_16 
REMARK    6  A    between atoms: N_16  and  C_17 
REMARK    7  A    between atoms: C_26  and  N_27 
REMARK    8  A    between atoms: N_27  and  C_28 
ROOT
HETATM    1  C   UNL     1      -4.142   3.052 -31.637  1.00  0.00     0.758 A 
HETATM    2  N   UNL     1      -5.134   3.889 -31.349  1.00  0.00     0.131 NA
HETATM    3  C   UNL     1      -6.331   3.349 -31.195  1.00  0.00     0.756 A 
HETATM    4  N   UNL     1      -6.584   2.065 -31.406  1.00  0.00     0.131 NA
HETATM    5  C   UNL     1      -5.541   1.289 -31.682  1.00  0.00     0.758 A 
HETATM    6  N   UNL     1      -4.304   1.748 -31.790  1.00  0.00     0.131 NA
ENDROOT
BRANCH   3   7
HETATM    7  N   UNL     1      -7.378   4.149 -30.742  1.00  0.00    -0.210 N 
HETATM    8  C   UNL     1      -8.652   3.445 -30.540  1.00  0.00     0.169 C 
HETATM    9  C   UNL     1      -9.518   3.481 -31.823  1.00  0.00     0.256 C 
HETATM   10  N   UNL     1      -9.677   4.933 -32.279  1.00  0.00    -0.060 N 
HETATM   11  H   UNL     1     -10.042   5.449 -31.469  1.00  0.00     0.280 HD
HETATM   12  C   UNL     1      -8.306   5.545 -32.587  1.00  0.00     0.256 C 
HETATM   13  C   UNL     1      -7.451   5.507 -31.303  1.00  0.00     0.169 C 
BRANCH  10  14
HETATM   14  C   UNL     1     -10.718   5.141 -33.382  1.00  0.00     0.337 C 
BRANCH  14  15
HETATM   15  C   UNL     1     -10.261   4.847 -34.818  1.00  0.00     0.249 C 
HETATM   16  N   UNL     1     -10.759   3.761 -35.480  1.00  0.00    -0.304 N 
HETATM   17  H   UNL     1     -10.436   3.598 -36.426  1.00  0.00     0.171 HD
HETATM   18  O   UNL     1      -9.449   5.577 -35.393  1.00  0.00    -0.271 OA
BRANCH  16  19
HETATM   19  C   UNL     1     -11.658   2.877 -34.959  1.00  0.00     0.172 A 
HETATM   20  S   UNL     1     -10.982   1.470 -34.281  1.00  0.00    -0.062 SA
HETATM   21  C   UNL     1     -12.563   0.928 -33.893  1.00  0.00     0.072 A 
HETATM   22  C   UNL     1     -13.487   1.864 -34.311  1.00  0.00     0.126 A 
HETATM   23  N   UNL     1     -12.962   2.989 -34.927  1.00  0.00    -0.236 NA
ENDBRANCH  16  19
ENDBRANCH  14  15
ENDBRANCH  10  14
ENDBRANCH   3   7
BRANCH   1  24
HETATM   24  N   UNL     1      -2.829   3.506 -31.715  1.00  0.00    -0.187 N 
HETATM   25  H   UNL     1      -2.189   2.763 -31.463  1.00  0.00     0.184 HD
BRANCH  24  26
HETATM   26  C   UNL     1      -2.254   4.589 -32.391  1.00  0.00     0.049 A 
HETATM   27  C   UNL     1      -2.185   4.547 -33.791  1.00  0.00     0.030 A 
HETATM   28  C   UNL     1      -1.600   5.586 -34.517  1.00  0.00     0.002 A 
HETATM   29  C   UNL     1      -1.069   6.687 -33.850  1.00  0.00     0.000 A 
HETATM   30  C   UNL     1      -1.115   6.739 -32.460  1.00  0.00     0.002 A 
HETATM   31  C   UNL     1      -1.690   5.689 -31.737  1.00  0.00     0.030 A 
ENDBRANCH  24  26
ENDBRANCH   1  24
BRANCH   5  32
HETATM   32  N   UNL     1      -5.825  -0.070 -31.802  1.00  0.00    -0.187 N 
HETATM   33  H   UNL     1      -6.089  -0.451 -30.905  1.00  0.00     0.184 HD
BRANCH  32  34
HETATM   34  C   UNL     1      -5.708  -0.984 -32.856  1.00  0.00     0.049 A 
HETATM   35  C   UNL     1      -6.849  -1.278 -33.621  1.00  0.00     0.030 A 
HETATM   36  C   UNL     1      -6.806  -2.206 -34.666  1.00  0.00     0.002 A 
HETATM   37  C   UNL     1      -5.616  -2.858 -34.967  1.00  0.00     0.000 A 
HETATM   38  C   UNL     1      -4.473  -2.582 -34.223  1.00  0.00     0.002 A 
HETATM   39  C   UNL     1      -4.522  -1.656 -33.174  1.00  0.00     0.030 A 
ENDBRANCH  32  34
ENDBRANCH   5  32
TORSDOF 8
ENDMDL
