MODEL 1
REMARK VINA RESULT:      -8.2      0.000      0.000
REMARK  3 active torsions:
REMARK  status: ('A' for Active; 'I' for Inactive)
REMARK    1  A    between atoms: C_9  and  C_10 
REMARK    2  A    between atoms: C_16  and  C_17 
REMARK       I    between atoms: C_17  and  N_18 
REMARK    3  A    between atoms: N_18  and  C_19 
ROOT
HETATM    1  C   UNL     1      -3.738   1.951 -32.350  1.00  0.00     0.070 C 
HETATM    2  C   UNL     1      -5.150   2.310 -31.962  1.00  0.00     0.037 C 
HETATM    3  N   UNL     1      -5.368   3.650 -31.656  1.00  0.00    -0.192 N 
HETATM    4  C   UNL     1      -6.492   4.090 -31.058  1.00  0.00     0.725 A 
HETATM    5  N   UNL     1      -7.544   3.229 -30.888  1.00  0.00    -0.082 N 
HETATM    6  N   UNL     1      -8.522   3.793 -30.142  1.00  0.00    -0.149 NA
HETATM    7  C   UNL     1      -8.019   5.022 -29.970  1.00  0.00     0.275 A 
HETATM    8  N   UNL     1      -6.780   5.245 -30.513  1.00  0.00    -0.054 NA
HETATM    9  C   UNL     1      -7.547   1.838 -31.342  1.00  0.00     0.221 C 
HETATM   10  C   UNL     1      -6.167   1.421 -31.833  1.00  0.00     0.064 C 
HETATM   11  H   UNL     1      -4.567   4.276 -31.682  1.00  0.00     0.184 HD
ENDROOT
BRANCH  10  12
HETATM   12  C   UNL     1      -6.037  -0.044 -32.044  1.00  0.00     0.257 C 
HETATM   13  N   UNL     1      -6.106  -0.412 -33.366  1.00  0.00    -0.308 N 
HETATM   14  H   UNL     1      -6.337   0.302 -34.041  1.00  0.00     0.170 HD
HETATM   15  O   UNL     1      -5.925  -0.758 -31.057  1.00  0.00    -0.267 OA
BRANCH  13  16
HETATM   16  C   UNL     1      -5.865  -1.703 -33.854  1.00  0.00     0.129 A 
HETATM   17  N   UNL     1      -4.616  -2.197 -33.900  1.00  0.00    -0.243 NA
HETATM   18  C   UNL     1      -4.438  -3.434 -34.410  1.00  0.00     0.119 A 
HETATM   19  C   UNL     1      -5.466  -4.216 -34.904  1.00  0.00     0.019 A 
HETATM   20  C   UNL     1      -6.752  -3.696 -34.861  1.00  0.00     0.005 A 
HETATM   21  C   UNL     1      -6.959  -2.426 -34.324  1.00  0.00     0.050 A 
ENDBRANCH  13  16
ENDBRANCH  10  12
BRANCH   9  22
HETATM   22  C   UNL     1      -8.623   1.679 -32.411  1.00  0.00     0.064 A 
HETATM   23  N   UNL     1      -8.703   2.616 -33.399  1.00  0.00    -0.263 NA
HETATM   24  C   UNL     1      -9.711   2.495 -34.293  1.00  0.00     0.117 A 
HETATM   25  C   UNL     1     -10.647   1.475 -34.268  1.00  0.00     0.019 A 
HETATM   26  C   UNL     1     -10.549   0.518 -33.267  1.00  0.00     0.003 A 
HETATM   27  C   UNL     1      -9.530   0.619 -32.325  1.00  0.00     0.030 A 
ENDBRANCH   9  22
TORSDOF 3
ENDMDL
MODEL 2
REMARK VINA RESULT:      -7.8      1.866      3.841
REMARK  3 active torsions:
REMARK  status: ('A' for Active; 'I' for Inactive)
REMARK    1  A    between atoms: C_9  and  C_10 
REMARK    2  A    between atoms: C_16  and  C_17 
REMARK       I    between atoms: C_17  and  N_18 
REMARK    3  A    between atoms: N_18  and  C_19 
ROOT
HETATM    1  C   UNL     1     -10.236  -0.305 -32.742  1.00  0.00     0.070 C 
HETATM    2  C   UNL     1      -9.452   0.983 -32.728  1.00  0.00     0.037 C 
HETATM    3  N   UNL     1     -10.057   2.049 -32.067  1.00  0.00    -0.192 N 
HETATM    4  C   UNL     1      -9.617   3.317 -32.172  1.00  0.00     0.725 A 
HETATM    5  N   UNL     1      -8.433   3.568 -32.813  1.00  0.00    -0.082 N 
HETATM    6  N   UNL     1      -8.225   4.898 -32.955  1.00  0.00    -0.149 NA
HETATM    7  C   UNL     1      -9.289   5.381 -32.302  1.00  0.00     0.275 A 
HETATM    8  N   UNL     1     -10.165   4.450 -31.809  1.00  0.00    -0.054 NA
HETATM    9  C   UNL     1      -7.574   2.531 -33.385  1.00  0.00     0.221 C 
HETATM   10  C   UNL     1      -8.266   1.174 -33.358  1.00  0.00     0.064 C 
HETATM   11  H   UNL     1     -10.982   1.896 -31.676  1.00  0.00     0.184 HD
ENDROOT
BRANCH  10  12
HETATM   12  C   UNL     1      -7.567   0.142 -34.167  1.00  0.00     0.257 C 
HETATM   13  N   UNL     1      -6.889  -0.780 -33.408  1.00  0.00    -0.308 N 
HETATM   14  H   UNL     1      -6.838  -0.622 -32.412  1.00  0.00     0.170 HD
HETATM   15  O   UNL     1      -7.626   0.233 -35.387  1.00  0.00    -0.267 OA
BRANCH  13  16
HETATM   16  C   UNL     1      -6.275  -1.936 -33.907  1.00  0.00     0.129 A 
HETATM   17  N   UNL     1      -4.936  -2.022 -33.985  1.00  0.00    -0.243 NA
HETATM   18  C   UNL     1      -4.398  -3.145 -34.505  1.00  0.00     0.119 A 
HETATM   19  C   UNL     1      -5.147  -4.208 -34.976  1.00  0.00     0.019 A 
HETATM   20  C   UNL     1      -6.530  -4.109 -34.899  1.00  0.00     0.005 A 
HETATM   21  C   UNL     1      -7.104  -2.962 -34.353  1.00  0.00     0.050 A 
ENDBRANCH  13  16
ENDBRANCH  10  12
BRANCH   9  22
HETATM   22  C   UNL     1      -6.248   2.528 -32.631  1.00  0.00     0.064 A 
HETATM   23  N   UNL     1      -6.184   1.889 -31.428  1.00  0.00    -0.263 NA
HETATM   24  C   UNL     1      -5.019   1.964 -30.744  1.00  0.00     0.117 A 
HETATM   25  C   UNL     1      -3.897   2.634 -31.200  1.00  0.00     0.019 A 
HETATM   26  C   UNL     1      -3.968   3.269 -32.432  1.00  0.00     0.003 A 
HETATM   27  C   UNL     1      -5.154   3.222 -33.157  1.00  0.00     0.030 A 
ENDBRANCH   9  22
TORSDOF 3
ENDMDL
MODEL 3
REMARK VINA RESULT:      -7.6      2.836      6.160
REMARK  3 active torsions:
REMARK  status: ('A' for Active; 'I' for Inactive)
REMARK    1  A    between atoms: C_9  and  C_10 
REMARK    2  A    between atoms: C_16  and  C_17 
REMARK       I    between atoms: C_17  and  N_18 
REMARK    3  A    between atoms: N_18  and  C_19 
ROOT
HETATM    1  C   UNL     1      -2.991   0.006 -31.221  1.00  0.00     0.070 C 
HETATM    2  C   UNL     1      -4.189   0.378 -32.058  1.00  0.00     0.037 C 
HETATM    3  N   UNL     1      -4.893  -0.689 -32.609  1.00  0.00    -0.192 N 
HETATM    4  C   UNL     1      -5.823  -0.532 -33.570  1.00  0.00     0.725 A 
HETATM    5  N   UNL     1      -6.227   0.730 -33.916  1.00  0.00    -0.082 N 
HETATM    6  N   UNL     1      -7.046   0.705 -34.993  1.00  0.00    -0.149 NA
HETATM    7  C   UNL     1      -7.152  -0.615 -35.186  1.00  0.00     0.275 A 
HETATM    8  N   UNL     1      -6.420  -1.407 -34.340  1.00  0.00    -0.054 NA
HETATM    9  C   UNL     1      -5.729   1.953 -33.284  1.00  0.00     0.221 C 
HETATM   10  C   UNL     1      -4.564   1.648 -32.350  1.00  0.00     0.064 C 
HETATM   11  H   UNL     1      -4.538  -1.626 -32.438  1.00  0.00     0.184 HD
ENDROOT
BRANCH  10  12
HETATM   12  C   UNL     1      -3.842   2.865 -31.897  1.00  0.00     0.257 C 
HETATM   13  N   UNL     1      -2.832   3.247 -32.746  1.00  0.00    -0.308 N 
HETATM   14  H   UNL     1      -2.606   2.634 -33.515  1.00  0.00     0.170 HD
HETATM   15  O   UNL     1      -4.177   3.368 -30.833  1.00  0.00    -0.267 OA
BRANCH  13  16
HETATM   16  C   UNL     1      -2.096   4.435 -32.636  1.00  0.00     0.129 A 
HETATM   17  N   UNL     1      -1.269   4.635 -31.597  1.00  0.00    -0.243 NA
HETATM   18  C   UNL     1      -0.610   5.812 -31.524  1.00  0.00     0.119 A 
HETATM   19  C   UNL     1      -0.751   6.829 -32.450  1.00  0.00     0.019 A 
HETATM   20  C   UNL     1      -1.613   6.618 -33.516  1.00  0.00     0.005 A 
HETATM   21  C   UNL     1      -2.292   5.404 -33.617  1.00  0.00     0.050 A 
ENDBRANCH  13  16
ENDBRANCH  10  12
BRANCH   9  22
HETATM   22  C   UNL     1      -6.890   2.637 -32.570  1.00  0.00     0.064 A 
HETATM   23  N   UNL     1      -7.214   3.913 -32.929  1.00  0.00    -0.263 NA
HETATM   24  C   UNL     1      -8.198   4.524 -32.232  1.00  0.00     0.117 A 
HETATM   25  C   UNL     1      -8.896   3.930 -31.194  1.00  0.00     0.019 A 
HETATM   26  C   UNL     1      -8.568   2.626 -30.846  1.00  0.00     0.003 A 
HETATM   27  C   UNL     1      -7.553   1.970 -31.536  1.00  0.00     0.030 A 
ENDBRANCH   9  22
TORSDOF 3
ENDMDL
MODEL 4
REMARK VINA RESULT:      -7.4      3.077      6.496
REMARK  3 active torsions:
REMARK  status: ('A' for Active; 'I' for Inactive)
REMARK    1  A    between atoms: C_9  and  C_10 
REMARK    2  A    between atoms: C_16  and  C_17 
REMARK       I    between atoms: C_17  and  N_18 
REMARK    3  A    between atoms: N_18  and  C_19 
ROOT
HETATM    1  C   UNL     1      -6.324   5.185 -33.849  1.00  0.00     0.070 C 
HETATM    2  C   UNL     1      -6.523   3.833 -33.211  1.00  0.00     0.037 C 
HETATM    3  N   UNL     1      -7.630   3.115 -33.655  1.00  0.00    -0.192 N 
HETATM    4  C   UNL     1      -8.090   2.018 -33.023  1.00  0.00     0.725 A 
HETATM    5  N   UNL     1      -7.360   1.474 -32.000  1.00  0.00    -0.082 N 
HETATM    6  N   UNL     1      -8.040   0.478 -31.387  1.00  0.00    -0.149 NA
HETATM    7  C   UNL     1      -9.138   0.429 -32.151  1.00  0.00     0.275 A 
HETATM    8  N   UNL     1      -9.210   1.353 -33.160  1.00  0.00    -0.054 NA
HETATM    9  C   UNL     1      -6.068   1.994 -31.548  1.00  0.00     0.221 C 
HETATM   10  C   UNL     1      -5.752   3.326 -32.217  1.00  0.00     0.064 C 
HETATM   11  H   UNL     1      -8.234   3.558 -34.341  1.00  0.00     0.184 HD
ENDROOT
BRANCH  10  12
HETATM   12  C   UNL     1      -4.601   4.034 -31.599  1.00  0.00     0.257 C 
HETATM   13  N   UNL     1      -3.486   4.062 -32.401  1.00  0.00    -0.308 N 
HETATM   14  H   UNL     1      -3.509   3.531 -33.258  1.00  0.00     0.170 HD
HETATM   15  O   UNL     1      -4.738   4.471 -30.464  1.00  0.00    -0.267 OA
BRANCH  13  16
HETATM   16  C   UNL     1      -2.319   4.788 -32.128  1.00  0.00     0.129 A 
HETATM   17  N   UNL     1      -1.436   4.349 -31.215  1.00  0.00    -0.243 NA
HETATM   18  C   UNL     1      -0.345   5.105 -30.968  1.00  0.00     0.119 A 
HETATM   19  C   UNL     1      -0.092   6.314 -31.589  1.00  0.00     0.019 A 
HETATM   20  C   UNL     1      -1.012   6.765 -32.525  1.00  0.00     0.005 A 
HETATM   21  C   UNL     1      -2.138   5.992 -32.805  1.00  0.00     0.050 A 
ENDBRANCH  13  16
ENDBRANCH  10  12
BRANCH   9  22
HETATM   22  C   UNL     1      -5.001   0.937 -31.812  1.00  0.00     0.064 A 
HETATM   23  N   UNL     1      -4.080   0.684 -30.838  1.00  0.00    -0.263 NA
HETATM   24  C   UNL     1      -3.101  -0.204 -31.122  1.00  0.00     0.117 A 
HETATM   25  C   UNL     1      -2.989  -0.872 -32.329  1.00  0.00     0.019 A 
HETATM   26  C   UNL     1      -3.939  -0.618 -33.310  1.00  0.00     0.003 A 
HETATM   27  C   UNL     1      -4.955   0.298 -33.054  1.00  0.00     0.030 A 
ENDBRANCH   9  22
TORSDOF 3
ENDMDL
MODEL 5
REMARK VINA RESULT:      -7.4      2.359      5.590
REMARK  3 active torsions:
REMARK  status: ('A' for Active; 'I' for Inactive)
REMARK    1  A    between atoms: C_9  and  C_10 
REMARK    2  A    between atoms: C_16  and  C_17 
REMARK       I    between atoms: C_17  and  N_18 
REMARK    3  A    between atoms: N_18  and  C_19 
ROOT
HETATM    1  C   UNL     1      -8.360   3.991 -29.997  1.00  0.00     0.070 C 
HETATM    2  C   UNL     1      -7.600   3.796 -31.284  1.00  0.00     0.037 C 
HETATM    3  N   UNL     1      -6.389   4.477 -31.377  1.00  0.00    -0.192 N 
HETATM    4  C   UNL     1      -5.715   4.612 -32.535  1.00  0.00     0.725 A 
HETATM    5  N   UNL     1      -6.131   3.920 -33.641  1.00  0.00    -0.082 N 
HETATM    6  N   UNL     1      -5.435   4.290 -34.741  1.00  0.00    -0.149 NA
HETATM    7  C   UNL     1      -4.563   5.150 -34.199  1.00  0.00     0.275 A 
HETATM    8  N   UNL     1      -4.700   5.376 -32.855  1.00  0.00    -0.054 NA
HETATM    9  C   UNL     1      -7.268   3.000 -33.653  1.00  0.00     0.221 C 
HETATM   10  C   UNL     1      -8.044   3.076 -32.344  1.00  0.00     0.064 C 
HETATM   11  H   UNL     1      -6.124   5.074 -30.599  1.00  0.00     0.184 HD
ENDROOT
BRANCH  10  12
HETATM   12  C   UNL     1      -9.356   2.379 -32.399  1.00  0.00     0.257 C 
HETATM   13  N   UNL     1     -10.317   3.081 -33.085  1.00  0.00    -0.308 N 
HETATM   14  H   UNL     1     -10.090   4.017 -33.388  1.00  0.00     0.170 HD
HETATM   15  O   UNL     1      -9.461   1.308 -31.816  1.00  0.00    -0.267 OA
BRANCH  13  16
HETATM   16  C   UNL     1     -11.588   2.592 -33.413  1.00  0.00     0.129 A 
HETATM   17  N   UNL     1     -12.670   2.965 -32.709  1.00  0.00    -0.243 NA
HETATM   18  C   UNL     1     -13.865   2.437 -33.047  1.00  0.00     0.119 A 
HETATM   19  C   UNL     1     -14.038   1.520 -34.068  1.00  0.00     0.019 A 
HETATM   20  C   UNL     1     -12.915   1.132 -34.786  1.00  0.00     0.005 A 
HETATM   21  C   UNL     1     -11.674   1.678 -34.460  1.00  0.00     0.050 A 
ENDBRANCH  13  16
ENDBRANCH  10  12
BRANCH   9  22
HETATM   22  C   UNL     1      -6.753   1.596 -33.950  1.00  0.00     0.064 A 
HETATM   23  N   UNL     1      -7.317   0.899 -34.978  1.00  0.00    -0.263 NA
HETATM   24  C   UNL     1      -6.895  -0.371 -35.175  1.00  0.00     0.117 A 
HETATM   25  C   UNL     1      -5.924  -0.991 -34.407  1.00  0.00     0.019 A 
HETATM   26  C   UNL     1      -5.346  -0.269 -33.372  1.00  0.00     0.003 A 
HETATM   27  C   UNL     1      -5.764   1.037 -33.135  1.00  0.00     0.030 A 
ENDBRANCH   9  22
TORSDOF 3
ENDMDL
MODEL 6
REMARK VINA RESULT:      -7.3      2.377      5.705
REMARK  3 active torsions:
REMARK  status: ('A' for Active; 'I' for Inactive)
REMARK    1  A    between atoms: C_9  and  C_10 
REMARK    2  A    between atoms: C_16  and  C_17 
REMARK       I    between atoms: C_17  and  N_18 
REMARK    3  A    between atoms: N_18  and  C_19 
ROOT
HETATM    1  C   UNL     1      -9.109   5.356 -34.315  1.00  0.00     0.070 C 
HETATM    2  C   UNL     1      -9.464   3.912 -34.066  1.00  0.00     0.037 C 
HETATM    3  N   UNL     1     -10.614   3.456 -34.703  1.00  0.00    -0.192 N 
HETATM    4  C   UNL     1     -11.205   2.285 -34.395  1.00  0.00     0.725 A 
HETATM    5  N   UNL     1     -10.574   1.417 -33.544  1.00  0.00    -0.082 N 
HETATM    6  N   UNL     1     -11.373   0.370 -33.232  1.00  0.00    -0.149 NA
HETATM    7  C   UNL     1     -12.437   0.639 -33.999  1.00  0.00     0.275 A 
HETATM    8  N   UNL     1     -12.376   1.801 -34.724  1.00  0.00    -0.054 NA
HETATM    9  C   UNL     1      -9.260   1.661 -32.949  1.00  0.00     0.221 C 
HETATM   10  C   UNL     1      -8.789   3.082 -33.231  1.00  0.00     0.064 C 
HETATM   11  H   UNL     1     -11.143   4.125 -35.256  1.00  0.00     0.184 HD
ENDROOT
BRANCH  10  12
HETATM   12  C   UNL     1      -7.603   3.477 -32.428  1.00  0.00     0.257 C 
HETATM   13  N   UNL     1      -6.410   3.127 -33.011  1.00  0.00    -0.308 N 
HETATM   14  H   UNL     1      -6.442   2.561 -33.846  1.00  0.00     0.170 HD
HETATM   15  O   UNL     1      -7.796   4.020 -31.349  1.00  0.00    -0.267 OA
BRANCH  13  16
HETATM   16  C   UNL     1      -5.145   3.509 -32.544  1.00  0.00     0.129 A 
HETATM   17  N   UNL     1      -4.684   4.753 -32.754  1.00  0.00    -0.243 NA
HETATM   18  C   UNL     1      -3.445   5.058 -32.311  1.00  0.00     0.119 A 
HETATM   19  C   UNL     1      -2.616   4.156 -31.669  1.00  0.00     0.019 A 
HETATM   20  C   UNL     1      -3.096   2.870 -31.463  1.00  0.00     0.005 A 
HETATM   21  C   UNL     1      -4.379   2.541 -31.900  1.00  0.00     0.050 A 
ENDBRANCH  13  16
ENDBRANCH  10  12
BRANCH   9  22
HETATM   22  C   UNL     1      -8.289   0.607 -33.469  1.00  0.00     0.064 A 
HETATM   23  N   UNL     1      -7.505  -0.056 -32.571  1.00  0.00    -0.263 NA
HETATM   24  C   UNL     1      -6.600  -0.933 -33.062  1.00  0.00     0.117 A 
HETATM   25  C   UNL     1      -6.436  -1.202 -34.410  1.00  0.00     0.019 A 
HETATM   26  C   UNL     1      -7.249  -0.533 -35.315  1.00  0.00     0.003 A 
HETATM   27  C   UNL     1      -8.184   0.384 -34.845  1.00  0.00     0.030 A 
ENDBRANCH   9  22
TORSDOF 3
ENDMDL
MODEL 7
REMARK VINA RESULT:      -7.2      8.019     11.109
REMARK  3 active torsions:
REMARK  status: ('A' for Active; 'I' for Inactive)
REMARK    1  A    between atoms: C_9  and  C_10 
REMARK    2  A    between atoms: C_16  and  C_17 
REMARK       I    between atoms: C_17  and  N_18 
REMARK    3  A    between atoms: N_18  and  C_19 
ROOT
HETATM    1  C   UNL     1       0.963   4.669 -29.532  1.00  0.00     0.070 C 
HETATM    2  C   UNL     1       0.003   5.619 -30.202  1.00  0.00     0.037 C 
HETATM    3  N   UNL     1      -0.297   5.334 -31.531  1.00  0.00    -0.192 N 
HETATM    4  C   UNL     1      -0.929   6.205 -32.341  1.00  0.00     0.725 A 
HETATM    5  N   UNL     1      -1.454   7.355 -31.813  1.00  0.00    -0.082 N 
HETATM    6  N   UNL     1      -1.914   8.175 -32.786  1.00  0.00    -0.149 NA
HETATM    7  C   UNL     1      -1.704   7.413 -33.867  1.00  0.00     0.275 A 
HETATM    8  N   UNL     1      -1.102   6.202 -33.639  1.00  0.00    -0.054 NA
HETATM    9  C   UNL     1      -1.401   7.704 -30.393  1.00  0.00     0.221 C 
HETATM   10  C   UNL     1      -0.513   6.734 -29.626  1.00  0.00     0.064 C 
HETATM   11  H   UNL     1       0.169   4.539 -31.959  1.00  0.00     0.184 HD
ENDROOT
BRANCH  10  12
HETATM   12  C   UNL     1      -0.198   7.191 -28.247  1.00  0.00     0.257 C 
HETATM   13  N   UNL     1       0.828   8.103 -28.197  1.00  0.00    -0.308 N 
HETATM   14  H   UNL     1       1.330   8.295 -29.052  1.00  0.00     0.170 HD
HETATM   15  O   UNL     1      -0.831   6.701 -27.322  1.00  0.00    -0.267 OA
BRANCH  13  16
HETATM   16  C   UNL     1       1.225   8.803 -27.050  1.00  0.00     0.129 A 
HETATM   17  N   UNL     1       0.836  10.074 -26.853  1.00  0.00    -0.243 NA
HETATM   18  C   UNL     1       1.275  10.712 -25.747  1.00  0.00     0.119 A 
HETATM   19  C   UNL     1       2.116  10.136 -24.812  1.00  0.00     0.019 A 
HETATM   20  C   UNL     1       2.520   8.826 -25.026  1.00  0.00     0.005 A 
HETATM   21  C   UNL     1       2.066   8.146 -26.155  1.00  0.00     0.050 A 
ENDBRANCH  13  16
ENDBRANCH  10  12
BRANCH   9  22
HETATM   22  C   UNL     1      -2.826   7.749 -29.852  1.00  0.00     0.064 A 
HETATM   23  N   UNL     1      -3.266   8.901 -29.268  1.00  0.00    -0.263 NA
HETATM   24  C   UNL     1      -4.506   8.893 -28.730  1.00  0.00     0.117 A 
HETATM   25  C   UNL     1      -5.350   7.796 -28.750  1.00  0.00     0.019 A 
HETATM   26  C   UNL     1      -4.900   6.633 -29.358  1.00  0.00     0.003 A 
HETATM   27  C   UNL     1      -3.624   6.603 -29.914  1.00  0.00     0.030 A 
ENDBRANCH   9  22
TORSDOF 3
ENDMDL
MODEL 8
REMARK VINA RESULT:      -7.2      3.280      6.760
REMARK  3 active torsions:
REMARK  status: ('A' for Active; 'I' for Inactive)
REMARK    1  A    between atoms: C_9  and  C_10 
REMARK    2  A    between atoms: C_16  and  C_17 
REMARK       I    between atoms: C_17  and  N_18 
REMARK    3  A    between atoms: N_18  and  C_19 
ROOT
HETATM    1  C   UNL     1      -3.020   0.533 -31.204  1.00  0.00     0.070 C 
HETATM    2  C   UNL     1      -4.305   1.313 -31.319  1.00  0.00     0.037 C 
HETATM    3  N   UNL     1      -5.470   0.595 -31.063  1.00  0.00    -0.192 N 
HETATM    4  C   UNL     1      -6.697   1.064 -31.360  1.00  0.00     0.725 A 
HETATM    5  N   UNL     1      -6.839   2.361 -31.775  1.00  0.00    -0.082 N 
HETATM    6  N   UNL     1      -8.108   2.613 -32.171  1.00  0.00    -0.149 NA
HETATM    7  C   UNL     1      -8.689   1.440 -31.887  1.00  0.00     0.275 A 
HETATM    8  N   UNL     1      -7.862   0.466 -31.391  1.00  0.00    -0.054 NA
HETATM    9  C   UNL     1      -5.731   3.309 -31.899  1.00  0.00     0.221 C 
HETATM   10  C   UNL     1      -4.391   2.609 -31.710  1.00  0.00     0.064 C 
HETATM   11  H   UNL     1      -5.376  -0.395 -30.853  1.00  0.00     0.184 HD
ENDROOT
BRANCH  10  12
HETATM   12  C   UNL     1      -3.230   3.451 -32.095  1.00  0.00     0.257 C 
HETATM   13  N   UNL     1      -2.769   4.244 -31.073  1.00  0.00    -0.308 N 
HETATM   14  H   UNL     1      -3.303   4.265 -30.216  1.00  0.00     0.170 HD
HETATM   15  O   UNL     1      -2.835   3.390 -33.252  1.00  0.00    -0.267 OA
BRANCH  13  16
HETATM   16  C   UNL     1      -1.602   5.018 -31.120  1.00  0.00     0.129 A 
HETATM   17  N   UNL     1      -0.433   4.524 -30.677  1.00  0.00    -0.243 NA
HETATM   18  C   UNL     1       0.653   5.325 -30.715  1.00  0.00     0.119 A 
HETATM   19  C   UNL     1       0.629   6.631 -31.169  1.00  0.00     0.019 A 
HETATM   20  C   UNL     1      -0.584   7.137 -31.617  1.00  0.00     0.005 A 
HETATM   21  C   UNL     1      -1.714   6.321 -31.599  1.00  0.00     0.050 A 
ENDBRANCH  13  16
ENDBRANCH  10  12
BRANCH   9  22
HETATM   22  C   UNL     1      -5.948   4.442 -30.902  1.00  0.00     0.064 A 
HETATM   23  N   UNL     1      -5.731   4.194 -29.578  1.00  0.00    -0.263 NA
HETATM   24  C   UNL     1      -6.000   5.192 -28.706  1.00  0.00     0.117 A 
HETATM   25  C   UNL     1      -6.466   6.441 -29.079  1.00  0.00     0.019 A 
HETATM   26  C   UNL     1      -6.670   6.688 -30.430  1.00  0.00     0.003 A 
HETATM   27  C   UNL     1      -6.412   5.680 -31.354  1.00  0.00     0.030 A 
ENDBRANCH   9  22
TORSDOF 3
ENDMDL
MODEL 9
REMARK VINA RESULT:      -7.2      2.570      6.150
REMARK  3 active torsions:
REMARK  status: ('A' for Active; 'I' for Inactive)
REMARK    1  A    between atoms: C_9  and  C_10 
REMARK    2  A    between atoms: C_16  and  C_17 
REMARK       I    between atoms: C_17  and  N_18 
REMARK    3  A    between atoms: N_18  and  C_19 
ROOT
HETATM    1  C   UNL     1      -2.850   0.177 -31.130  1.00  0.00     0.070 C 
HETATM    2  C   UNL     1      -4.049   0.150 -32.043  1.00  0.00     0.037 C 
HETATM    3  N   UNL     1      -4.457  -1.112 -32.465  1.00  0.00    -0.192 N 
HETATM    4  C   UNL     1      -5.340  -1.298 -33.465  1.00  0.00     0.725 A 
HETATM    5  N   UNL     1      -6.002  -0.219 -33.988  1.00  0.00    -0.082 N 
HETATM    6  N   UNL     1      -6.729  -0.569 -35.074  1.00  0.00    -0.149 NA
HETATM    7  C   UNL     1      -6.518  -1.891 -35.092  1.00  0.00     0.275 A 
HETATM    8  N   UNL     1      -5.674  -2.377 -34.127  1.00  0.00    -0.054 NA
HETATM    9  C   UNL     1      -5.836   1.155 -33.511  1.00  0.00     0.221 C 
HETATM   10  C   UNL     1      -4.689   1.251 -32.513  1.00  0.00     0.064 C 
HETATM   11  H   UNL     1      -3.907  -1.911 -32.161  1.00  0.00     0.184 HD
ENDROOT
BRANCH  10  12
HETATM   12  C   UNL     1      -4.293   2.650 -32.207  1.00  0.00     0.257 C 
HETATM   13  N   UNL     1      -3.163   3.055 -32.875  1.00  0.00    -0.308 N 
HETATM   14  H   UNL     1      -2.660   2.363 -33.411  1.00  0.00     0.170 HD
HETATM   15  O   UNL     1      -4.962   3.269 -31.390  1.00  0.00    -0.267 OA
BRANCH  13  16
HETATM   16  C   UNL     1      -2.661   4.363 -32.884  1.00  0.00     0.129 A 
HETATM   17  N   UNL     1      -3.273   5.327 -33.591  1.00  0.00    -0.243 NA
HETATM   18  C   UNL     1      -2.728   6.562 -33.592  1.00  0.00     0.119 A 
HETATM   19  C   UNL     1      -1.565   6.888 -32.918  1.00  0.00     0.019 A 
HETATM   20  C   UNL     1      -0.934   5.885 -32.195  1.00  0.00     0.005 A 
HETATM   21  C   UNL     1      -1.489   4.606 -32.171  1.00  0.00     0.050 A 
ENDBRANCH  13  16
ENDBRANCH  10  12
BRANCH   9  22
HETATM   22  C   UNL     1      -7.162   1.630 -32.928  1.00  0.00     0.064 A 
HETATM   23  N   UNL     1      -7.723   2.768 -33.429  1.00  0.00    -0.263 NA
HETATM   24  C   UNL     1      -8.861   3.209 -32.847  1.00  0.00     0.117 A 
HETATM   25  C   UNL     1      -9.488   2.570 -31.791  1.00  0.00     0.019 A 
HETATM   26  C   UNL     1      -8.917   1.405 -31.297  1.00  0.00     0.003 A 
HETATM   27  C   UNL     1      -7.740   0.928 -31.866  1.00  0.00     0.030 A 
ENDBRANCH   9  22
TORSDOF 3
ENDMDL
MODEL 10
REMARK VINA RESULT:      -7.1     15.327     18.010
REMARK  3 active torsions:
REMARK  status: ('A' for Active; 'I' for Inactive)
REMARK    1  A    between atoms: C_9  and  C_10 
REMARK    2  A    between atoms: C_16  and  C_17 
REMARK       I    between atoms: C_17  and  N_18 
REMARK    3  A    between atoms: N_18  and  C_19 
ROOT
HETATM    1  C   UNL     1      -2.846 -14.447 -35.913  1.00  0.00     0.070 C 
HETATM    2  C   UNL     1      -1.949 -14.530 -37.122  1.00  0.00     0.037 C 
HETATM    3  N   UNL     1      -0.760 -15.232 -36.943  1.00  0.00    -0.192 N 
HETATM    4  C   UNL     1       0.253 -15.191 -37.830  1.00  0.00     0.725 A 
HETATM    5  N   UNL     1       0.064 -14.576 -39.039  1.00  0.00    -0.082 N 
HETATM    6  N   UNL     1       1.222 -14.498 -39.734  1.00  0.00    -0.149 NA
HETATM    7  C   UNL     1       2.045 -15.160 -38.912  1.00  0.00     0.275 A 
HETATM    8  N   UNL     1       1.493 -15.599 -37.737  1.00  0.00    -0.054 NA
HETATM    9  C   UNL     1      -1.197 -13.967 -39.462  1.00  0.00     0.221 C 
HETATM   10  C   UNL     1      -2.194 -13.923 -38.310  1.00  0.00     0.064 C 
HETATM   11  H   UNL     1      -0.568 -15.605 -36.017  1.00  0.00     0.184 HD
ENDROOT
BRANCH  10  12
HETATM   12  C   UNL     1      -3.381 -13.074 -38.594  1.00  0.00     0.257 C 
HETATM   13  N   UNL     1      -4.470 -13.789 -39.027  1.00  0.00    -0.308 N 
HETATM   14  H   UNL     1      -4.345 -14.774 -39.210  1.00  0.00     0.170 HD
HETATM   15  O   UNL     1      -3.265 -11.864 -38.458  1.00  0.00    -0.267 OA
BRANCH  13  16
HETATM   16  C   UNL     1      -5.753 -13.260 -39.220  1.00  0.00     0.129 A 
HETATM   17  N   UNL     1      -6.617 -13.163 -38.195  1.00  0.00    -0.243 NA
HETATM   18  C   UNL     1      -7.851 -12.676 -38.445  1.00  0.00     0.119 A 
HETATM   19  C   UNL     1      -8.283 -12.286 -39.699  1.00  0.00     0.019 A 
HETATM   20  C   UNL     1      -7.388 -12.395 -40.754  1.00  0.00     0.005 A 
HETATM   21  C   UNL     1      -6.104 -12.883 -40.514  1.00  0.00     0.050 A 
ENDBRANCH  13  16
ENDBRANCH  10  12
BRANCH   9  22
HETATM   22  C   UNL     1      -1.727 -14.735 -40.668  1.00  0.00     0.064 A 
HETATM   23  N   UNL     1      -2.520 -14.078 -41.562  1.00  0.00    -0.263 NA
HETATM   24  C   UNL     1      -3.037 -14.798 -42.582  1.00  0.00     0.117 A 
HETATM   25  C   UNL     1      -2.799 -16.148 -42.775  1.00  0.00     0.019 A 
HETATM   26  C   UNL     1      -1.978 -16.805 -41.868  1.00  0.00     0.003 A 
HETATM   27  C   UNL     1      -1.437 -16.096 -40.800  1.00  0.00     0.030 A 
ENDBRANCH   9  22
TORSDOF 3
ENDMDL
