MODEL 1
REMARK VINA RESULT:      -7.8      0.000      0.000
REMARK  6 active torsions:
REMARK  status: ('A' for Active; 'I' for Inactive)
REMARK    1  A    between atoms: C_2  and  N_3 
REMARK    2  A    between atoms: C_2  and  C_21 
REMARK       I    between atoms: N_3  and  C_4 
REMARK       I    between atoms: C_4  and  N_5 
REMARK    3  A    between atoms: N_5  and  C_6 
REMARK    4  A    between atoms: C_9  and  O_10 
REMARK    5  A    between atoms: O_10  and  C_11 
REMARK    6  A    between atoms: C_11  and  C_12 
ROOT
HETATM    1  C   UNL     1      -8.048   1.679 -32.615  1.00  0.00     0.036 A 
HETATM    2  C   UNL     1      -6.894   2.219 -33.185  1.00  0.00     0.032 A 
HETATM    3  C   UNL     1      -5.683   1.513 -33.162  1.00  0.00     0.039 A 
HETATM    4  C   UNL     1      -5.609   0.257 -32.563  1.00  0.00     0.068 A 
HETATM    5  C   UNL     1      -6.759  -0.283 -31.985  1.00  0.00     0.039 A 
HETATM    6  C   UNL     1      -7.969   0.420 -32.009  1.00  0.00     0.032 A 
ENDROOT
BRANCH   1   7
HETATM    7  N   UNL     1      -9.292   2.339 -32.595  1.00  0.00    -0.309 N 
HETATM    8  C   UNL     1     -10.263   2.322 -33.572  1.00  0.00     0.321 C 
HETATM    9  N   UNL     1     -11.299   3.166 -33.262  1.00  0.00    -0.332 N 
HETATM   10  O   UNL     1     -10.259   1.652 -34.596  1.00  0.00    -0.247 OA
HETATM   11  H   UNL     1     -11.166   3.896 -32.576  1.00  0.00     0.165 HD
HETATM   12  H   UNL     1      -9.547   2.801 -31.736  1.00  0.00     0.170 HD
BRANCH   9  13
HETATM   13  C   UNL     1     -12.411   3.373 -34.184  1.00  0.00     0.155 C 
HETATM   14  C   UNL     1     -12.963   4.796 -34.076  1.00  0.00     0.041 C 
BRANCH  13  15
HETATM   15  C   UNL     1     -13.479   2.363 -33.861  1.00  0.00     0.169 A 
HETATM   16  N   UNL     1     -14.061   2.264 -32.656  1.00  0.00    -0.156 NA
HETATM   17  N   UNL     1     -14.913   1.246 -32.848  1.00  0.00    -0.270 N 
HETATM   18  H   UNL     1     -15.506   0.942 -32.084  1.00  0.00     0.190 HD
HETATM   19  C   UNL     1     -14.828   0.764 -34.116  1.00  0.00     0.227 A 
HETATM   20  N   UNL     1     -13.931   1.446 -34.789  1.00  0.00    -0.223 NA
ENDBRANCH  13  15
ENDBRANCH   9  13
ENDBRANCH   1   7
BRANCH   4  21
HETATM   21  O   UNL     1      -4.492  -0.527 -32.477  1.00  0.00    -0.351 OA
BRANCH  21  22
HETATM   22  C   UNL     1      -4.676  -1.929 -32.687  1.00  0.00     0.180 C 
BRANCH  22  23
HETATM   23  C   UNL     1      -4.520  -2.241 -34.187  1.00  0.00     0.010 C 
HETATM   24  C   UNL     1      -3.912  -3.636 -34.404  1.00  0.00     0.007 C 
HETATM   25  C   UNL     1      -4.893  -4.767 -34.095  1.00  0.00     0.000 C 
HETATM   26  C   UNL     1      -6.196  -4.609 -34.872  1.00  0.00     0.000 C 
HETATM   27  C   UNL     1      -6.827  -3.236 -34.660  1.00  0.00     0.000 C 
HETATM   28  C   UNL     1      -5.842  -2.108 -34.962  1.00  0.00     0.007 C 
ENDBRANCH  22  23
ENDBRANCH  21  22
ENDBRANCH   4  21
TORSDOF 6
ENDMDL
MODEL 2
REMARK VINA RESULT:      -7.7      5.828      8.934
REMARK  6 active torsions:
REMARK  status: ('A' for Active; 'I' for Inactive)
REMARK    1  A    between atoms: C_2  and  N_3 
REMARK    2  A    between atoms: C_2  and  C_21 
REMARK       I    between atoms: N_3  and  C_4 
REMARK       I    between atoms: C_4  and  N_5 
REMARK    3  A    between atoms: N_5  and  C_6 
REMARK    4  A    between atoms: C_9  and  O_10 
REMARK    5  A    between atoms: O_10  and  C_11 
REMARK    6  A    between atoms: C_11  and  C_12 
ROOT
HETATM    1  C   UNL     1      -3.969   2.595 -31.655  1.00  0.00     0.036 A 
HETATM    2  C   UNL     1      -3.528   1.279 -31.801  1.00  0.00     0.032 A 
HETATM    3  C   UNL     1      -4.320   0.324 -32.453  1.00  0.00     0.039 A 
HETATM    4  C   UNL     1      -5.569   0.672 -32.964  1.00  0.00     0.068 A 
HETATM    5  C   UNL     1      -6.017   1.985 -32.813  1.00  0.00     0.039 A 
HETATM    6  C   UNL     1      -5.226   2.940 -32.163  1.00  0.00     0.032 A 
ENDROOT
BRANCH   1   7
HETATM    7  N   UNL     1      -3.228   3.600 -31.002  1.00  0.00    -0.309 N 
HETATM    8  C   UNL     1      -2.230   4.383 -31.538  1.00  0.00     0.321 C 
HETATM    9  N   UNL     1      -1.655   5.182 -30.583  1.00  0.00    -0.332 N 
HETATM   10  O   UNL     1      -1.871   4.412 -32.707  1.00  0.00    -0.247 OA
HETATM   11  H   UNL     1      -1.766   4.958 -29.604  1.00  0.00     0.165 HD
HETATM   12  H   UNL     1      -3.517   3.842 -30.067  1.00  0.00     0.170 HD
BRANCH   9  13
HETATM   13  C   UNL     1      -0.522   6.047 -30.899  1.00  0.00     0.155 C 
HETATM   14  C   UNL     1       0.793   5.265 -30.883  1.00  0.00     0.041 C 
BRANCH  13  15
HETATM   15  C   UNL     1      -0.489   7.161 -29.888  1.00  0.00     0.169 A 
HETATM   16  N   UNL     1       0.542   7.375 -29.058  1.00  0.00    -0.156 NA
HETATM   17  N   UNL     1       0.115   8.440 -28.362  1.00  0.00    -0.270 N 
HETATM   18  H   UNL     1       0.710   8.834 -27.642  1.00  0.00     0.190 HD
HETATM   19  C   UNL     1      -1.122   8.830 -28.766  1.00  0.00     0.227 A 
HETATM   20  N   UNL     1      -1.539   8.045 -29.732  1.00  0.00    -0.223 NA
ENDBRANCH  13  15
ENDBRANCH   9  13
ENDBRANCH   1   7
BRANCH   4  21
HETATM   21  O   UNL     1      -6.431  -0.165 -33.617  1.00  0.00    -0.351 OA
BRANCH  21  22
HETATM   22  C   UNL     1      -6.196  -1.568 -33.470  1.00  0.00     0.180 C 
BRANCH  22  23
HETATM   23  C   UNL     1      -5.732  -2.148 -34.819  1.00  0.00     0.010 C 
HETATM   24  C   UNL     1      -4.284  -2.657 -34.735  1.00  0.00     0.007 C 
HETATM   25  C   UNL     1      -4.154  -3.953 -33.937  1.00  0.00     0.000 C 
HETATM   26  C   UNL     1      -5.087  -5.037 -34.468  1.00  0.00     0.000 C 
HETATM   27  C   UNL     1      -6.533  -4.561 -34.545  1.00  0.00     0.000 C 
HETATM   28  C   UNL     1      -6.660  -3.260 -35.337  1.00  0.00     0.007 C 
ENDBRANCH  22  23
ENDBRANCH  21  22
ENDBRANCH   4  21
TORSDOF 6
ENDMDL
MODEL 3
REMARK VINA RESULT:      -7.6      5.649      8.339
REMARK  6 active torsions:
REMARK  status: ('A' for Active; 'I' for Inactive)
REMARK    1  A    between atoms: C_2  and  N_3 
REMARK    2  A    between atoms: C_2  and  C_21 
REMARK       I    between atoms: N_3  and  C_4 
REMARK       I    between atoms: C_4  and  N_5 
REMARK    3  A    between atoms: N_5  and  C_6 
REMARK    4  A    between atoms: C_9  and  O_10 
REMARK    5  A    between atoms: O_10  and  C_11 
REMARK    6  A    between atoms: C_11  and  C_12 
ROOT
HETATM    1  C   UNL     1      -4.277   2.745 -31.182  1.00  0.00     0.036 A 
HETATM    2  C   UNL     1      -5.610   2.648 -31.582  1.00  0.00     0.032 A 
HETATM    3  C   UNL     1      -6.147   1.423 -32.002  1.00  0.00     0.039 A 
HETATM    4  C   UNL     1      -5.355   0.277 -32.030  1.00  0.00     0.068 A 
HETATM    5  C   UNL     1      -4.019   0.372 -31.638  1.00  0.00     0.039 A 
HETATM    6  C   UNL     1      -3.482   1.594 -31.217  1.00  0.00     0.032 A 
ENDROOT
BRANCH   1   7
HETATM    7  N   UNL     1      -3.673   3.946 -30.760  1.00  0.00    -0.309 N 
HETATM    8  C   UNL     1      -2.859   4.776 -31.498  1.00  0.00     0.321 C 
HETATM    9  N   UNL     1      -2.363   5.800 -30.731  1.00  0.00    -0.332 N 
HETATM   10  O   UNL     1      -2.588   4.669 -32.686  1.00  0.00    -0.247 OA
HETATM   11  H   UNL     1      -2.369   5.724 -29.724  1.00  0.00     0.165 HD
HETATM   12  H   UNL     1      -3.935   4.290 -29.849  1.00  0.00     0.170 HD
BRANCH   9  13
HETATM   13  C   UNL     1      -1.415   6.767 -31.278  1.00  0.00     0.155 C 
HETATM   14  C   UNL     1       0.026   6.386 -30.932  1.00  0.00     0.041 C 
BRANCH  13  15
HETATM   15  C   UNL     1      -1.755   8.121 -30.718  1.00  0.00     0.169 A 
HETATM   16  N   UNL     1      -1.490   8.486 -29.455  1.00  0.00    -0.156 NA
HETATM   17  N   UNL     1      -1.972   9.738 -29.425  1.00  0.00    -0.270 N 
HETATM   18  H   UNL     1      -1.904  10.277 -28.570  1.00  0.00     0.190 HD
HETATM   19  C   UNL     1      -2.504  10.089 -30.625  1.00  0.00     0.227 A 
HETATM   20  N   UNL     1      -2.386   9.093 -31.470  1.00  0.00    -0.223 NA
ENDBRANCH  13  15
ENDBRANCH   9  13
ENDBRANCH   1   7
BRANCH   4  21
HETATM   21  O   UNL     1      -5.760  -0.970 -32.417  1.00  0.00    -0.351 OA
BRANCH  21  22
HETATM   22  C   UNL     1      -4.731  -1.893 -32.782  1.00  0.00     0.180 C 
BRANCH  22  23
HETATM   23  C   UNL     1      -4.751  -2.097 -34.308  1.00  0.00     0.010 C 
HETATM   24  C   UNL     1      -4.071  -3.418 -34.700  1.00  0.00     0.007 C 
HETATM   25  C   UNL     1      -4.911  -4.647 -34.352  1.00  0.00     0.000 C 
HETATM   26  C   UNL     1      -6.314  -4.555 -34.943  1.00  0.00     0.000 C 
HETATM   27  C   UNL     1      -7.016  -3.258 -34.554  1.00  0.00     0.000 C 
HETATM   28  C   UNL     1      -6.171  -2.032 -34.897  1.00  0.00     0.007 C 
ENDBRANCH  22  23
ENDBRANCH  21  22
ENDBRANCH   4  21
TORSDOF 6
ENDMDL
MODEL 4
REMARK VINA RESULT:      -7.3      6.097      8.922
REMARK  6 active torsions:
REMARK  status: ('A' for Active; 'I' for Inactive)
REMARK    1  A    between atoms: C_2  and  N_3 
REMARK    2  A    between atoms: C_2  and  C_21 
REMARK       I    between atoms: N_3  and  C_4 
REMARK       I    between atoms: C_4  and  N_5 
REMARK    3  A    between atoms: N_5  and  C_6 
REMARK    4  A    between atoms: C_9  and  O_10 
REMARK    5  A    between atoms: O_10  and  C_11 
REMARK    6  A    between atoms: C_11  and  C_12 
ROOT
HETATM    1  C   UNL     1      -3.401   4.229 -32.640  1.00  0.00     0.036 A 
HETATM    2  C   UNL     1      -2.283   4.440 -33.447  1.00  0.00     0.032 A 
HETATM    3  C   UNL     1      -1.216   5.234 -33.004  1.00  0.00     0.039 A 
HETATM    4  C   UNL     1      -1.257   5.834 -31.746  1.00  0.00     0.068 A 
HETATM    5  C   UNL     1      -2.377   5.632 -30.939  1.00  0.00     0.039 A 
HETATM    6  C   UNL     1      -3.442   4.837 -31.380  1.00  0.00     0.032 A 
ENDROOT
BRANCH   1   7
HETATM    7  N   UNL     1      -4.510   3.452 -33.028  1.00  0.00    -0.309 N 
HETATM    8  C   UNL     1      -4.785   2.151 -32.669  1.00  0.00     0.321 C 
HETATM    9  N   UNL     1      -5.895   1.677 -33.322  1.00  0.00    -0.332 N 
HETATM   10  O   UNL     1      -4.162   1.464 -31.871  1.00  0.00    -0.247 OA
HETATM   11  H   UNL     1      -6.226   2.140 -34.156  1.00  0.00     0.165 HD
HETATM   12  H   UNL     1      -5.233   3.922 -33.551  1.00  0.00     0.170 HD
BRANCH   9  13
HETATM   13  C   UNL     1      -6.338   0.295 -33.159  1.00  0.00     0.155 C 
HETATM   14  C   UNL     1      -6.278  -0.465 -34.485  1.00  0.00     0.041 C 
BRANCH  13  15
HETATM   15  C   UNL     1      -7.744   0.317 -32.622  1.00  0.00     0.169 A 
HETATM   16  N   UNL     1      -8.048   0.670 -31.365  1.00  0.00    -0.156 NA
HETATM   17  N   UNL     1      -9.382   0.527 -31.357  1.00  0.00    -0.270 N 
HETATM   18  H   UNL     1      -9.900   0.733 -30.510  1.00  0.00     0.190 HD
HETATM   19  C   UNL     1      -9.839   0.099 -32.563  1.00  0.00     0.227 A 
HETATM   20  N   UNL     1      -8.832  -0.045 -33.391  1.00  0.00    -0.223 NA
ENDBRANCH  13  15
ENDBRANCH   9  13
ENDBRANCH   1   7
BRANCH   4  21
HETATM   21  O   UNL     1      -0.284   6.627 -31.203  1.00  0.00    -0.351 OA
BRANCH  21  22
HETATM   22  C   UNL     1       0.187   6.262 -29.902  1.00  0.00     0.180 C 
BRANCH  22  23
HETATM   23  C   UNL     1       0.436   7.539 -29.078  1.00  0.00     0.010 C 
HETATM   24  C   UNL     1      -0.846   8.378 -28.954  1.00  0.00     0.007 C 
HETATM   25  C   UNL     1      -1.873   7.759 -28.007  1.00  0.00     0.000 C 
HETATM   26  C   UNL     1      -1.271   7.470 -26.635  1.00  0.00     0.000 C 
HETATM   27  C   UNL     1      -0.005   6.625 -26.731  1.00  0.00     0.000 C 
HETATM   28  C   UNL     1       1.017   7.241 -27.685  1.00  0.00     0.007 C 
ENDBRANCH  22  23
ENDBRANCH  21  22
ENDBRANCH   4  21
TORSDOF 6
ENDMDL
MODEL 5
REMARK VINA RESULT:      -7.2      5.625      8.011
REMARK  6 active torsions:
REMARK  status: ('A' for Active; 'I' for Inactive)
REMARK    1  A    between atoms: C_2  and  N_3 
REMARK    2  A    between atoms: C_2  and  C_21 
REMARK       I    between atoms: N_3  and  C_4 
REMARK       I    between atoms: C_4  and  N_5 
REMARK    3  A    between atoms: N_5  and  C_6 
REMARK    4  A    between atoms: C_9  and  O_10 
REMARK    5  A    between atoms: O_10  and  C_11 
REMARK    6  A    between atoms: C_11  and  C_12 
ROOT
HETATM    1  C   UNL     1      -4.661   5.188 -33.697  1.00  0.00     0.036 A 
HETATM    2  C   UNL     1      -3.505   5.444 -34.435  1.00  0.00     0.032 A 
HETATM    3  C   UNL     1      -2.532   6.334 -33.961  1.00  0.00     0.039 A 
HETATM    4  C   UNL     1      -2.705   6.986 -32.742  1.00  0.00     0.068 A 
HETATM    5  C   UNL     1      -3.863   6.740 -32.005  1.00  0.00     0.039 A 
HETATM    6  C   UNL     1      -4.836   5.849 -32.476  1.00  0.00     0.032 A 
ENDROOT
BRANCH   1   7
HETATM    7  N   UNL     1      -5.681   4.314 -34.121  1.00  0.00    -0.309 N 
HETATM    8  C   UNL     1      -5.937   3.043 -33.658  1.00  0.00     0.321 C 
HETATM    9  N   UNL     1      -6.942   2.443 -34.374  1.00  0.00    -0.332 N 
HETATM   10  O   UNL     1      -5.381   2.477 -32.727  1.00  0.00    -0.247 OA
HETATM   11  H   UNL     1      -7.195   2.800 -35.285  1.00  0.00     0.165 HD
HETATM   12  H   UNL     1      -6.360   4.687 -34.767  1.00  0.00     0.170 HD
BRANCH   9  13
HETATM   13  C   UNL     1      -7.339   1.062 -34.115  1.00  0.00     0.155 C 
HETATM   14  C   UNL     1      -7.100   0.178 -35.340  1.00  0.00     0.041 C 
BRANCH  13  15
HETATM   15  C   UNL     1      -8.795   1.059 -33.734  1.00  0.00     0.169 A 
HETATM   16  N   UNL     1      -9.333   0.173 -32.883  1.00  0.00    -0.156 NA
HETATM   17  N   UNL     1     -10.619   0.556 -32.869  1.00  0.00    -0.270 N 
HETATM   18  H   UNL     1     -11.282   0.051 -32.291  1.00  0.00     0.190 HD
HETATM   19  C   UNL     1     -10.825   1.622 -33.686  1.00  0.00     0.227 A 
HETATM   20  N   UNL     1      -9.694   1.970 -34.252  1.00  0.00    -0.223 NA
ENDBRANCH  13  15
ENDBRANCH   9  13
ENDBRANCH   1   7
BRANCH   4  21
HETATM   21  O   UNL     1      -1.832   7.873 -32.175  1.00  0.00    -0.351 OA
BRANCH  21  22
HETATM   22  C   UNL     1      -1.540   7.685 -30.787  1.00  0.00     0.180 C 
BRANCH  22  23
HETATM   23  C   UNL     1      -0.013   7.656 -30.590  1.00  0.00     0.010 C 
HETATM   24  C   UNL     1       0.352   7.437 -29.114  1.00  0.00     0.007 C 
HETATM   25  C   UNL     1       0.090   6.008 -28.641  1.00  0.00     0.000 C 
HETATM   26  C   UNL     1       0.784   4.985 -29.536  1.00  0.00     0.000 C 
HETATM   27  C   UNL     1       0.425   5.172 -31.006  1.00  0.00     0.000 C 
HETATM   28  C   UNL     1       0.679   6.605 -31.473  1.00  0.00     0.007 C 
ENDBRANCH  22  23
ENDBRANCH  21  22
ENDBRANCH   4  21
TORSDOF 6
ENDMDL
MODEL 6
REMARK VINA RESULT:      -7.1      6.396      9.485
REMARK  6 active torsions:
REMARK  status: ('A' for Active; 'I' for Inactive)
REMARK    1  A    between atoms: C_2  and  N_3 
REMARK    2  A    between atoms: C_2  and  C_21 
REMARK       I    between atoms: N_3  and  C_4 
REMARK       I    between atoms: C_4  and  N_5 
REMARK    3  A    between atoms: N_5  and  C_6 
REMARK    4  A    between atoms: C_9  and  O_10 
REMARK    5  A    between atoms: O_10  and  C_11 
REMARK    6  A    between atoms: C_11  and  C_12 
ROOT
HETATM    1  C   UNL     1      -4.390   4.226 -31.553  1.00  0.00     0.036 A 
HETATM    2  C   UNL     1      -4.712   4.468 -32.889  1.00  0.00     0.032 A 
HETATM    3  C   UNL     1      -5.547   3.592 -33.596  1.00  0.00     0.039 A 
HETATM    4  C   UNL     1      -6.068   2.458 -32.977  1.00  0.00     0.068 A 
HETATM    5  C   UNL     1      -5.742   2.208 -31.643  1.00  0.00     0.039 A 
HETATM    6  C   UNL     1      -4.909   3.083 -30.935  1.00  0.00     0.032 A 
ENDROOT
BRANCH   1   7
HETATM    7  N   UNL     1      -3.550   5.059 -30.788  1.00  0.00    -0.309 N 
HETATM    8  C   UNL     1      -2.215   5.323 -31.003  1.00  0.00     0.321 C 
HETATM    9  N   UNL     1      -1.690   6.094 -29.997  1.00  0.00    -0.332 N 
HETATM   10  O   UNL     1      -1.540   4.953 -31.953  1.00  0.00    -0.247 OA
HETATM   11  H   UNL     1      -2.168   6.158 -29.109  1.00  0.00     0.165 HD
HETATM   12  H   UNL     1      -3.988   5.599 -30.057  1.00  0.00     0.170 HD
BRANCH   9  13
HETATM   13  C   UNL     1      -0.272   6.441 -29.967  1.00  0.00     0.155 C 
HETATM   14  C   UNL     1       0.581   5.243 -29.547  1.00  0.00     0.041 C 
BRANCH  13  15
HETATM   15  C   UNL     1      -0.092   7.585 -29.006  1.00  0.00     0.169 A 
HETATM   16  N   UNL     1       1.078   7.877 -28.418  1.00  0.00    -0.156 NA
HETATM   17  N   UNL     1       0.746   8.938 -27.666  1.00  0.00    -0.270 N 
HETATM   18  H   UNL     1       1.456   9.385 -27.096  1.00  0.00     0.190 HD
HETATM   19  C   UNL     1      -0.569   9.250 -27.805  1.00  0.00     0.227 A 
HETATM   20  N   UNL     1      -1.134   8.416 -28.646  1.00  0.00    -0.223 NA
ENDBRANCH  13  15
ENDBRANCH   9  13
ENDBRANCH   1   7
BRANCH   4  21
HETATM   21  O   UNL     1      -6.890   1.532 -33.557  1.00  0.00    -0.351 OA
BRANCH  21  22
HETATM   22  C   UNL     1      -6.254   0.414 -34.184  1.00  0.00     0.180 C 
BRANCH  22  23
HETATM   23  C   UNL     1      -6.451  -0.837 -33.308  1.00  0.00     0.010 C 
HETATM   24  C   UNL     1      -6.925  -2.033 -34.148  1.00  0.00     0.007 C 
HETATM   25  C   UNL     1      -5.822  -2.614 -35.032  1.00  0.00     0.000 C 
HETATM   26  C   UNL     1      -4.580  -2.971 -34.220  1.00  0.00     0.000 C 
HETATM   27  C   UNL     1      -4.081  -1.794 -33.389  1.00  0.00     0.000 C 
HETATM   28  C   UNL     1      -5.188  -1.210 -32.512  1.00  0.00     0.007 C 
ENDBRANCH  22  23
ENDBRANCH  21  22
ENDBRANCH   4  21
TORSDOF 6
ENDMDL
MODEL 7
REMARK VINA RESULT:      -7.0      4.839      9.363
REMARK  6 active torsions:
REMARK  status: ('A' for Active; 'I' for Inactive)
REMARK    1  A    between atoms: C_2  and  N_3 
REMARK    2  A    between atoms: C_2  and  C_21 
REMARK       I    between atoms: N_3  and  C_4 
REMARK       I    between atoms: C_4  and  N_5 
REMARK    3  A    between atoms: N_5  and  C_6 
REMARK    4  A    between atoms: C_9  and  O_10 
REMARK    5  A    between atoms: O_10  and  C_11 
REMARK    6  A    between atoms: C_11  and  C_12 
ROOT
HETATM    1  C   UNL     1      -6.247   2.538 -33.288  1.00  0.00     0.036 A 
HETATM    2  C   UNL     1      -6.537   1.647 -34.321  1.00  0.00     0.032 A 
HETATM    3  C   UNL     1      -7.844   1.185 -34.526  1.00  0.00     0.039 A 
HETATM    4  C   UNL     1      -8.880   1.605 -33.695  1.00  0.00     0.068 A 
HETATM    5  C   UNL     1      -8.593   2.491 -32.655  1.00  0.00     0.039 A 
HETATM    6  C   UNL     1      -7.288   2.954 -32.451  1.00  0.00     0.032 A 
ENDROOT
BRANCH   1   7
HETATM    7  N   UNL     1      -4.955   3.033 -33.022  1.00  0.00    -0.309 N 
HETATM    8  C   UNL     1      -4.400   4.207 -33.477  1.00  0.00     0.321 C 
HETATM    9  N   UNL     1      -3.082   4.314 -33.107  1.00  0.00    -0.332 N 
HETATM   10  O   UNL     1      -4.963   5.082 -34.120  1.00  0.00    -0.247 OA
HETATM   11  H   UNL     1      -2.570   3.490 -32.826  1.00  0.00     0.165 HD
HETATM   12  H   UNL     1      -4.402   2.521 -32.350  1.00  0.00     0.170 HD
BRANCH   9  13
HETATM   13  C   UNL     1      -2.262   5.442 -33.540  1.00  0.00     0.155 C 
HETATM   14  C   UNL     1      -1.611   5.165 -34.896  1.00  0.00     0.041 C 
BRANCH  13  15
HETATM   15  C   UNL     1      -1.214   5.686 -32.488  1.00  0.00     0.169 A 
HETATM   16  N   UNL     1      -0.573   6.855 -32.342  1.00  0.00    -0.156 NA
HETATM   17  N   UNL     1       0.246   6.590 -31.313  1.00  0.00    -0.270 N 
HETATM   18  H   UNL     1       0.868   7.315 -30.972  1.00  0.00     0.190 HD
HETATM   19  C   UNL     1       0.093   5.312 -30.877  1.00  0.00     0.227 A 
HETATM   20  N   UNL     1      -0.823   4.707 -31.595  1.00  0.00    -0.223 NA
ENDBRANCH  13  15
ENDBRANCH   9  13
ENDBRANCH   1   7
BRANCH   4  21
HETATM   21  O   UNL     1     -10.191   1.228 -33.791  1.00  0.00    -0.351 OA
BRANCH  21  22
HETATM   22  C   UNL     1     -11.148   2.063 -33.132  1.00  0.00     0.180 C 
BRANCH  22  23
HETATM   23  C   UNL     1     -12.212   2.514 -34.150  1.00  0.00     0.010 C 
HETATM   24  C   UNL     1     -12.715   1.329 -34.989  1.00  0.00     0.007 C 
HETATM   25  C   UNL     1     -13.620   0.383 -34.200  1.00  0.00     0.000 C 
HETATM   26  C   UNL     1     -14.783   1.128 -33.551  1.00  0.00     0.000 C 
HETATM   27  C   UNL     1     -14.307   2.301 -32.700  1.00  0.00     0.000 C 
HETATM   28  C   UNL     1     -13.396   3.240 -33.488  1.00  0.00     0.007 C 
ENDBRANCH  22  23
ENDBRANCH  21  22
ENDBRANCH   4  21
TORSDOF 6
ENDMDL
MODEL 8
REMARK VINA RESULT:      -7.0      5.430      7.600
REMARK  6 active torsions:
REMARK  status: ('A' for Active; 'I' for Inactive)
REMARK    1  A    between atoms: C_2  and  N_3 
REMARK    2  A    between atoms: C_2  and  C_21 
REMARK       I    between atoms: N_3  and  C_4 
REMARK       I    between atoms: C_4  and  N_5 
REMARK    3  A    between atoms: N_5  and  C_6 
REMARK    4  A    between atoms: C_9  and  O_10 
REMARK    5  A    between atoms: O_10  and  C_11 
REMARK    6  A    between atoms: C_11  and  C_12 
ROOT
HETATM    1  C   UNL     1      -5.750   2.366 -30.457  1.00  0.00     0.036 A 
HETATM    2  C   UNL     1      -6.009   1.042 -30.099  1.00  0.00     0.032 A 
HETATM    3  C   UNL     1      -6.478   0.120 -31.046  1.00  0.00     0.039 A 
HETATM    4  C   UNL     1      -6.700   0.513 -32.364  1.00  0.00     0.068 A 
HETATM    5  C   UNL     1      -6.450   1.837 -32.724  1.00  0.00     0.039 A 
HETATM    6  C   UNL     1      -5.980   2.759 -31.780  1.00  0.00     0.032 A 
ENDROOT
BRANCH   1   7
HETATM    7  N   UNL     1      -5.287   3.343 -29.554  1.00  0.00    -0.309 N 
HETATM    8  C   UNL     1      -5.981   4.431 -29.073  1.00  0.00     0.321 C 
HETATM    9  N   UNL     1      -5.181   5.230 -28.296  1.00  0.00    -0.332 N 
HETATM   10  O   UNL     1      -7.159   4.694 -29.271  1.00  0.00    -0.247 OA
HETATM   11  H   UNL     1      -4.176   5.155 -28.364  1.00  0.00     0.165 HD
HETATM   12  H   UNL     1      -4.382   3.185 -29.138  1.00  0.00     0.170 HD
BRANCH   9  13
HETATM   13  C   UNL     1      -5.676   6.484 -27.735  1.00  0.00     0.155 C 
HETATM   14  C   UNL     1      -5.883   7.535 -28.828  1.00  0.00     0.041 C 
BRANCH  13  15
HETATM   15  C   UNL     1      -4.678   6.965 -26.717  1.00  0.00     0.169 A 
HETATM   16  N   UNL     1      -4.998   7.775 -25.696  1.00  0.00    -0.156 NA
HETATM   17  N   UNL     1      -3.811   7.928 -25.089  1.00  0.00    -0.270 N 
HETATM   18  H   UNL     1      -3.748   8.507 -24.259  1.00  0.00     0.190 HD
HETATM   19  C   UNL     1      -2.834   7.238 -25.734  1.00  0.00     0.227 A 
HETATM   20  N   UNL     1      -3.343   6.615 -26.770  1.00  0.00    -0.223 NA
ENDBRANCH  13  15
ENDBRANCH   9  13
ENDBRANCH   1   7
BRANCH   4  21
HETATM   21  O   UNL     1      -7.154  -0.288 -33.375  1.00  0.00    -0.351 OA
BRANCH  21  22
HETATM   22  C   UNL     1      -6.663  -1.632 -33.397  1.00  0.00     0.180 C 
BRANCH  22  23
HETATM   23  C   UNL     1      -5.515  -1.735 -34.418  1.00  0.00     0.010 C 
HETATM   24  C   UNL     1      -4.147  -1.617 -33.728  1.00  0.00     0.007 C 
HETATM   25  C   UNL     1      -3.776  -2.863 -32.925  1.00  0.00     0.000 C 
HETATM   26  C   UNL     1      -3.853  -4.126 -33.778  1.00  0.00     0.000 C 
HETATM   27  C   UNL     1      -5.209  -4.273 -34.461  1.00  0.00     0.000 C 
HETATM   28  C   UNL     1      -5.582  -3.023 -35.257  1.00  0.00     0.007 C 
ENDBRANCH  22  23
ENDBRANCH  21  22
ENDBRANCH   4  21
TORSDOF 6
ENDMDL
MODEL 9
REMARK VINA RESULT:      -7.0      4.411      5.633
REMARK  6 active torsions:
REMARK  status: ('A' for Active; 'I' for Inactive)
REMARK    1  A    between atoms: C_2  and  N_3 
REMARK    2  A    between atoms: C_2  and  C_21 
REMARK       I    between atoms: N_3  and  C_4 
REMARK       I    between atoms: C_4  and  N_5 
REMARK    3  A    between atoms: N_5  and  C_6 
REMARK    4  A    between atoms: C_9  and  O_10 
REMARK    5  A    between atoms: O_10  and  C_11 
REMARK    6  A    between atoms: C_11  and  C_12 
ROOT
HETATM    1  C   UNL     1      -8.077   3.583 -31.667  1.00  0.00     0.036 A 
HETATM    2  C   UNL     1      -7.479   2.978 -30.561  1.00  0.00     0.032 A 
HETATM    3  C   UNL     1      -6.189   3.342 -30.152  1.00  0.00     0.039 A 
HETATM    4  C   UNL     1      -5.475   4.315 -30.849  1.00  0.00     0.068 A 
HETATM    5  C   UNL     1      -6.066   4.917 -31.961  1.00  0.00     0.039 A 
HETATM    6  C   UNL     1      -7.356   4.555 -32.369  1.00  0.00     0.032 A 
ENDROOT
BRANCH   1   7
HETATM    7  N   UNL     1      -9.364   3.256 -32.136  1.00  0.00    -0.309 N 
HETATM    8  C   UNL     1      -9.689   2.633 -33.319  1.00  0.00     0.321 C 
HETATM    9  N   UNL     1     -11.049   2.573 -33.496  1.00  0.00    -0.332 N 
HETATM   10  O   UNL     1      -8.910   2.164 -34.138  1.00  0.00    -0.247 OA
HETATM   11  H   UNL     1     -11.653   3.187 -32.969  1.00  0.00     0.165 HD
HETATM   12  H   UNL     1     -10.132   3.409 -31.499  1.00  0.00     0.170 HD
BRANCH   9  13
HETATM   13  C   UNL     1     -11.632   2.022 -34.716  1.00  0.00     0.155 C 
HETATM   14  C   UNL     1     -12.079   3.133 -35.667  1.00  0.00     0.041 C 
BRANCH  13  15
HETATM   15  C   UNL     1     -12.799   1.156 -34.325  1.00  0.00     0.169 A 
HETATM   16  N   UNL     1     -12.686   0.078 -33.535  1.00  0.00    -0.156 NA
HETATM   17  N   UNL     1     -13.955  -0.355 -33.484  1.00  0.00    -0.270 N 
HETATM   18  H   UNL     1     -14.177  -1.181 -32.939  1.00  0.00     0.190 HD
HETATM   19  C   UNL     1     -14.777   0.436 -34.222  1.00  0.00     0.227 A 
HETATM   20  N   UNL     1     -14.082   1.405 -34.770  1.00  0.00    -0.223 NA
ENDBRANCH  13  15
ENDBRANCH   9  13
ENDBRANCH   1   7
BRANCH   4  21
HETATM   21  O   UNL     1      -4.215   4.755 -30.551  1.00  0.00    -0.351 OA
BRANCH  21  22
HETATM   22  C   UNL     1      -3.548   5.518 -31.560  1.00  0.00     0.180 C 
BRANCH  22  23
HETATM   23  C   UNL     1      -2.259   4.786 -31.979  1.00  0.00     0.010 C 
HETATM   24  C   UNL     1      -2.439   4.076 -33.330  1.00  0.00     0.007 C 
HETATM   25  C   UNL     1      -2.478   5.044 -34.511  1.00  0.00     0.000 C 
HETATM   26  C   UNL     1      -1.257   5.959 -34.530  1.00  0.00     0.000 C 
HETATM   27  C   UNL     1      -1.067   6.687 -33.204  1.00  0.00     0.000 C 
HETATM   28  C   UNL     1      -1.036   5.718 -32.024  1.00  0.00     0.007 C 
ENDBRANCH  22  23
ENDBRANCH  21  22
ENDBRANCH   4  21
TORSDOF 6
ENDMDL
MODEL 10
REMARK VINA RESULT:      -6.9      5.233      9.437
REMARK  6 active torsions:
REMARK  status: ('A' for Active; 'I' for Inactive)
REMARK    1  A    between atoms: C_2  and  N_3 
REMARK    2  A    between atoms: C_2  and  C_21 
REMARK       I    between atoms: N_3  and  C_4 
REMARK       I    between atoms: C_4  and  N_5 
REMARK    3  A    between atoms: N_5  and  C_6 
REMARK    4  A    between atoms: C_9  and  O_10 
REMARK    5  A    between atoms: O_10  and  C_11 
REMARK    6  A    between atoms: C_11  and  C_12 
ROOT
HETATM    1  C   UNL     1      -5.078   2.327 -32.531  1.00  0.00     0.036 A 
HETATM    2  C   UNL     1      -5.927   2.636 -33.595  1.00  0.00     0.032 A 
HETATM    3  C   UNL     1      -7.188   2.034 -33.706  1.00  0.00     0.039 A 
HETATM    4  C   UNL     1      -7.616   1.109 -32.755  1.00  0.00     0.068 A 
HETATM    5  C   UNL     1      -6.767   0.792 -31.694  1.00  0.00     0.039 A 
HETATM    6  C   UNL     1      -5.507   1.394 -31.581  1.00  0.00     0.032 A 
ENDROOT
BRANCH   1   7
HETATM    7  N   UNL     1      -3.796   2.888 -32.367  1.00  0.00    -0.309 N 
HETATM    8  C   UNL     1      -3.486   4.127 -31.852  1.00  0.00     0.321 C 
HETATM    9  N   UNL     1      -2.141   4.383 -31.943  1.00  0.00    -0.332 N 
HETATM   10  O   UNL     1      -4.265   4.930 -31.357  1.00  0.00    -0.247 OA
HETATM   11  H   UNL     1      -1.569   3.850 -32.582  1.00  0.00     0.165 HD
HETATM   12  H   UNL     1      -3.010   2.286 -32.558  1.00  0.00     0.170 HD
BRANCH   9  13
HETATM   13  C   UNL     1      -1.584   5.667 -31.529  1.00  0.00     0.155 C 
HETATM   14  C   UNL     1      -0.884   6.368 -32.694  1.00  0.00     0.041 C 
BRANCH  13  15
HETATM   15  C   UNL     1      -0.618   5.416 -30.403  1.00  0.00     0.169 A 
HETATM   16  N   UNL     1      -0.688   6.037 -29.217  1.00  0.00    -0.156 NA
HETATM   17  N   UNL     1       0.359   5.506 -28.568  1.00  0.00    -0.270 N 
HETATM   18  H   UNL     1       0.556   5.798 -27.617  1.00  0.00     0.190 HD
HETATM   19  C   UNL     1       1.020   4.611 -29.348  1.00  0.00     0.227 A 
HETATM   20  N   UNL     1       0.432   4.525 -30.518  1.00  0.00    -0.223 NA
ENDBRANCH  13  15
ENDBRANCH   9  13
ENDBRANCH   1   7
BRANCH   4  21
HETATM   21  O   UNL     1      -8.818   0.457 -32.752  1.00  0.00    -0.351 OA
BRANCH  21  22
HETATM   22  C   UNL     1      -9.714   0.762 -33.824  1.00  0.00     0.180 C 
BRANCH  22  23
HETATM   23  C   UNL     1     -10.915   1.551 -33.270  1.00  0.00     0.010 C 
HETATM   24  C   UNL     1     -10.723   3.063 -33.465  1.00  0.00     0.007 C 
HETATM   25  C   UNL     1     -10.885   3.502 -34.920  1.00  0.00     0.000 C 
HETATM   26  C   UNL     1     -12.217   3.039 -35.502  1.00  0.00     0.000 C 
HETATM   27  C   UNL     1     -12.424   1.537 -35.334  1.00  0.00     0.000 C 
HETATM   28  C   UNL     1     -12.253   1.100 -33.880  1.00  0.00     0.007 C 
ENDBRANCH  22  23
ENDBRANCH  21  22
ENDBRANCH   4  21
TORSDOF 6
ENDMDL
