MODEL 1
REMARK VINA RESULT:     -10.7      0.000      0.000
REMARK  7 active torsions:
REMARK  status: ('A' for Active; 'I' for Inactive)
REMARK    1  A    between atoms: C_4  and  C_5 
REMARK    2  A    between atoms: C_5  and  C_6 
REMARK       I    between atoms: C_6  and  N_7 
REMARK    3  A    between atoms: N_7  and  C_8 
REMARK    4  A    between atoms: C_11  and  C_12 
REMARK       I    between atoms: C_12  and  N_13 
REMARK    5  A    between atoms: N_13  and  C_14 
REMARK    6  A    between atoms: C_15  and  C_16 
REMARK       I    between atoms: C_16  and  N_17 
REMARK    7  A    between atoms: N_20  and  C_21 
ROOT
HETATM    1  C   UNL     1      -6.490   4.968 -33.795  1.00  0.00     0.256 C 
HETATM    2  N   UNL     1      -7.748   5.417 -33.382  1.00  0.00    -0.322 N 
HETATM    3  O   UNL     1      -6.313   4.047 -34.590  1.00  0.00    -0.267 OA
HETATM    4  H   UNL     1      -7.774   5.685 -32.407  1.00  0.00     0.169 HD
ENDROOT
BRANCH   2   5
HETATM    5  C   UNL     1      -8.896   4.740 -33.868  1.00  0.00     0.050 C 
HETATM    6  C   UNL     1      -9.420   3.555 -33.305  1.00  0.00     0.059 C 
HETATM    7  C   UNL     1     -10.750   3.225 -33.611  1.00  0.00     0.019 C 
HETATM    8  C   UNL     1     -11.467   3.920 -34.590  1.00  0.00     0.001 C 
HETATM    9  C   UNL     1     -10.870   4.978 -35.264  1.00  0.00     0.002 C 
HETATM   10  C   UNL     1      -9.594   5.396 -34.898  1.00  0.00     0.030 C 
BRANCH   6  11
HETATM   11  C   UNL     1      -8.596   2.644 -32.427  1.00  0.00     0.256 C 
HETATM   12  N   UNL     1      -8.045   1.447 -32.930  1.00  0.00    -0.345 N 
HETATM   13  C   UNL     1      -8.102   0.969 -34.322  1.00  0.00     0.146 C 
HETATM   14  C   UNL     1      -7.697   0.423 -31.929  1.00  0.00     0.146 C 
HETATM   15  C   UNL     1      -6.970  -0.006 -34.709  1.00  0.00     0.143 C 
HETATM   16  N   UNL     1      -6.871  -1.078 -33.699  1.00  0.00    -0.378 N 
HETATM   17  C   UNL     1      -6.574  -0.536 -32.362  1.00  0.00     0.143 C 
HETATM   18  O   UNL     1      -8.361   2.964 -31.261  1.00  0.00    -0.267 OA
BRANCH  16  19
HETATM   19  C   UNL     1      -6.233  -2.245 -34.122  1.00  0.00     0.030 A 
HETATM   20  C   UNL     1      -4.859  -2.478 -33.970  1.00  0.00     0.029 A 
HETATM   21  C   UNL     1      -4.276  -3.688 -34.366  1.00  0.00     0.002 A 
HETATM   22  C   UNL     1      -5.060  -4.696 -34.919  1.00  0.00     0.000 A 
HETATM   23  C   UNL     1      -6.425  -4.493 -35.077  1.00  0.00     0.002 A 
HETATM   24  C   UNL     1      -7.000  -3.281 -34.684  1.00  0.00     0.029 A 
ENDBRANCH  16  19
ENDBRANCH   6  11
ENDBRANCH   2   5
BRANCH   1  25
HETATM   25  C   UNL     1      -5.299   5.545 -33.097  1.00  0.00     0.032 A 
HETATM   26  C   UNL     1      -5.322   6.007 -31.777  1.00  0.00     0.019 A 
HETATM   27  C   UNL     1      -4.137   6.427 -31.151  1.00  0.00     0.030 A 
HETATM   28  C   UNL     1      -2.923   6.415 -31.841  1.00  0.00     0.034 A 
HETATM   29  C   UNL     1      -2.914   6.017 -33.181  1.00  0.00     0.030 A 
HETATM   30  C   UNL     1      -4.088   5.581 -33.800  1.00  0.00     0.019 A 
BRANCH  28  31
HETATM   31  N   UNL     1      -1.680   6.756 -31.272  1.00  0.00    -0.327 N 
HETATM   32  C   UNL     1      -0.647   5.904 -30.917  1.00  0.00     0.226 C 
HETATM   33  O   UNL     1      -0.661   4.678 -30.973  1.00  0.00    -0.273 OA
HETATM   34  H   UNL     1      -1.514   7.746 -31.139  1.00  0.00     0.169 HD
BRANCH  32  35
HETATM   35  C   UNL     1       0.597   6.654 -30.459  1.00  0.00     0.141 C 
BRANCH  35  36
HETATM   36  C   UNL     1       0.570   6.990 -28.991  1.00  0.00    -0.050 A 
HETATM   37  C   UNL     1       1.136   8.189 -28.536  1.00  0.00     0.007 A 
HETATM   38  C   UNL     1       1.120   8.508 -27.178  1.00  0.00     0.001 A 
HETATM   39  C   UNL     1       0.546   7.631 -26.261  1.00  0.00     0.000 A 
HETATM   40  C   UNL     1      -0.013   6.432 -26.702  1.00  0.00     0.001 A 
HETATM   41  C   UNL     1      -0.002   6.111 -28.060  1.00  0.00     0.007 A 
ENDBRANCH  35  36
ENDBRANCH  32  35
ENDBRANCH  28  31
ENDBRANCH   1  25
TORSDOF 7
ENDMDL
MODEL 2
REMARK VINA RESULT:     -10.0      1.494      2.116
REMARK  7 active torsions:
REMARK  status: ('A' for Active; 'I' for Inactive)
REMARK    1  A    between atoms: C_4  and  C_5 
REMARK    2  A    between atoms: C_5  and  C_6 
REMARK       I    between atoms: C_6  and  N_7 
REMARK    3  A    between atoms: N_7  and  C_8 
REMARK    4  A    between atoms: C_11  and  C_12 
REMARK       I    between atoms: C_12  and  N_13 
REMARK    5  A    between atoms: N_13  and  C_14 
REMARK    6  A    between atoms: C_15  and  C_16 
REMARK       I    between atoms: C_16  and  N_17 
REMARK    7  A    between atoms: N_20  and  C_21 
ROOT
HETATM    1  C   UNL     1      -7.802   5.396 -33.599  1.00  0.00     0.256 C 
HETATM    2  N   UNL     1      -9.069   5.753 -33.127  1.00  0.00    -0.322 N 
HETATM    3  O   UNL     1      -7.600   4.517 -34.436  1.00  0.00    -0.267 OA
HETATM    4  H   UNL     1      -9.076   5.981 -32.142  1.00  0.00     0.169 HD
ENDROOT
BRANCH   2   5
HETATM    5  C   UNL     1     -10.191   5.027 -33.602  1.00  0.00     0.050 C 
HETATM    6  C   UNL     1     -10.693   3.852 -33.000  1.00  0.00     0.059 C 
HETATM    7  C   UNL     1     -12.010   3.475 -33.311  1.00  0.00     0.019 C 
HETATM    8  C   UNL     1     -12.730   4.113 -34.325  1.00  0.00     0.001 C 
HETATM    9  C   UNL     1     -12.152   5.159 -35.032  1.00  0.00     0.002 C 
HETATM   10  C   UNL     1     -10.892   5.625 -34.665  1.00  0.00     0.030 C 
BRANCH   6  11
HETATM   11  C   UNL     1      -9.858   2.997 -32.077  1.00  0.00     0.256 C 
HETATM   12  N   UNL     1      -9.086   1.925 -32.573  1.00  0.00    -0.345 N 
HETATM   13  C   UNL     1      -8.909   1.547 -33.986  1.00  0.00     0.146 C 
HETATM   14  C   UNL     1      -8.718   0.886 -31.595  1.00  0.00     0.146 C 
HETATM   15  C   UNL     1      -7.612   0.764 -34.279  1.00  0.00     0.143 C 
HETATM   16  N   UNL     1      -7.483  -0.356 -33.327  1.00  0.00    -0.378 N 
HETATM   17  C   UNL     1      -7.427   0.121 -31.934  1.00  0.00     0.143 C 
HETATM   18  O   UNL     1      -9.811   3.258 -30.875  1.00  0.00    -0.267 OA
BRANCH  16  19
HETATM   19  C   UNL     1      -6.640  -1.393 -33.730  1.00  0.00     0.030 A 
HETATM   20  C   UNL     1      -7.073  -2.510 -34.456  1.00  0.00     0.029 A 
HETATM   21  C   UNL     1      -6.176  -3.499 -34.879  1.00  0.00     0.002 A 
HETATM   22  C   UNL     1      -4.820  -3.387 -34.588  1.00  0.00     0.000 A 
HETATM   23  C   UNL     1      -4.362  -2.286 -33.873  1.00  0.00     0.002 A 
HETATM   24  C   UNL     1      -5.265  -1.306 -33.450  1.00  0.00     0.029 A 
ENDBRANCH  16  19
ENDBRANCH   6  11
ENDBRANCH   2   5
BRANCH   1  25
HETATM   25  C   UNL     1      -6.623   6.016 -32.919  1.00  0.00     0.032 A 
HETATM   26  C   UNL     1      -6.726   7.026 -31.957  1.00  0.00     0.019 A 
HETATM   27  C   UNL     1      -5.582   7.477 -31.277  1.00  0.00     0.030 A 
HETATM   28  C   UNL     1      -4.324   6.945 -31.566  1.00  0.00     0.034 A 
HETATM   29  C   UNL     1      -4.215   5.983 -32.574  1.00  0.00     0.030 A 
HETATM   30  C   UNL     1      -5.353   5.519 -33.239  1.00  0.00     0.019 A 
BRANCH  28  31
HETATM   31  N   UNL     1      -3.138   7.291 -30.888  1.00  0.00    -0.327 N 
HETATM   32  C   UNL     1      -2.247   8.305 -31.201  1.00  0.00     0.226 C 
HETATM   33  O   UNL     1      -2.298   9.045 -32.179  1.00  0.00    -0.273 OA
HETATM   34  H   UNL     1      -2.935   6.754 -30.055  1.00  0.00     0.169 HD
BRANCH  32  35
HETATM   35  C   UNL     1      -1.152   8.463 -30.155  1.00  0.00     0.141 C 
BRANCH  35  36
HETATM   36  C   UNL     1      -0.358   7.200 -29.944  1.00  0.00    -0.050 A 
HETATM   37  C   UNL     1       0.079   6.454 -31.048  1.00  0.00     0.007 A 
HETATM   38  C   UNL     1       0.812   5.282 -30.864  1.00  0.00     0.001 A 
HETATM   39  C   UNL     1       1.109   4.839 -29.577  1.00  0.00     0.000 A 
HETATM   40  C   UNL     1       0.673   5.569 -28.472  1.00  0.00     0.001 A 
HETATM   41  C   UNL     1      -0.057   6.744 -28.653  1.00  0.00     0.007 A 
ENDBRANCH  35  36
ENDBRANCH  32  35
ENDBRANCH  28  31
ENDBRANCH   1  25
TORSDOF 7
ENDMDL
MODEL 3
REMARK VINA RESULT:      -9.9      3.076     10.459
REMARK  7 active torsions:
REMARK  status: ('A' for Active; 'I' for Inactive)
REMARK    1  A    between atoms: C_4  and  C_5 
REMARK    2  A    between atoms: C_5  and  C_6 
REMARK       I    between atoms: C_6  and  N_7 
REMARK    3  A    between atoms: N_7  and  C_8 
REMARK    4  A    between atoms: C_11  and  C_12 
REMARK       I    between atoms: C_12  and  N_13 
REMARK    5  A    between atoms: N_13  and  C_14 
REMARK    6  A    between atoms: C_15  and  C_16 
REMARK       I    between atoms: C_16  and  N_17 
REMARK    7  A    between atoms: N_20  and  C_21 
ROOT
HETATM    1  C   UNL     1      -9.438   1.372 -33.958  1.00  0.00     0.256 C 
HETATM    2  N   UNL     1      -8.110   1.609 -34.326  1.00  0.00    -0.322 N 
HETATM    3  O   UNL     1      -9.811   0.396 -33.308  1.00  0.00    -0.267 OA
HETATM    4  H   UNL     1      -8.019   2.012 -35.249  1.00  0.00     0.169 HD
ENDROOT
BRANCH   2   5
HETATM    5  C   UNL     1      -7.133   0.642 -33.974  1.00  0.00     0.050 C 
HETATM    6  C   UNL     1      -6.450   0.614 -32.738  1.00  0.00     0.059 C 
HETATM    7  C   UNL     1      -5.833  -0.592 -32.365  1.00  0.00     0.019 C 
HETATM    8  C   UNL     1      -5.720  -1.660 -33.261  1.00  0.00     0.001 C 
HETATM    9  C   UNL     1      -6.246  -1.548 -34.541  1.00  0.00     0.002 C 
HETATM   10  C   UNL     1      -6.962  -0.406 -34.895  1.00  0.00     0.030 C 
BRANCH   6  11
HETATM   11  C   UNL     1      -6.346   1.826 -31.844  1.00  0.00     0.256 C 
HETATM   12  N   UNL     1      -5.164   2.595 -31.791  1.00  0.00    -0.345 N 
HETATM   13  C   UNL     1      -3.954   2.407 -32.611  1.00  0.00     0.146 C 
HETATM   14  C   UNL     1      -4.981   3.420 -30.583  1.00  0.00     0.146 C 
HETATM   15  C   UNL     1      -3.092   3.676 -32.775  1.00  0.00     0.143 C 
HETATM   16  N   UNL     1      -2.845   4.284 -31.454  1.00  0.00    -0.378 N 
HETATM   17  C   UNL     1      -4.104   4.666 -30.790  1.00  0.00     0.143 C 
HETATM   18  O   UNL     1      -7.317   2.182 -31.177  1.00  0.00    -0.267 OA
BRANCH  16  19
HETATM   19  C   UNL     1      -1.746   5.141 -31.382  1.00  0.00     0.030 A 
HETATM   20  C   UNL     1      -0.635   4.914 -30.558  1.00  0.00     0.029 A 
HETATM   21  C   UNL     1       0.465   5.781 -30.561  1.00  0.00     0.002 A 
HETATM   22  C   UNL     1       0.479   6.894 -31.395  1.00  0.00     0.000 A 
HETATM   23  C   UNL     1      -0.608   7.141 -32.226  1.00  0.00     0.002 A 
HETATM   24  C   UNL     1      -1.705   6.274 -32.214  1.00  0.00     0.029 A 
ENDBRANCH  16  19
ENDBRANCH   6  11
ENDBRANCH   2   5
BRANCH   1  25
HETATM   25  C   UNL     1     -10.476   2.283 -34.533  1.00  0.00     0.032 A 
HETATM   26  C   UNL     1     -11.824   1.935 -34.669  1.00  0.00     0.019 A 
HETATM   27  C   UNL     1     -12.760   2.885 -35.110  1.00  0.00     0.030 A 
HETATM   28  C   UNL     1     -12.361   4.181 -35.442  1.00  0.00     0.034 A 
HETATM   29  C   UNL     1     -11.003   4.506 -35.368  1.00  0.00     0.030 A 
HETATM   30  C   UNL     1     -10.072   3.570 -34.913  1.00  0.00     0.019 A 
BRANCH  28  31
HETATM   31  N   UNL     1     -13.241   5.211 -35.827  1.00  0.00    -0.327 N 
HETATM   32  C   UNL     1     -13.654   6.300 -35.076  1.00  0.00     0.226 C 
HETATM   33  O   UNL     1     -13.376   6.524 -33.902  1.00  0.00    -0.273 OA
HETATM   34  H   UNL     1     -13.584   5.164 -36.778  1.00  0.00     0.169 HD
BRANCH  32  35
HETATM   35  C   UNL     1     -14.502   7.276 -35.881  1.00  0.00     0.141 C 
BRANCH  35  36
HETATM   36  C   UNL     1     -13.727   7.955 -36.980  1.00  0.00    -0.050 A 
HETATM   37  C   UNL     1     -14.309   8.129 -38.243  1.00  0.00     0.007 A 
HETATM   38  C   UNL     1     -13.600   8.754 -39.269  1.00  0.00     0.001 A 
HETATM   39  C   UNL     1     -12.300   9.203 -39.046  1.00  0.00     0.000 A 
HETATM   40  C   UNL     1     -11.708   9.028 -37.796  1.00  0.00     0.001 A 
HETATM   41  C   UNL     1     -12.417   8.407 -36.766  1.00  0.00     0.007 A 
ENDBRANCH  35  36
ENDBRANCH  32  35
ENDBRANCH  28  31
ENDBRANCH   1  25
TORSDOF 7
ENDMDL
MODEL 4
REMARK VINA RESULT:      -9.7      1.795      2.442
REMARK  7 active torsions:
REMARK  status: ('A' for Active; 'I' for Inactive)
REMARK    1  A    between atoms: C_4  and  C_5 
REMARK    2  A    between atoms: C_5  and  C_6 
REMARK       I    between atoms: C_6  and  N_7 
REMARK    3  A    between atoms: N_7  and  C_8 
REMARK    4  A    between atoms: C_11  and  C_12 
REMARK       I    between atoms: C_12  and  N_13 
REMARK    5  A    between atoms: N_13  and  C_14 
REMARK    6  A    between atoms: C_15  and  C_16 
REMARK       I    between atoms: C_16  and  N_17 
REMARK    7  A    between atoms: N_20  and  C_21 
ROOT
HETATM    1  C   UNL     1      -7.884   4.832 -31.711  1.00  0.00     0.256 C 
HETATM    2  N   UNL     1      -8.712   3.801 -31.256  1.00  0.00    -0.322 N 
HETATM    3  O   UNL     1      -8.269   5.769 -32.409  1.00  0.00    -0.267 OA
HETATM    4  H   UNL     1      -8.256   2.899 -31.249  1.00  0.00     0.169 HD
ENDROOT
BRANCH   2   5
HETATM    5  C   UNL     1     -10.071   3.803 -31.662  1.00  0.00     0.050 C 
HETATM    6  C   UNL     1     -10.554   3.180 -32.834  1.00  0.00     0.059 C 
HETATM    7  C   UNL     1     -11.930   2.909 -32.905  1.00  0.00     0.019 C 
HETATM    8  C   UNL     1     -12.822   3.414 -31.954  1.00  0.00     0.001 C 
HETATM    9  C   UNL     1     -12.347   4.179 -30.898  1.00  0.00     0.002 C 
HETATM   10  C   UNL     1     -10.976   4.365 -30.743  1.00  0.00     0.030 C 
BRANCH   6  11
HETATM   11  C   UNL     1      -9.652   2.832 -33.994  1.00  0.00     0.256 C 
HETATM   12  N   UNL     1      -8.850   1.672 -33.973  1.00  0.00    -0.345 N 
HETATM   13  C   UNL     1      -8.830   0.633 -32.928  1.00  0.00     0.146 C 
HETATM   14  C   UNL     1      -7.686   1.672 -34.878  1.00  0.00     0.146 C 
HETATM   15  C   UNL     1      -8.340  -0.748 -33.409  1.00  0.00     0.143 C 
HETATM   16  N   UNL     1      -7.069  -0.596 -34.142  1.00  0.00    -0.378 N 
HETATM   17  C   UNL     1      -7.223   0.274 -35.321  1.00  0.00     0.143 C 
HETATM   18  O   UNL     1      -9.641   3.545 -34.998  1.00  0.00    -0.267 OA
BRANCH  16  19
HETATM   19  C   UNL     1      -6.290  -1.750 -34.241  1.00  0.00     0.030 A 
HETATM   20  C   UNL     1      -4.958  -1.829 -33.813  1.00  0.00     0.029 A 
HETATM   21  C   UNL     1      -4.236  -3.026 -33.890  1.00  0.00     0.002 A 
HETATM   22  C   UNL     1      -4.836  -4.177 -34.391  1.00  0.00     0.000 A 
HETATM   23  C   UNL     1      -6.158  -4.129 -34.818  1.00  0.00     0.002 A 
HETATM   24  C   UNL     1      -6.871  -2.928 -34.744  1.00  0.00     0.029 A 
ENDBRANCH  16  19
ENDBRANCH   6  11
ENDBRANCH   2   5
BRANCH   1  25
HETATM   25  C   UNL     1      -6.416   4.686 -31.461  1.00  0.00     0.032 A 
HETATM   26  C   UNL     1      -5.766   3.453 -31.364  1.00  0.00     0.019 A 
HETATM   27  C   UNL     1      -4.367   3.396 -31.244  1.00  0.00     0.030 A 
HETATM   28  C   UNL     1      -3.607   4.566 -31.196  1.00  0.00     0.034 A 
HETATM   29  C   UNL     1      -4.266   5.799 -31.226  1.00  0.00     0.030 A 
HETATM   30  C   UNL     1      -5.655   5.858 -31.364  1.00  0.00     0.019 A 
BRANCH  28  31
HETATM   31  N   UNL     1      -2.199   4.600 -31.144  1.00  0.00    -0.327 N 
HETATM   32  C   UNL     1      -1.331   5.194 -32.045  1.00  0.00     0.226 C 
HETATM   33  O   UNL     1      -1.637   5.744 -33.098  1.00  0.00    -0.273 OA
HETATM   34  H   UNL     1      -1.779   4.165 -30.332  1.00  0.00     0.169 HD
BRANCH  32  35
HETATM   35  C   UNL     1       0.118   5.141 -31.580  1.00  0.00     0.141 C 
BRANCH  35  36
HETATM   36  C   UNL     1       0.343   5.872 -30.282  1.00  0.00    -0.050 A 
HETATM   37  C   UNL     1       0.672   5.155 -29.122  1.00  0.00     0.007 A 
HETATM   38  C   UNL     1       0.878   5.821 -27.914  1.00  0.00     0.001 A 
HETATM   39  C   UNL     1       0.751   7.206 -27.850  1.00  0.00     0.000 A 
HETATM   40  C   UNL     1       0.418   7.928 -28.995  1.00  0.00     0.001 A 
HETATM   41  C   UNL     1       0.214   7.265 -30.206  1.00  0.00     0.007 A 
ENDBRANCH  35  36
ENDBRANCH  32  35
ENDBRANCH  28  31
ENDBRANCH   1  25
TORSDOF 7
ENDMDL
MODEL 5
REMARK VINA RESULT:      -9.5      6.030     10.162
REMARK  7 active torsions:
REMARK  status: ('A' for Active; 'I' for Inactive)
REMARK    1  A    between atoms: C_4  and  C_5 
REMARK    2  A    between atoms: C_5  and  C_6 
REMARK       I    between atoms: C_6  and  N_7 
REMARK    3  A    between atoms: N_7  and  C_8 
REMARK    4  A    between atoms: C_11  and  C_12 
REMARK       I    between atoms: C_12  and  N_13 
REMARK    5  A    between atoms: N_13  and  C_14 
REMARK    6  A    between atoms: C_15  and  C_16 
REMARK       I    between atoms: C_16  and  N_17 
REMARK    7  A    between atoms: N_20  and  C_21 
ROOT
HETATM    1  C   UNL     1     -12.319   2.761 -33.659  1.00  0.00     0.256 C 
HETATM    2  N   UNL     1     -12.654   3.191 -32.371  1.00  0.00    -0.322 N 
HETATM    3  O   UNL     1     -13.124   2.661 -34.584  1.00  0.00    -0.267 OA
HETATM    4  H   UNL     1     -12.152   2.698 -31.645  1.00  0.00     0.169 HD
ENDROOT
BRANCH   2   5
HETATM    5  C   UNL     1     -14.013   3.486 -32.094  1.00  0.00     0.050 C 
HETATM    6  C   UNL     1     -14.593   4.768 -32.224  1.00  0.00     0.059 C 
HETATM    7  C   UNL     1     -15.993   4.840 -32.315  1.00  0.00     0.019 C 
HETATM    8  C   UNL     1     -16.797   3.720 -32.085  1.00  0.00     0.001 C 
HETATM    9  C   UNL     1     -16.211   2.498 -31.782  1.00  0.00     0.002 C 
HETATM   10  C   UNL     1     -14.824   2.376 -31.799  1.00  0.00     0.030 C 
BRANCH   6  11
HETATM   11  C   UNL     1     -13.766   6.031 -32.237  1.00  0.00     0.256 C 
HETATM   12  N   UNL     1     -13.290   6.579 -33.447  1.00  0.00    -0.345 N 
HETATM   13  C   UNL     1     -13.579   6.094 -34.807  1.00  0.00     0.146 C 
HETATM   14  C   UNL     1     -12.131   7.483 -33.336  1.00  0.00     0.146 C 
HETATM   15  C   UNL     1     -13.441   7.165 -35.910  1.00  0.00     0.143 C 
HETATM   16  N   UNL     1     -12.146   7.857 -35.771  1.00  0.00    -0.378 N 
HETATM   17  C   UNL     1     -12.026   8.525 -34.463  1.00  0.00     0.143 C 
HETATM   18  O   UNL     1     -13.533   6.623 -31.183  1.00  0.00    -0.267 OA
BRANCH  16  19
HETATM   19  C   UNL     1     -11.687   8.509 -36.916  1.00  0.00     0.030 A 
HETATM   20  C   UNL     1     -12.459   8.687 -38.072  1.00  0.00     0.029 A 
HETATM   21  C   UNL     1     -11.968   9.392 -39.177  1.00  0.00     0.002 A 
HETATM   22  C   UNL     1     -10.690   9.942 -39.147  1.00  0.00     0.000 A 
HETATM   23  C   UNL     1      -9.904   9.785 -38.011  1.00  0.00     0.002 A 
HETATM   24  C   UNL     1     -10.399   9.074 -36.914  1.00  0.00     0.029 A 
ENDBRANCH  16  19
ENDBRANCH   6  11
ENDBRANCH   2   5
BRANCH   1  25
HETATM   25  C   UNL     1     -10.931   2.241 -33.864  1.00  0.00     0.032 A 
HETATM   26  C   UNL     1      -9.841   3.051 -34.197  1.00  0.00     0.019 A 
HETATM   27  C   UNL     1      -8.547   2.509 -34.258  1.00  0.00     0.030 A 
HETATM   28  C   UNL     1      -8.329   1.153 -34.011  1.00  0.00     0.034 A 
HETATM   29  C   UNL     1      -9.429   0.332 -33.743  1.00  0.00     0.030 A 
HETATM   30  C   UNL     1     -10.715   0.871 -33.664  1.00  0.00     0.019 A 
BRANCH  28  31
HETATM   31  N   UNL     1      -7.060   0.542 -33.986  1.00  0.00    -0.327 N 
HETATM   32  C   UNL     1      -6.417  -0.035 -32.903  1.00  0.00     0.226 C 
HETATM   33  O   UNL     1      -6.817  -0.054 -31.743  1.00  0.00    -0.273 OA
HETATM   34  H   UNL     1      -6.578   0.491 -34.875  1.00  0.00     0.169 HD
BRANCH  32  35
HETATM   35  C   UNL     1      -5.113  -0.719 -33.294  1.00  0.00     0.141 C 
BRANCH  35  36
HETATM   36  C   UNL     1      -5.322  -2.105 -33.843  1.00  0.00    -0.050 A 
HETATM   37  C   UNL     1      -6.570  -2.472 -34.366  1.00  0.00     0.007 A 
HETATM   38  C   UNL     1      -6.775  -3.755 -34.874  1.00  0.00     0.001 A 
HETATM   39  C   UNL     1      -5.739  -4.686 -34.858  1.00  0.00     0.000 A 
HETATM   40  C   UNL     1      -4.496  -4.335 -34.334  1.00  0.00     0.001 A 
HETATM   41  C   UNL     1      -4.286  -3.050 -33.829  1.00  0.00     0.007 A 
ENDBRANCH  35  36
ENDBRANCH  32  35
ENDBRANCH  28  31
ENDBRANCH   1  25
TORSDOF 7
ENDMDL
MODEL 6
REMARK VINA RESULT:      -9.3      2.770      3.683
REMARK  7 active torsions:
REMARK  status: ('A' for Active; 'I' for Inactive)
REMARK    1  A    between atoms: C_4  and  C_5 
REMARK    2  A    between atoms: C_5  and  C_6 
REMARK       I    between atoms: C_6  and  N_7 
REMARK    3  A    between atoms: N_7  and  C_8 
REMARK    4  A    between atoms: C_11  and  C_12 
REMARK       I    between atoms: C_12  and  N_13 
REMARK    5  A    between atoms: N_13  and  C_14 
REMARK    6  A    between atoms: C_15  and  C_16 
REMARK       I    between atoms: C_16  and  N_17 
REMARK    7  A    between atoms: N_20  and  C_21 
ROOT
HETATM    1  C   UNL     1      -9.663   5.772 -30.160  1.00  0.00     0.256 C 
HETATM    2  N   UNL     1     -10.179   4.472 -30.177  1.00  0.00    -0.322 N 
HETATM    3  O   UNL     1     -10.135   6.710 -30.800  1.00  0.00    -0.267 OA
HETATM    4  H   UNL     1      -9.462   3.760 -30.147  1.00  0.00     0.169 HD
ENDROOT
BRANCH   2   5
HETATM    5  C   UNL     1     -11.286   4.201 -31.021  1.00  0.00     0.050 C 
HETATM    6  C   UNL     1     -11.185   3.633 -32.310  1.00  0.00     0.059 C 
HETATM    7  C   UNL     1     -12.342   3.052 -32.856  1.00  0.00     0.019 C 
HETATM    8  C   UNL     1     -13.591   3.206 -32.246  1.00  0.00     0.001 C 
HETATM    9  C   UNL     1     -13.700   3.923 -31.063  1.00  0.00     0.002 C 
HETATM   10  C   UNL     1     -12.551   4.410 -30.443  1.00  0.00     0.030 C 
BRANCH   6  11
HETATM   11  C   UNL     1      -9.902   3.659 -33.106  1.00  0.00     0.256 C 
HETATM   12  N   UNL     1      -9.094   2.510 -33.226  1.00  0.00    -0.345 N 
HETATM   13  C   UNL     1      -9.393   1.164 -32.706  1.00  0.00     0.146 C 
HETATM   14  C   UNL     1      -7.683   2.745 -33.581  1.00  0.00     0.146 C 
HETATM   15  C   UNL     1      -8.677   0.018 -33.451  1.00  0.00     0.143 C 
HETATM   16  N   UNL     1      -7.238   0.322 -33.563  1.00  0.00    -0.378 N 
HETATM   17  C   UNL     1      -7.004   1.572 -34.309  1.00  0.00     0.143 C 
HETATM   18  O   UNL     1      -9.569   4.686 -33.699  1.00  0.00    -0.267 OA
BRANCH  16  19
HETATM   19  C   UNL     1      -6.407  -0.776 -33.792  1.00  0.00     0.030 A 
HETATM   20  C   UNL     1      -6.767  -1.870 -34.591  1.00  0.00     0.029 A 
HETATM   21  C   UNL     1      -5.877  -2.925 -34.829  1.00  0.00     0.002 A 
HETATM   22  C   UNL     1      -4.601  -2.903 -34.276  1.00  0.00     0.000 A 
HETATM   23  C   UNL     1      -4.216  -1.828 -33.484  1.00  0.00     0.002 A 
HETATM   24  C   UNL     1      -5.111  -0.782 -33.246  1.00  0.00     0.029 A 
ENDBRANCH  16  19
ENDBRANCH   6  11
ENDBRANCH   2   5
BRANCH   1  25
HETATM   25  C   UNL     1      -8.365   5.979 -29.444  1.00  0.00     0.032 A 
HETATM   26  C   UNL     1      -8.089   7.094 -28.646  1.00  0.00     0.019 A 
HETATM   27  C   UNL     1      -6.894   7.163 -27.913  1.00  0.00     0.030 A 
HETATM   28  C   UNL     1      -5.952   6.135 -27.985  1.00  0.00     0.034 A 
HETATM   29  C   UNL     1      -6.200   5.053 -28.835  1.00  0.00     0.030 A 
HETATM   30  C   UNL     1      -7.396   4.973 -29.552  1.00  0.00     0.019 A 
BRANCH  28  31
HETATM   31  N   UNL     1      -4.760   6.092 -27.235  1.00  0.00    -0.327 N 
HETATM   32  C   UNL     1      -3.622   6.864 -27.404  1.00  0.00     0.226 C 
HETATM   33  O   UNL     1      -3.424   7.685 -28.294  1.00  0.00    -0.273 OA
HETATM   34  H   UNL     1      -4.752   5.441 -26.460  1.00  0.00     0.169 HD
BRANCH  32  35
HETATM   35  C   UNL     1      -2.589   6.627 -26.311  1.00  0.00     0.141 C 
BRANCH  35  36
HETATM   36  C   UNL     1      -1.233   7.184 -26.657  1.00  0.00    -0.050 A 
HETATM   37  C   UNL     1      -0.326   6.412 -27.396  1.00  0.00     0.007 A 
HETATM   38  C   UNL     1       0.934   6.917 -27.719  1.00  0.00     0.001 A 
HETATM   39  C   UNL     1       1.303   8.193 -27.301  1.00  0.00     0.000 A 
HETATM   40  C   UNL     1       0.411   8.967 -26.559  1.00  0.00     0.001 A 
HETATM   41  C   UNL     1      -0.851   8.466 -26.238  1.00  0.00     0.007 A 
ENDBRANCH  35  36
ENDBRANCH  32  35
ENDBRANCH  28  31
ENDBRANCH   1  25
TORSDOF 7
ENDMDL
MODEL 7
REMARK VINA RESULT:      -9.3      2.116      2.754
REMARK  7 active torsions:
REMARK  status: ('A' for Active; 'I' for Inactive)
REMARK    1  A    between atoms: C_4  and  C_5 
REMARK    2  A    between atoms: C_5  and  C_6 
REMARK       I    between atoms: C_6  and  N_7 
REMARK    3  A    between atoms: N_7  and  C_8 
REMARK    4  A    between atoms: C_11  and  C_12 
REMARK       I    between atoms: C_12  and  N_13 
REMARK    5  A    between atoms: N_13  and  C_14 
REMARK    6  A    between atoms: C_15  and  C_16 
REMARK       I    between atoms: C_16  and  N_17 
REMARK    7  A    between atoms: N_20  and  C_21 
ROOT
HETATM    1  C   UNL     1      -6.411   6.320 -29.968  1.00  0.00     0.256 C 
HETATM    2  N   UNL     1      -6.520   5.717 -31.225  1.00  0.00    -0.322 N 
HETATM    3  O   UNL     1      -7.354   6.477 -29.194  1.00  0.00    -0.267 OA
HETATM    4  H   UNL     1      -5.935   6.151 -31.926  1.00  0.00     0.169 HD
ENDROOT
BRANCH   2   5
HETATM    5  C   UNL     1      -7.804   5.303 -31.661  1.00  0.00     0.050 C 
HETATM    6  C   UNL     1      -8.429   4.098 -31.270  1.00  0.00     0.059 C 
HETATM    7  C   UNL     1      -9.821   4.005 -31.437  1.00  0.00     0.019 C 
HETATM    8  C   UNL     1     -10.536   4.975 -32.146  1.00  0.00     0.001 C 
HETATM    9  C   UNL     1      -9.873   6.071 -32.680  1.00  0.00     0.002 C 
HETATM   10  C   UNL     1      -8.514   6.244 -32.429  1.00  0.00     0.030 C 
BRANCH   6  11
HETATM   11  C   UNL     1      -7.652   2.928 -30.717  1.00  0.00     0.256 C 
HETATM   12  N   UNL     1      -7.317   1.824 -31.530  1.00  0.00    -0.345 N 
HETATM   13  C   UNL     1      -7.573   1.684 -32.974  1.00  0.00     0.146 C 
HETATM   14  C   UNL     1      -7.013   0.568 -30.822  1.00  0.00     0.146 C 
HETATM   15  C   UNL     1      -6.624   0.706 -33.698  1.00  0.00     0.143 C 
HETATM   16  N   UNL     1      -6.571  -0.571 -32.961  1.00  0.00    -0.378 N 
HETATM   17  C   UNL     1      -6.075  -0.383 -31.586  1.00  0.00     0.143 C 
HETATM   18  O   UNL     1      -7.264   2.946 -29.549  1.00  0.00    -0.267 OA
BRANCH  16  19
HETATM   19  C   UNL     1      -6.138  -1.674 -33.700  1.00  0.00     0.030 A 
HETATM   20  C   UNL     1      -4.789  -2.009 -33.878  1.00  0.00     0.029 A 
HETATM   21  C   UNL     1      -4.409  -3.155 -34.587  1.00  0.00     0.002 A 
HETATM   22  C   UNL     1      -5.375  -3.996 -35.130  1.00  0.00     0.000 A 
HETATM   23  C   UNL     1      -6.721  -3.690 -34.964  1.00  0.00     0.002 A 
HETATM   24  C   UNL     1      -7.093  -2.541 -34.259  1.00  0.00     0.029 A 
ENDBRANCH  16  19
ENDBRANCH   6  11
ENDBRANCH   2   5
BRANCH   1  25
HETATM   25  C   UNL     1      -5.097   6.949 -29.627  1.00  0.00     0.032 A 
HETATM   26  C   UNL     1      -4.866   7.675 -28.454  1.00  0.00     0.019 A 
HETATM   27  C   UNL     1      -3.575   8.137 -28.149  1.00  0.00     0.030 A 
HETATM   28  C   UNL     1      -2.509   7.903 -29.019  1.00  0.00     0.034 A 
HETATM   29  C   UNL     1      -2.756   7.235 -30.222  1.00  0.00     0.030 A 
HETATM   30  C   UNL     1      -4.034   6.758 -30.520  1.00  0.00     0.019 A 
BRANCH  28  31
HETATM   31  N   UNL     1      -1.174   8.272 -28.760  1.00  0.00    -0.327 N 
HETATM   32  C   UNL     1      -0.137   7.459 -28.329  1.00  0.00     0.226 C 
HETATM   33  O   UNL     1      -0.218   6.273 -28.026  1.00  0.00    -0.273 OA
HETATM   34  H   UNL     1      -0.942   9.239 -28.944  1.00  0.00     0.169 HD
BRANCH  32  35
HETATM   35  C   UNL     1       1.199   8.189 -28.294  1.00  0.00     0.141 C 
BRANCH  35  36
HETATM   36  C   UNL     1       1.482   8.828 -26.960  1.00  0.00    -0.050 A 
HETATM   37  C   UNL     1       1.145  10.172 -26.741  1.00  0.00     0.007 A 
HETATM   38  C   UNL     1       1.406  10.775 -25.511  1.00  0.00     0.001 A 
HETATM   39  C   UNL     1       2.011  10.046 -24.490  1.00  0.00     0.000 A 
HETATM   40  C   UNL     1       2.357   8.712 -24.699  1.00  0.00     0.001 A 
HETATM   41  C   UNL     1       2.094   8.104 -25.927  1.00  0.00     0.007 A 
ENDBRANCH  35  36
ENDBRANCH  32  35
ENDBRANCH  28  31
ENDBRANCH   1  25
TORSDOF 7
ENDMDL
MODEL 8
REMARK VINA RESULT:      -9.2      3.420     10.784
REMARK  7 active torsions:
REMARK  status: ('A' for Active; 'I' for Inactive)
REMARK    1  A    between atoms: C_4  and  C_5 
REMARK    2  A    between atoms: C_5  and  C_6 
REMARK       I    between atoms: C_6  and  N_7 
REMARK    3  A    between atoms: N_7  and  C_8 
REMARK    4  A    between atoms: C_11  and  C_12 
REMARK       I    between atoms: C_12  and  N_13 
REMARK    5  A    between atoms: N_13  and  C_14 
REMARK    6  A    between atoms: C_15  and  C_16 
REMARK       I    between atoms: C_16  and  N_17 
REMARK    7  A    between atoms: N_20  and  C_21 
ROOT
HETATM    1  C   UNL     1      -8.310   1.138 -34.227  1.00  0.00     0.256 C 
HETATM    2  N   UNL     1      -8.144  -0.114 -33.626  1.00  0.00    -0.322 N 
HETATM    3  O   UNL     1      -7.407   1.764 -34.779  1.00  0.00    -0.267 OA
HETATM    4  H   UNL     1      -8.686  -0.223 -32.780  1.00  0.00     0.169 HD
ENDROOT
BRANCH   2   5
HETATM    5  C   UNL     1      -6.844  -0.681 -33.606  1.00  0.00     0.050 C 
HETATM    6  C   UNL     1      -5.897  -0.468 -32.579  1.00  0.00     0.059 C 
HETATM    7  C   UNL     1      -4.838  -1.384 -32.473  1.00  0.00     0.019 C 
HETATM    8  C   UNL     1      -4.607  -2.348 -33.459  1.00  0.00     0.001 C 
HETATM    9  C   UNL     1      -5.451  -2.429 -34.559  1.00  0.00     0.002 C 
HETATM   10  C   UNL     1      -6.573  -1.608 -34.628  1.00  0.00     0.030 C 
BRANCH   6  11
HETATM   11  C   UNL     1      -5.980   0.708 -31.635  1.00  0.00     0.256 C 
HETATM   12  N   UNL     1      -5.034   1.753 -31.687  1.00  0.00    -0.345 N 
HETATM   13  C   UNL     1      -3.940   1.904 -32.662  1.00  0.00     0.146 C 
HETATM   14  C   UNL     1      -4.901   2.567 -30.465  1.00  0.00     0.146 C 
HETATM   15  C   UNL     1      -3.455   3.356 -32.858  1.00  0.00     0.143 C 
HETATM   16  N   UNL     1      -3.191   3.973 -31.545  1.00  0.00    -0.378 N 
HETATM   17  C   UNL     1      -4.402   4.002 -30.706  1.00  0.00     0.143 C 
HETATM   18  O   UNL     1      -6.909   0.785 -30.832  1.00  0.00    -0.267 OA
BRANCH  16  19
HETATM   19  C   UNL     1      -2.344   5.082 -31.561  1.00  0.00     0.030 A 
HETATM   20  C   UNL     1      -0.998   5.038 -31.173  1.00  0.00     0.029 A 
HETATM   21  C   UNL     1      -0.177   6.170 -31.256  1.00  0.00     0.002 A 
HETATM   22  C   UNL     1      -0.686   7.372 -31.737  1.00  0.00     0.000 A 
HETATM   23  C   UNL     1      -2.016   7.442 -32.133  1.00  0.00     0.002 A 
HETATM   24  C   UNL     1      -2.831   6.310 -32.042  1.00  0.00     0.029 A 
ENDBRANCH  16  19
ENDBRANCH   6  11
ENDBRANCH   2   5
BRANCH   1  25
HETATM   25  C   UNL     1      -9.631   1.814 -34.036  1.00  0.00     0.032 A 
HETATM   26  C   UNL     1     -10.817   1.131 -33.746  1.00  0.00     0.019 A 
HETATM   27  C   UNL     1     -11.995   1.843 -33.465  1.00  0.00     0.030 A 
HETATM   28  C   UNL     1     -12.010   3.238 -33.494  1.00  0.00     0.034 A 
HETATM   29  C   UNL     1     -10.840   3.917 -33.850  1.00  0.00     0.030 A 
HETATM   30  C   UNL     1      -9.662   3.213 -34.112  1.00  0.00     0.019 A 
BRANCH  28  31
HETATM   31  N   UNL     1     -13.127   4.030 -33.162  1.00  0.00    -0.327 N 
HETATM   32  C   UNL     1     -13.625   4.308 -31.900  1.00  0.00     0.226 C 
HETATM   33  O   UNL     1     -13.216   3.850 -30.837  1.00  0.00    -0.273 OA
HETATM   34  H   UNL     1     -13.598   4.473 -33.940  1.00  0.00     0.169 HD
BRANCH  32  35
HETATM   35  C   UNL     1     -14.766   5.316 -31.931  1.00  0.00     0.141 C 
BRANCH  35  36
HETATM   36  C   UNL     1     -16.121   4.664 -32.008  1.00  0.00    -0.050 A 
HETATM   37  C   UNL     1     -17.279   5.454 -32.020  1.00  0.00     0.007 A 
HETATM   38  C   UNL     1     -18.539   4.861 -32.087  1.00  0.00     0.001 A 
HETATM   39  C   UNL     1     -18.656   3.474 -32.137  1.00  0.00     0.000 A 
HETATM   40  C   UNL     1     -17.512   2.678 -32.119  1.00  0.00     0.001 A 
HETATM   41  C   UNL     1     -16.249   3.269 -32.055  1.00  0.00     0.007 A 
ENDBRANCH  35  36
ENDBRANCH  32  35
ENDBRANCH  28  31
ENDBRANCH   1  25
TORSDOF 7
ENDMDL
MODEL 9
REMARK VINA RESULT:      -9.0      3.600     11.215
REMARK  7 active torsions:
REMARK  status: ('A' for Active; 'I' for Inactive)
REMARK    1  A    between atoms: C_4  and  C_5 
REMARK    2  A    between atoms: C_5  and  C_6 
REMARK       I    between atoms: C_6  and  N_7 
REMARK    3  A    between atoms: N_7  and  C_8 
REMARK    4  A    between atoms: C_11  and  C_12 
REMARK       I    between atoms: C_12  and  N_13 
REMARK    5  A    between atoms: N_13  and  C_14 
REMARK    6  A    between atoms: C_15  and  C_16 
REMARK       I    between atoms: C_16  and  N_17 
REMARK    7  A    between atoms: N_20  and  C_21 
ROOT
HETATM    1  C   UNL     1      -9.766   1.779 -33.992  1.00  0.00     0.256 C 
HETATM    2  N   UNL     1      -8.431   1.992 -34.353  1.00  0.00    -0.322 N 
HETATM    3  O   UNL     1     -10.169   0.781 -33.398  1.00  0.00    -0.267 OA
HETATM    4  H   UNL     1      -8.330   2.444 -35.252  1.00  0.00     0.169 HD
ENDROOT
BRANCH   2   5
HETATM    5  C   UNL     1      -7.487   0.974 -34.063  1.00  0.00     0.050 C 
HETATM    6  C   UNL     1      -6.780   0.867 -32.845  1.00  0.00     0.059 C 
HETATM    7  C   UNL     1      -6.204  -0.376 -32.536  1.00  0.00     0.019 C 
HETATM    8  C   UNL     1      -6.153  -1.409 -33.477  1.00  0.00     0.001 C 
HETATM    9  C   UNL     1      -6.701  -1.224 -34.739  1.00  0.00     0.002 C 
HETATM   10  C   UNL     1      -7.377  -0.042 -35.029  1.00  0.00     0.030 C 
BRANCH   6  11
HETATM   11  C   UNL     1      -6.608   2.036 -31.905  1.00  0.00     0.256 C 
HETATM   12  N   UNL     1      -5.408   2.777 -31.873  1.00  0.00    -0.345 N 
HETATM   13  C   UNL     1      -4.240   2.601 -32.754  1.00  0.00     0.146 C 
HETATM   14  C   UNL     1      -5.153   3.544 -30.640  1.00  0.00     0.146 C 
HETATM   15  C   UNL     1      -3.357   3.857 -32.902  1.00  0.00     0.143 C 
HETATM   16  N   UNL     1      -3.038   4.400 -31.568  1.00  0.00    -0.378 N 
HETATM   17  C   UNL     1      -4.257   4.780 -30.832  1.00  0.00     0.143 C 
HETATM   18  O   UNL     1      -7.541   2.383 -31.180  1.00  0.00    -0.267 OA
BRANCH  16  19
HETATM   19  C   UNL     1      -1.917   5.230 -31.509  1.00  0.00     0.030 A 
HETATM   20  C   UNL     1      -1.887   6.533 -32.024  1.00  0.00     0.029 A 
HETATM   21  C   UNL     1      -0.752   7.343 -31.895  1.00  0.00     0.002 A 
HETATM   22  C   UNL     1       0.379   6.867 -31.239  1.00  0.00     0.000 A 
HETATM   23  C   UNL     1       0.374   5.580 -30.715  1.00  0.00     0.002 A 
HETATM   24  C   UNL     1      -0.761   4.775 -30.852  1.00  0.00     0.029 A 
ENDBRANCH  16  19
ENDBRANCH   6  11
ENDBRANCH   2   5
BRANCH   1  25
HETATM   25  C   UNL     1     -10.774   2.757 -34.508  1.00  0.00     0.032 A 
HETATM   26  C   UNL     1     -12.143   2.487 -34.592  1.00  0.00     0.019 A 
HETATM   27  C   UNL     1     -13.043   3.495 -34.977  1.00  0.00     0.030 A 
HETATM   28  C   UNL     1     -12.586   4.772 -35.306  1.00  0.00     0.034 A 
HETATM   29  C   UNL     1     -11.210   5.020 -35.285  1.00  0.00     0.030 A 
HETATM   30  C   UNL     1     -10.314   4.026 -34.885  1.00  0.00     0.019 A 
BRANCH  28  31
HETATM   31  N   UNL     1     -13.421   5.856 -35.637  1.00  0.00    -0.327 N 
HETATM   32  C   UNL     1     -14.078   6.717 -34.773  1.00  0.00     0.226 C 
HETATM   33  O   UNL     1     -14.104   6.641 -33.548  1.00  0.00    -0.273 OA
HETATM   34  H   UNL     1     -13.525   6.046 -36.626  1.00  0.00     0.169 HD
BRANCH  32  35
HETATM   35  C   UNL     1     -14.780   7.855 -35.503  1.00  0.00     0.141 C 
BRANCH  35  36
HETATM   36  C   UNL     1     -16.032   7.411 -36.212  1.00  0.00    -0.050 A 
HETATM   37  C   UNL     1     -17.202   7.164 -35.480  1.00  0.00     0.007 A 
HETATM   38  C   UNL     1     -18.366   6.749 -36.126  1.00  0.00     0.001 A 
HETATM   39  C   UNL     1     -18.373   6.569 -37.507  1.00  0.00     0.000 A 
HETATM   40  C   UNL     1     -17.213   6.805 -38.244  1.00  0.00     0.001 A 
HETATM   41  C   UNL     1     -16.047   7.224 -37.601  1.00  0.00     0.007 A 
ENDBRANCH  35  36
ENDBRANCH  32  35
ENDBRANCH  28  31
ENDBRANCH   1  25
TORSDOF 7
ENDMDL
MODEL 10
REMARK VINA RESULT:      -8.7      5.608      8.442
REMARK  7 active torsions:
REMARK  status: ('A' for Active; 'I' for Inactive)
REMARK    1  A    between atoms: C_4  and  C_5 
REMARK    2  A    between atoms: C_5  and  C_6 
REMARK       I    between atoms: C_6  and  N_7 
REMARK    3  A    between atoms: N_7  and  C_8 
REMARK    4  A    between atoms: C_11  and  C_12 
REMARK       I    between atoms: C_12  and  N_13 
REMARK    5  A    between atoms: N_13  and  C_14 
REMARK    6  A    between atoms: C_15  and  C_16 
REMARK       I    between atoms: C_16  and  N_17 
REMARK    7  A    between atoms: N_20  and  C_21 
ROOT
HETATM    1  C   UNL     1      -5.330   6.627 -29.075  1.00  0.00     0.256 C 
HETATM    2  N   UNL     1      -5.100   6.326 -30.422  1.00  0.00    -0.322 N 
HETATM    3  O   UNL     1      -4.520   6.417 -28.174  1.00  0.00    -0.267 OA
HETATM    4  H   UNL     1      -5.924   5.987 -30.899  1.00  0.00     0.169 HD
ENDROOT
BRANCH   2   5
HETATM    5  C   UNL     1      -3.879   5.694 -30.769  1.00  0.00     0.050 C 
HETATM    6  C   UNL     1      -3.769   4.350 -31.190  1.00  0.00     0.059 C 
HETATM    7  C   UNL     1      -2.603   3.978 -31.877  1.00  0.00     0.019 C 
HETATM    8  C   UNL     1      -1.505   4.840 -31.968  1.00  0.00     0.001 C 
HETATM    9  C   UNL     1      -1.566   6.101 -31.391  1.00  0.00     0.002 C 
HETATM   10  C   UNL     1      -2.752   6.534 -30.804  1.00  0.00     0.030 C 
BRANCH   6  11
HETATM   11  C   UNL     1      -4.838   3.323 -30.899  1.00  0.00     0.256 C 
HETATM   12  N   UNL     1      -4.906   2.116 -31.626  1.00  0.00    -0.345 N 
HETATM   13  C   UNL     1      -3.958   1.651 -32.653  1.00  0.00     0.146 C 
HETATM   14  C   UNL     1      -6.211   1.430 -31.622  1.00  0.00     0.146 C 
HETATM   15  C   UNL     1      -3.925   0.120 -32.846  1.00  0.00     0.143 C 
HETATM   16  N   UNL     1      -5.300  -0.389 -33.011  1.00  0.00    -0.378 N 
HETATM   17  C   UNL     1      -6.133  -0.092 -31.831  1.00  0.00     0.143 C 
HETATM   18  O   UNL     1      -5.642   3.515 -29.987  1.00  0.00    -0.267 OA
BRANCH  16  19
HETATM   19  C   UNL     1      -5.410  -1.636 -33.629  1.00  0.00     0.030 A 
HETATM   20  C   UNL     1      -4.346  -2.540 -33.750  1.00  0.00     0.029 A 
HETATM   21  C   UNL     1      -4.522  -3.800 -34.335  1.00  0.00     0.002 A 
HETATM   22  C   UNL     1      -5.772  -4.185 -34.808  1.00  0.00     0.000 A 
HETATM   23  C   UNL     1      -6.846  -3.310 -34.696  1.00  0.00     0.002 A 
HETATM   24  C   UNL     1      -6.662  -2.052 -34.116  1.00  0.00     0.029 A 
ENDBRANCH  16  19
ENDBRANCH   6  11
ENDBRANCH   2   5
BRANCH   1  25
HETATM   25  C   UNL     1      -6.707   7.081 -28.705  1.00  0.00     0.032 A 
HETATM   26  C   UNL     1      -7.856   6.307 -28.898  1.00  0.00     0.019 A 
HETATM   27  C   UNL     1      -9.099   6.752 -28.418  1.00  0.00     0.030 A 
HETATM   28  C   UNL     1      -9.214   7.981 -27.765  1.00  0.00     0.034 A 
HETATM   29  C   UNL     1      -8.075   8.782 -27.633  1.00  0.00     0.030 A 
HETATM   30  C   UNL     1      -6.835   8.334 -28.092  1.00  0.00     0.019 A 
BRANCH  28  31
HETATM   31  N   UNL     1     -10.406   8.472 -27.197  1.00  0.00    -0.327 N 
HETATM   32  C   UNL     1     -10.768   8.479 -25.859  1.00  0.00     0.226 C 
HETATM   33  O   UNL     1     -10.134   7.989 -24.929  1.00  0.00    -0.273 OA
HETATM   34  H   UNL     1     -11.057   8.900 -27.842  1.00  0.00     0.169 HD
BRANCH  32  35
HETATM   35  C   UNL     1     -12.075   9.221 -25.613  1.00  0.00     0.141 C 
BRANCH  35  36
HETATM   36  C   UNL     1     -13.165   8.326 -25.084  1.00  0.00    -0.050 A 
HETATM   37  C   UNL     1     -13.676   7.296 -25.886  1.00  0.00     0.007 A 
HETATM   38  C   UNL     1     -14.688   6.464 -25.408  1.00  0.00     0.001 A 
HETATM   39  C   UNL     1     -15.204   6.656 -24.129  1.00  0.00     0.000 A 
HETATM   40  C   UNL     1     -14.708   7.681 -23.325  1.00  0.00     0.001 A 
HETATM   41  C   UNL     1     -13.693   8.514 -23.799  1.00  0.00     0.007 A 
ENDBRANCH  35  36
ENDBRANCH  32  35
ENDBRANCH  28  31
ENDBRANCH   1  25
TORSDOF 7
ENDMDL
