MODEL 1
REMARK VINA RESULT:      -8.0      0.000      0.000
REMARK  5 active torsions:
REMARK  status: ('A' for Active; 'I' for Inactive)
REMARK    1  A    between atoms: C_4  and  O_5 
REMARK    2  A    between atoms: O_5  and  C_6 
REMARK    3  A    between atoms: C_6  and  C_7 
REMARK    4  A    between atoms: C_11  and  N_12 
REMARK       I    between atoms: N_12  and  C_13 
REMARK       I    between atoms: C_13  and  N_14 
REMARK    5  A    between atoms: N_14  and  C_15 
ROOT
HETATM    1  N   UNL     1      -4.745   0.166 -31.921  1.00  0.00    -0.306 N 
HETATM    2  C   UNL     1      -4.925   1.521 -31.904  1.00  0.00     0.325 C 
HETATM    3  N   UNL     1      -5.292   2.111 -33.077  1.00  0.00    -0.305 N 
HETATM    4  O   UNL     1      -4.662   2.099 -30.853  1.00  0.00    -0.247 OA
HETATM    5  H   UNL     1      -4.124  -0.111 -31.170  1.00  0.00     0.171 HD
HETATM    6  H   UNL     1      -5.448   1.509 -33.865  1.00  0.00     0.171 HD
ENDROOT
BRANCH   1   7
HETATM    7  C   UNL     1      -5.080  -0.843 -32.842  1.00  0.00     0.069 A 
HETATM    8  C   UNL     1      -6.431  -0.972 -33.198  1.00  0.00     0.096 A 
HETATM    9  C   UNL     1      -6.866  -2.008 -34.025  1.00  0.00     0.046 A 
HETATM   10  C   UNL     1      -5.934  -2.889 -34.584  1.00  0.00    -0.059 A 
HETATM   11  C   UNL     1      -6.388  -4.046 -35.425  1.00  0.00     0.048 C 
HETATM   12  C   UNL     1      -4.575  -2.709 -34.302  1.00  0.00     0.009 A 
HETATM   13  C   UNL     1      -4.147  -1.685 -33.448  1.00  0.00     0.033 A 
BRANCH   8  14
HETATM   14  O   UNL     1      -7.370  -0.134 -32.649  1.00  0.00    -0.340 OA
BRANCH  14  15
HETATM   15  C   UNL     1      -8.567  -0.107 -33.450  1.00  0.00     0.293 C 
BRANCH  15  16
HETATM   16  C   UNL     1      -9.802   0.112 -32.591  1.00  0.00     0.408 C 
HETATM   17  F   UNL     1     -10.626  -0.958 -32.612  1.00  0.00    -0.169 F 
HETATM   18  F   UNL     1      -9.447   0.325 -31.302  1.00  0.00    -0.169 F 
HETATM   19  F   UNL     1     -10.505   1.191 -33.000  1.00  0.00    -0.169 F 
ENDBRANCH  15  16
ENDBRANCH  14  15
ENDBRANCH   8  14
ENDBRANCH   1   7
BRANCH   3  20
HETATM   20  C   UNL     1      -5.362   3.466 -33.354  1.00  0.00     0.086 A 
HETATM   21  C   UNL     1      -4.389   4.502 -33.477  1.00  0.00     0.079 A 
HETATM   22  C   UNL     1      -2.907   4.452 -33.393  1.00  0.00     0.075 C 
HETATM   23  N   UNL     1      -4.964   5.677 -33.775  1.00  0.00    -0.177 NA
HETATM   24  N   UNL     1      -6.267   5.399 -33.850  1.00  0.00    -0.280 N 
HETATM   25  H   UNL     1      -6.902   6.160 -34.070  1.00  0.00     0.189 HD
HETATM   26  C   UNL     1      -6.567   4.088 -33.624  1.00  0.00     0.052 A 
HETATM   27  C   UNL     1      -7.965   3.597 -33.657  1.00  0.00     0.072 C 
ENDBRANCH   3  20
TORSDOF 5
ENDMDL
MODEL 2
REMARK VINA RESULT:      -7.9      3.341      4.420
REMARK  5 active torsions:
REMARK  status: ('A' for Active; 'I' for Inactive)
REMARK    1  A    between atoms: C_4  and  O_5 
REMARK    2  A    between atoms: O_5  and  C_6 
REMARK    3  A    between atoms: C_6  and  C_7 
REMARK    4  A    between atoms: C_11  and  N_12 
REMARK       I    between atoms: N_12  and  C_13 
REMARK       I    between atoms: C_13  and  N_14 
REMARK    5  A    between atoms: N_14  and  C_15 
ROOT
HETATM    1  N   UNL     1      -5.842   0.701 -34.163  1.00  0.00    -0.306 N 
HETATM    2  C   UNL     1      -6.495   1.594 -33.360  1.00  0.00     0.325 C 
HETATM    3  N   UNL     1      -7.565   1.127 -32.657  1.00  0.00    -0.305 N 
HETATM    4  O   UNL     1      -6.110   2.760 -33.404  1.00  0.00    -0.247 OA
HETATM    5  H   UNL     1      -5.353   1.192 -34.903  1.00  0.00     0.171 HD
HETATM    6  H   UNL     1      -7.778   0.149 -32.740  1.00  0.00     0.171 HD
ENDROOT
BRANCH   1   7
HETATM    7  C   UNL     1      -5.870  -0.700 -34.273  1.00  0.00     0.069 A 
HETATM    8  C   UNL     1      -4.695  -1.398 -33.952  1.00  0.00     0.096 A 
HETATM    9  C   UNL     1      -4.603  -2.779 -34.129  1.00  0.00     0.046 A 
HETATM   10  C   UNL     1      -5.723  -3.503 -34.553  1.00  0.00    -0.059 A 
HETATM   11  C   UNL     1      -5.626  -4.978 -34.808  1.00  0.00     0.048 C 
HETATM   12  C   UNL     1      -6.923  -2.821 -34.787  1.00  0.00     0.009 A 
HETATM   13  C   UNL     1      -7.002  -1.431 -34.636  1.00  0.00     0.033 A 
BRANCH   8  14
HETATM   14  O   UNL     1      -3.575  -0.712 -33.554  1.00  0.00    -0.340 OA
BRANCH  14  15
HETATM   15  C   UNL     1      -3.204  -1.069 -32.208  1.00  0.00     0.293 C 
BRANCH  15  16
HETATM   16  C   UNL     1      -3.289   0.129 -31.276  1.00  0.00     0.408 C 
HETATM   17  F   UNL     1      -4.296   0.002 -30.384  1.00  0.00    -0.169 F 
HETATM   18  F   UNL     1      -2.140   0.260 -30.573  1.00  0.00    -0.169 F 
HETATM   19  F   UNL     1      -3.477   1.278 -31.961  1.00  0.00    -0.169 F 
ENDBRANCH  15  16
ENDBRANCH  14  15
ENDBRANCH   8  14
ENDBRANCH   1   7
BRANCH   3  20
HETATM   20  C   UNL     1      -8.481   1.864 -31.925  1.00  0.00     0.086 A 
HETATM   21  C   UNL     1      -8.394   2.655 -30.741  1.00  0.00     0.079 A 
HETATM   22  C   UNL     1      -7.226   3.001 -29.892  1.00  0.00     0.075 C 
HETATM   23  N   UNL     1      -9.583   3.193 -30.426  1.00  0.00    -0.177 NA
HETATM   24  N   UNL     1     -10.404   2.767 -31.388  1.00  0.00    -0.280 N 
HETATM   25  H   UNL     1     -11.375   3.061 -31.346  1.00  0.00     0.189 HD
HETATM   26  C   UNL     1      -9.800   1.981 -32.325  1.00  0.00     0.052 A 
HETATM   27  C   UNL     1     -10.559   1.410 -33.462  1.00  0.00     0.072 C 
ENDBRANCH   3  20
TORSDOF 5
ENDMDL
MODEL 3
REMARK VINA RESULT:      -7.8      2.475      3.295
REMARK  5 active torsions:
REMARK  status: ('A' for Active; 'I' for Inactive)
REMARK    1  A    between atoms: C_4  and  O_5 
REMARK    2  A    between atoms: O_5  and  C_6 
REMARK    3  A    between atoms: C_6  and  C_7 
REMARK    4  A    between atoms: C_11  and  N_12 
REMARK       I    between atoms: N_12  and  C_13 
REMARK       I    between atoms: C_13  and  N_14 
REMARK    5  A    between atoms: N_14  and  C_15 
ROOT
HETATM    1  N   UNL     1      -4.455   2.271 -31.382  1.00  0.00    -0.306 N 
HETATM    2  C   UNL     1      -4.109   3.505 -31.857  1.00  0.00     0.325 C 
HETATM    3  N   UNL     1      -3.081   3.558 -32.751  1.00  0.00    -0.305 N 
HETATM    4  O   UNL     1      -4.700   4.467 -31.375  1.00  0.00    -0.247 OA
HETATM    5  H   UNL     1      -4.918   2.361 -30.485  1.00  0.00     0.171 HD
HETATM    6  H   UNL     1      -2.675   2.685 -33.036  1.00  0.00     0.171 HD
ENDROOT
BRANCH   1   7
HETATM    7  C   UNL     1      -4.144   0.959 -31.781  1.00  0.00     0.069 A 
HETATM    8  C   UNL     1      -4.900   0.402 -32.823  1.00  0.00     0.096 A 
HETATM    9  C   UNL     1      -4.726  -0.927 -33.213  1.00  0.00     0.046 A 
HETATM   10  C   UNL     1      -3.724  -1.701 -32.619  1.00  0.00    -0.059 A 
HETATM   11  C   UNL     1      -3.563  -3.148 -32.982  1.00  0.00     0.048 C 
HETATM   12  C   UNL     1      -2.907  -1.120 -31.642  1.00  0.00     0.009 A 
HETATM   13  C   UNL     1      -3.105   0.205 -31.234  1.00  0.00     0.033 A 
BRANCH   8  14
HETATM   14  O   UNL     1      -5.905   1.131 -33.410  1.00  0.00    -0.340 OA
BRANCH  14  15
HETATM   15  C   UNL     1      -7.144   0.395 -33.407  1.00  0.00     0.293 C 
BRANCH  15  16
HETATM   16  C   UNL     1      -7.622   0.114 -34.822  1.00  0.00     0.408 C 
HETATM   17  F   UNL     1      -8.932   0.405 -34.979  1.00  0.00    -0.169 F 
HETATM   18  F   UNL     1      -6.931   0.866 -35.711  1.00  0.00    -0.169 F 
HETATM   19  F   UNL     1      -7.437  -1.181 -35.160  1.00  0.00    -0.169 F 
ENDBRANCH  15  16
ENDBRANCH  14  15
ENDBRANCH   8  14
ENDBRANCH   1   7
BRANCH   3  20
HETATM   20  C   UNL     1      -2.439   4.686 -33.233  1.00  0.00     0.086 A 
HETATM   21  C   UNL     1      -1.297   5.430 -32.812  1.00  0.00     0.079 A 
HETATM   22  C   UNL     1      -0.349   5.196 -31.693  1.00  0.00     0.075 C 
HETATM   23  N   UNL     1      -1.058   6.464 -33.634  1.00  0.00    -0.177 NA
HETATM   24  N   UNL     1      -2.014   6.377 -34.562  1.00  0.00    -0.280 N 
HETATM   25  H   UNL     1      -2.024   7.074 -35.299  1.00  0.00     0.189 HD
HETATM   26  C   UNL     1      -2.863   5.323 -34.385  1.00  0.00     0.052 A 
HETATM   27  C   UNL     1      -3.991   5.075 -35.313  1.00  0.00     0.072 C 
ENDBRANCH   3  20
TORSDOF 5
ENDMDL
MODEL 4
REMARK VINA RESULT:      -7.7      0.544      1.909
REMARK  5 active torsions:
REMARK  status: ('A' for Active; 'I' for Inactive)
REMARK    1  A    between atoms: C_4  and  O_5 
REMARK    2  A    between atoms: O_5  and  C_6 
REMARK    3  A    between atoms: C_6  and  C_7 
REMARK    4  A    between atoms: C_11  and  N_12 
REMARK       I    between atoms: N_12  and  C_13 
REMARK       I    between atoms: C_13  and  N_14 
REMARK    5  A    between atoms: N_14  and  C_15 
ROOT
HETATM    1  N   UNL     1      -5.102   0.206 -31.804  1.00  0.00    -0.306 N 
HETATM    2  C   UNL     1      -5.232   1.566 -31.836  1.00  0.00     0.325 C 
HETATM    3  N   UNL     1      -5.393   2.144 -33.059  1.00  0.00    -0.305 N 
HETATM    4  O   UNL     1      -5.111   2.157 -30.765  1.00  0.00    -0.247 OA
HETATM    5  H   UNL     1      -4.614  -0.077 -30.962  1.00  0.00     0.171 HD
HETATM    6  H   UNL     1      -5.450   1.532 -33.853  1.00  0.00     0.171 HD
ENDROOT
BRANCH   1   7
HETATM    7  C   UNL     1      -5.329  -0.810 -32.750  1.00  0.00     0.069 A 
HETATM    8  C   UNL     1      -6.647  -0.997 -33.194  1.00  0.00     0.096 A 
HETATM    9  C   UNL     1      -6.979  -2.045 -34.054  1.00  0.00     0.046 A 
HETATM   10  C   UNL     1      -5.973  -2.879 -34.555  1.00  0.00    -0.059 A 
HETATM   11  C   UNL     1      -6.318  -4.047 -35.430  1.00  0.00     0.048 C 
HETATM   12  C   UNL     1      -4.645  -2.638 -34.184  1.00  0.00     0.009 A 
HETATM   13  C   UNL     1      -4.321  -1.603 -33.299  1.00  0.00     0.033 A 
BRANCH   8  14
HETATM   14  O   UNL     1      -7.658  -0.208 -32.703  1.00  0.00    -0.340 OA
BRANCH  14  15
HETATM   15  C   UNL     1      -8.530   0.231 -33.763  1.00  0.00     0.293 C 
BRANCH  15  16
HETATM   16  C   UNL     1      -9.928   0.521 -33.243  1.00  0.00     0.408 C 
HETATM   17  F   UNL     1      -9.923   1.490 -32.301  1.00  0.00    -0.169 F 
HETATM   18  F   UNL     1     -10.727   0.942 -34.252  1.00  0.00    -0.169 F 
HETATM   19  F   UNL     1     -10.498  -0.581 -32.709  1.00  0.00    -0.169 F 
ENDBRANCH  15  16
ENDBRANCH  14  15
ENDBRANCH   8  14
ENDBRANCH   1   7
BRANCH   3  20
HETATM   20  C   UNL     1      -5.370   3.494 -33.364  1.00  0.00     0.086 A 
HETATM   21  C   UNL     1      -6.371   4.447 -33.718  1.00  0.00     0.079 A 
HETATM   22  C   UNL     1      -7.845   4.303 -33.833  1.00  0.00     0.075 C 
HETATM   23  N   UNL     1      -5.841   5.664 -33.910  1.00  0.00    -0.177 NA
HETATM   24  N   UNL     1      -4.537   5.498 -33.674  1.00  0.00    -0.280 N 
HETATM   25  H   UNL     1      -3.932   6.309 -33.763  1.00  0.00     0.189 HD
HETATM   26  C   UNL     1      -4.195   4.224 -33.327  1.00  0.00     0.052 A 
HETATM   27  C   UNL     1      -2.791   3.851 -33.038  1.00  0.00     0.072 C 
ENDBRANCH   3  20
TORSDOF 5
ENDMDL
MODEL 5
REMARK VINA RESULT:      -7.4      3.090      4.655
REMARK  5 active torsions:
REMARK  status: ('A' for Active; 'I' for Inactive)
REMARK    1  A    between atoms: C_4  and  O_5 
REMARK    2  A    between atoms: O_5  and  C_6 
REMARK    3  A    between atoms: C_6  and  C_7 
REMARK    4  A    between atoms: C_11  and  N_12 
REMARK       I    between atoms: N_12  and  C_13 
REMARK       I    between atoms: C_13  and  N_14 
REMARK    5  A    between atoms: N_14  and  C_15 
ROOT
HETATM    1  N   UNL     1      -6.794   2.003 -34.206  1.00  0.00    -0.306 N 
HETATM    2  C   UNL     1      -7.849   2.701 -33.689  1.00  0.00     0.325 C 
HETATM    3  N   UNL     1      -8.955   1.983 -33.342  1.00  0.00    -0.305 N 
HETATM    4  O   UNL     1      -7.740   3.924 -33.658  1.00  0.00    -0.247 OA
HETATM    5  H   UNL     1      -6.217   2.615 -34.773  1.00  0.00     0.171 HD
HETATM    6  H   UNL     1      -8.907   0.986 -33.448  1.00  0.00     0.171 HD
ENDROOT
BRANCH   1   7
HETATM    7  C   UNL     1      -6.471   0.636 -34.260  1.00  0.00     0.069 A 
HETATM    8  C   UNL     1      -5.483   0.168 -33.381  1.00  0.00     0.096 A 
HETATM    9  C   UNL     1      -5.031  -1.151 -33.436  1.00  0.00     0.046 A 
HETATM   10  C   UNL     1      -5.627  -2.054 -34.322  1.00  0.00    -0.059 A 
HETATM   11  C   UNL     1      -5.113  -3.459 -34.439  1.00  0.00     0.048 C 
HETATM   12  C   UNL     1      -6.676  -1.613 -35.137  1.00  0.00     0.009 A 
HETATM   13  C   UNL     1      -7.106  -0.281 -35.098  1.00  0.00     0.033 A 
BRANCH   8  14
HETATM   14  O   UNL     1      -4.865   1.037 -32.515  1.00  0.00    -0.340 OA
BRANCH  14  15
HETATM   15  C   UNL     1      -4.694   0.435 -31.218  1.00  0.00     0.293 C 
BRANCH  15  16
HETATM   16  C   UNL     1      -5.944   0.591 -30.367  1.00  0.00     0.408 C 
HETATM   17  F   UNL     1      -6.614   1.727 -30.660  1.00  0.00    -0.169 F 
HETATM   18  F   UNL     1      -6.790  -0.444 -30.580  1.00  0.00    -0.169 F 
HETATM   19  F   UNL     1      -5.648   0.606 -29.049  1.00  0.00    -0.169 F 
ENDBRANCH  15  16
ENDBRANCH  14  15
ENDBRANCH   8  14
ENDBRANCH   1   7
BRANCH   3  20
HETATM   20  C   UNL     1     -10.196   2.472 -32.970  1.00  0.00     0.086 A 
HETATM   21  C   UNL     1     -11.473   2.514 -33.603  1.00  0.00     0.079 A 
HETATM   22  C   UNL     1     -11.922   1.976 -34.912  1.00  0.00     0.075 C 
HETATM   23  N   UNL     1     -12.390   3.095 -32.813  1.00  0.00    -0.177 NA
HETATM   24  N   UNL     1     -11.720   3.406 -31.701  1.00  0.00    -0.280 N 
HETATM   25  H   UNL     1     -12.231   3.864 -30.953  1.00  0.00     0.189 HD
HETATM   26  C   UNL     1     -10.405   3.044 -31.728  1.00  0.00     0.052 A 
HETATM   27  C   UNL     1      -9.504   3.318 -30.584  1.00  0.00     0.072 C 
ENDBRANCH   3  20
TORSDOF 5
ENDMDL
MODEL 6
REMARK VINA RESULT:      -7.4      2.300      3.289
REMARK  5 active torsions:
REMARK  status: ('A' for Active; 'I' for Inactive)
REMARK    1  A    between atoms: C_4  and  O_5 
REMARK    2  A    between atoms: O_5  and  C_6 
REMARK    3  A    between atoms: C_6  and  C_7 
REMARK    4  A    between atoms: C_11  and  N_12 
REMARK       I    between atoms: N_12  and  C_13 
REMARK       I    between atoms: C_13  and  N_14 
REMARK    5  A    between atoms: N_14  and  C_15 
ROOT
HETATM    1  N   UNL     1      -4.332   2.049 -31.160  1.00  0.00    -0.306 N 
HETATM    2  C   UNL     1      -4.009   3.307 -31.585  1.00  0.00     0.325 C 
HETATM    3  N   UNL     1      -3.067   3.407 -32.565  1.00  0.00    -0.305 N 
HETATM    4  O   UNL     1      -4.536   4.243 -30.989  1.00  0.00    -0.247 OA
HETATM    5  H   UNL     1      -4.708   2.085 -30.220  1.00  0.00     0.171 HD
HETATM    6  H   UNL     1      -2.704   2.550 -32.943  1.00  0.00     0.171 HD
ENDROOT
BRANCH   1   7
HETATM    7  C   UNL     1      -4.081   0.762 -31.670  1.00  0.00     0.069 A 
HETATM    8  C   UNL     1      -4.965   0.267 -32.641  1.00  0.00     0.096 A 
HETATM    9  C   UNL     1      -4.851  -1.036 -33.126  1.00  0.00     0.046 A 
HETATM   10  C   UNL     1      -3.788  -1.844 -32.707  1.00  0.00    -0.059 A 
HETATM   11  C   UNL     1      -3.684  -3.267 -33.170  1.00  0.00     0.048 C 
HETATM   12  C   UNL     1      -2.853  -1.321 -31.806  1.00  0.00     0.009 A 
HETATM   13  C   UNL     1      -2.989  -0.023 -31.300  1.00  0.00     0.033 A 
BRANCH   8  14
HETATM   14  O   UNL     1      -6.029   1.029 -33.055  1.00  0.00    -0.340 OA
BRANCH  14  15
HETATM   15  C   UNL     1      -7.274   0.340 -32.833  1.00  0.00     0.293 C 
BRANCH  15  16
HETATM   16  C   UNL     1      -7.800   0.586 -31.429  1.00  0.00     0.408 C 
HETATM   17  F   UNL     1      -9.113   0.285 -31.322  1.00  0.00    -0.169 F 
HETATM   18  F   UNL     1      -7.134  -0.183 -30.536  1.00  0.00    -0.169 F 
HETATM   19  F   UNL     1      -7.633   1.874 -31.056  1.00  0.00    -0.169 F 
ENDBRANCH  15  16
ENDBRANCH  14  15
ENDBRANCH   8  14
ENDBRANCH   1   7
BRANCH   3  20
HETATM   20  C   UNL     1      -2.453   4.557 -33.031  1.00  0.00     0.086 A 
HETATM   21  C   UNL     1      -2.639   5.383 -34.179  1.00  0.00     0.079 A 
HETATM   22  C   UNL     1      -3.634   5.302 -35.278  1.00  0.00     0.075 C 
HETATM   23  N   UNL     1      -1.783   6.417 -34.179  1.00  0.00    -0.177 NA
HETATM   24  N   UNL     1      -1.077   6.263 -33.057  1.00  0.00    -0.280 N 
HETATM   25  H   UNL     1      -0.357   6.949 -32.852  1.00  0.00     0.189 HD
HETATM   26  C   UNL     1      -1.442   5.176 -32.318  1.00  0.00     0.052 A 
HETATM   27  C   UNL     1      -0.760   4.842 -31.046  1.00  0.00     0.072 C 
ENDBRANCH   3  20
TORSDOF 5
ENDMDL
MODEL 7
REMARK VINA RESULT:      -7.4      3.785      5.640
REMARK  5 active torsions:
REMARK  status: ('A' for Active; 'I' for Inactive)
REMARK    1  A    between atoms: C_4  and  O_5 
REMARK    2  A    between atoms: O_5  and  C_6 
REMARK    3  A    between atoms: C_6  and  C_7 
REMARK    4  A    between atoms: C_11  and  N_12 
REMARK       I    between atoms: N_12  and  C_13 
REMARK       I    between atoms: C_13  and  N_14 
REMARK    5  A    between atoms: N_14  and  C_15 
ROOT
HETATM    1  N   UNL     1      -8.324   1.330 -32.656  1.00  0.00    -0.306 N 
HETATM    2  C   UNL     1      -9.629   1.711 -32.796  1.00  0.00     0.325 C 
HETATM    3  N   UNL     1     -10.328   1.157 -33.826  1.00  0.00    -0.305 N 
HETATM    4  O   UNL     1     -10.035   2.581 -32.030  1.00  0.00    -0.247 OA
HETATM    5  H   UNL     1      -7.805   2.043 -32.156  1.00  0.00     0.171 HD
HETATM    6  H   UNL     1      -9.854   0.473 -34.388  1.00  0.00     0.171 HD
ENDROOT
BRANCH   1   7
HETATM    7  C   UNL     1      -7.557   0.287 -33.205  1.00  0.00     0.069 A 
HETATM    8  C   UNL     1      -6.566  -0.285 -32.392  1.00  0.00     0.096 A 
HETATM    9  C   UNL     1      -5.693  -1.254 -32.889  1.00  0.00     0.046 A 
HETATM   10  C   UNL     1      -5.855  -1.733 -34.194  1.00  0.00    -0.059 A 
HETATM   11  C   UNL     1      -4.889  -2.728 -34.766  1.00  0.00     0.048 C 
HETATM   12  C   UNL     1      -6.900  -1.229 -34.977  1.00  0.00     0.009 A 
HETATM   13  C   UNL     1      -7.755  -0.235 -34.483  1.00  0.00     0.033 A 
BRANCH   8  14
HETATM   14  O   UNL     1      -6.371   0.179 -31.115  1.00  0.00    -0.340 OA
BRANCH  14  15
HETATM   15  C   UNL     1      -5.002   0.585 -30.918  1.00  0.00     0.293 C 
BRANCH  15  16
HETATM   16  C   UNL     1      -4.781   2.019 -31.369  1.00  0.00     0.408 C 
HETATM   17  F   UNL     1      -4.563   2.100 -32.700  1.00  0.00    -0.169 F 
HETATM   18  F   UNL     1      -5.869   2.774 -31.090  1.00  0.00    -0.169 F 
HETATM   19  F   UNL     1      -3.727   2.581 -30.737  1.00  0.00    -0.169 F 
ENDBRANCH  15  16
ENDBRANCH  14  15
ENDBRANCH   8  14
ENDBRANCH   1   7
BRANCH   3  20
HETATM   20  C   UNL     1     -11.590   1.509 -34.275  1.00  0.00     0.086 A 
HETATM   21  C   UNL     1     -12.871   0.884 -34.220  1.00  0.00     0.079 A 
HETATM   22  C   UNL     1     -13.299  -0.390 -33.588  1.00  0.00     0.075 C 
HETATM   23  N   UNL     1     -13.811   1.646 -34.800  1.00  0.00    -0.177 NA
HETATM   24  N   UNL     1     -13.152   2.734 -35.205  1.00  0.00    -0.280 N 
HETATM   25  H   UNL     1     -13.681   3.459 -35.679  1.00  0.00     0.189 HD
HETATM   26  C   UNL     1     -11.821   2.719 -34.905  1.00  0.00     0.052 A 
HETATM   27  C   UNL     1     -10.930   3.839 -35.287  1.00  0.00     0.072 C 
ENDBRANCH   3  20
TORSDOF 5
ENDMDL
MODEL 8
REMARK VINA RESULT:      -7.4      3.022      4.936
REMARK  5 active torsions:
REMARK  status: ('A' for Active; 'I' for Inactive)
REMARK    1  A    between atoms: C_4  and  O_5 
REMARK    2  A    between atoms: O_5  and  C_6 
REMARK    3  A    between atoms: C_6  and  C_7 
REMARK    4  A    between atoms: C_11  and  N_12 
REMARK       I    between atoms: N_12  and  C_13 
REMARK       I    between atoms: C_13  and  N_14 
REMARK    5  A    between atoms: N_14  and  C_15 
ROOT
HETATM    1  N   UNL     1      -3.795   3.064 -30.932  1.00  0.00    -0.306 N 
HETATM    2  C   UNL     1      -2.932   4.017 -31.396  1.00  0.00     0.325 C 
HETATM    3  N   UNL     1      -3.476   5.068 -32.071  1.00  0.00    -0.305 N 
HETATM    4  O   UNL     1      -1.733   3.801 -31.235  1.00  0.00    -0.247 OA
HETATM    5  H   UNL     1      -3.308   2.184 -30.811  1.00  0.00     0.171 HD
HETATM    6  H   UNL     1      -4.477   5.098 -32.146  1.00  0.00     0.171 HD
ENDROOT
BRANCH   1   7
HETATM    7  C   UNL     1      -5.192   3.017 -30.778  1.00  0.00     0.069 A 
HETATM    8  C   UNL     1      -5.923   2.280 -31.723  1.00  0.00     0.096 A 
HETATM    9  C   UNL     1      -7.318   2.263 -31.704  1.00  0.00     0.046 A 
HETATM   10  C   UNL     1      -8.008   2.919 -30.680  1.00  0.00    -0.059 A 
HETATM   11  C   UNL     1      -9.508   2.964 -30.679  1.00  0.00     0.048 C 
HETATM   12  C   UNL     1      -7.279   3.580 -29.685  1.00  0.00     0.009 A 
HETATM   13  C   UNL     1      -5.880   3.619 -29.724  1.00  0.00     0.033 A 
BRANCH   8  14
HETATM   14  O   UNL     1      -5.273   1.643 -32.751  1.00  0.00    -0.340 OA
BRANCH  14  15
HETATM   15  C   UNL     1      -5.183   0.227 -32.504  1.00  0.00     0.293 C 
BRANCH  15  16
HETATM   16  C   UNL     1      -5.891  -0.569 -33.588  1.00  0.00     0.408 C 
HETATM   17  F   UNL     1      -7.113  -0.985 -33.190  1.00  0.00    -0.169 F 
HETATM   18  F   UNL     1      -6.063   0.192 -34.694  1.00  0.00    -0.169 F 
HETATM   19  F   UNL     1      -5.176  -1.656 -33.953  1.00  0.00    -0.169 F 
ENDBRANCH  15  16
ENDBRANCH  14  15
ENDBRANCH   8  14
ENDBRANCH   1   7
BRANCH   3  20
HETATM   20  C   UNL     1      -2.808   6.052 -32.780  1.00  0.00     0.086 A 
HETATM   21  C   UNL     1      -1.980   7.152 -32.405  1.00  0.00     0.079 A 
HETATM   22  C   UNL     1      -1.502   7.593 -31.071  1.00  0.00     0.075 C 
HETATM   23  N   UNL     1      -1.548   7.826 -33.483  1.00  0.00    -0.177 NA
HETATM   24  N   UNL     1      -2.075   7.169 -34.518  1.00  0.00    -0.280 N 
HETATM   25  H   UNL     1      -1.872   7.514 -35.451  1.00  0.00     0.189 HD
HETATM   26  C   UNL     1      -2.826   6.087 -34.163  1.00  0.00     0.052 A 
HETATM   27  C   UNL     1      -3.497   5.244 -35.179  1.00  0.00     0.072 C 
ENDBRANCH   3  20
TORSDOF 5
ENDMDL
MODEL 9
REMARK VINA RESULT:      -7.2      2.794      4.667
REMARK  5 active torsions:
REMARK  status: ('A' for Active; 'I' for Inactive)
REMARK    1  A    between atoms: C_4  and  O_5 
REMARK    2  A    between atoms: O_5  and  C_6 
REMARK    3  A    between atoms: C_6  and  C_7 
REMARK    4  A    between atoms: C_11  and  N_12 
REMARK       I    between atoms: N_12  and  C_13 
REMARK       I    between atoms: C_13  and  N_14 
REMARK    5  A    between atoms: N_14  and  C_15 
ROOT
HETATM    1  N   UNL     1      -7.967   0.843 -31.003  1.00  0.00    -0.306 N 
HETATM    2  C   UNL     1      -6.714   1.243 -30.629  1.00  0.00     0.325 C 
HETATM    3  N   UNL     1      -6.109   2.186 -31.404  1.00  0.00    -0.305 N 
HETATM    4  O   UNL     1      -6.210   0.657 -29.674  1.00  0.00    -0.247 OA
HETATM    5  H   UNL     1      -8.159  -0.083 -30.638  1.00  0.00     0.171 HD
HETATM    6  H   UNL     1      -6.638   2.558 -32.172  1.00  0.00     0.171 HD
ENDROOT
BRANCH   1   7
HETATM    7  C   UNL     1      -8.917   1.356 -31.903  1.00  0.00     0.069 A 
HETATM    8  C   UNL     1      -9.176   0.613 -33.065  1.00  0.00     0.096 A 
HETATM    9  C   UNL     1     -10.028   1.097 -34.058  1.00  0.00     0.046 A 
HETATM   10  C   UNL     1     -10.707   2.304 -33.865  1.00  0.00    -0.059 A 
HETATM   11  C   UNL     1     -11.578   2.871 -34.947  1.00  0.00     0.048 C 
HETATM   12  C   UNL     1     -10.520   3.004 -32.667  1.00  0.00     0.009 A 
HETATM   13  C   UNL     1      -9.642   2.528 -31.685  1.00  0.00     0.033 A 
BRANCH   8  14
HETATM   14  O   UNL     1      -8.508  -0.565 -33.291  1.00  0.00    -0.340 OA
BRANCH  14  15
HETATM   15  C   UNL     1      -7.576  -0.427 -34.382  1.00  0.00     0.293 C 
BRANCH  15  16
HETATM   16  C   UNL     1      -6.157  -0.744 -33.939  1.00  0.00     0.408 C 
HETATM   17  F   UNL     1      -6.118  -1.219 -32.675  1.00  0.00    -0.169 F 
HETATM   18  F   UNL     1      -5.613  -1.687 -34.744  1.00  0.00    -0.169 F 
HETATM   19  F   UNL     1      -5.363   0.348 -34.002  1.00  0.00    -0.169 F 
ENDBRANCH  15  16
ENDBRANCH  14  15
ENDBRANCH   8  14
ENDBRANCH   1   7
BRANCH   3  20
HETATM   20  C   UNL     1      -4.794   2.617 -31.337  1.00  0.00     0.086 A 
HETATM   21  C   UNL     1      -3.532   1.953 -31.384  1.00  0.00     0.079 A 
HETATM   22  C   UNL     1      -3.200   0.519 -31.577  1.00  0.00     0.075 C 
HETATM   23  N   UNL     1      -2.518   2.826 -31.289  1.00  0.00    -0.177 NA
HETATM   24  N   UNL     1      -3.114   4.017 -31.196  1.00  0.00    -0.280 N 
HETATM   25  H   UNL     1      -2.523   4.838 -31.114  1.00  0.00     0.189 HD
HETATM   26  C   UNL     1      -4.477   3.959 -31.236  1.00  0.00     0.052 A 
HETATM   27  C   UNL     1      -5.306   5.182 -31.136  1.00  0.00     0.072 C 
ENDBRANCH   3  20
TORSDOF 5
ENDMDL
MODEL 10
REMARK VINA RESULT:      -7.2      2.973      5.725
REMARK  5 active torsions:
REMARK  status: ('A' for Active; 'I' for Inactive)
REMARK    1  A    between atoms: C_4  and  O_5 
REMARK    2  A    between atoms: O_5  and  C_6 
REMARK    3  A    between atoms: C_6  and  C_7 
REMARK    4  A    between atoms: C_11  and  N_12 
REMARK       I    between atoms: N_12  and  C_13 
REMARK       I    between atoms: C_13  and  N_14 
REMARK    5  A    between atoms: N_14  and  C_15 
ROOT
HETATM    1  N   UNL     1      -8.767   0.780 -31.671  1.00  0.00    -0.306 N 
HETATM    2  C   UNL     1      -7.480   0.330 -31.771  1.00  0.00     0.325 C 
HETATM    3  N   UNL     1      -7.055  -0.059 -33.006  1.00  0.00    -0.305 N 
HETATM    4  O   UNL     1      -6.845   0.238 -30.724  1.00  0.00    -0.247 OA
HETATM    5  H   UNL     1      -9.101   0.669 -30.721  1.00  0.00     0.171 HD
HETATM    6  H   UNL     1      -7.698   0.052 -33.770  1.00  0.00     0.171 HD
ENDROOT
BRANCH   1   7
HETATM    7  C   UNL     1      -9.731   1.171 -32.618  1.00  0.00     0.069 A 
HETATM    8  C   UNL     1      -9.639   2.470 -33.138  1.00  0.00     0.096 A 
HETATM    9  C   UNL     1     -10.610   2.974 -34.004  1.00  0.00     0.046 A 
HETATM   10  C   UNL     1     -11.654   2.147 -34.435  1.00  0.00    -0.059 A 
HETATM   11  C   UNL     1     -12.741   2.689 -35.316  1.00  0.00     0.048 C 
HETATM   12  C   UNL     1     -11.698   0.822 -33.988  1.00  0.00     0.009 A 
HETATM   13  C   UNL     1     -10.737   0.330 -33.096  1.00  0.00     0.033 A 
BRANCH   8  14
HETATM   14  O   UNL     1      -8.638   3.310 -32.717  1.00  0.00    -0.340 OA
BRANCH  14  15
HETATM   15  C   UNL     1      -7.929   3.870 -33.840  1.00  0.00     0.293 C 
BRANCH  15  16
HETATM   16  C   UNL     1      -6.452   3.516 -33.794  1.00  0.00     0.408 C 
HETATM   17  F   UNL     1      -6.053   3.185 -32.546  1.00  0.00    -0.169 F 
HETATM   18  F   UNL     1      -6.196   2.456 -34.596  1.00  0.00    -0.169 F 
HETATM   19  F   UNL     1      -5.683   4.542 -34.222  1.00  0.00    -0.169 F 
ENDBRANCH  15  16
ENDBRANCH  14  15
ENDBRANCH   8  14
ENDBRANCH   1   7
BRANCH   3  20
HETATM   20  C   UNL     1      -5.874  -0.707 -33.327  1.00  0.00     0.086 A 
HETATM   21  C   UNL     1      -4.495  -0.425 -33.090  1.00  0.00     0.079 A 
HETATM   22  C   UNL     1      -3.849   0.684 -32.345  1.00  0.00     0.075 C 
HETATM   23  N   UNL     1      -3.707  -1.385 -33.599  1.00  0.00    -0.177 NA
HETATM   24  N   UNL     1      -4.558  -2.262 -34.136  1.00  0.00    -0.280 N 
HETATM   25  H   UNL     1      -4.170  -3.085 -34.586  1.00  0.00     0.189 HD
HETATM   26  C   UNL     1      -5.871  -1.920 -33.991  1.00  0.00     0.052 A 
HETATM   27  C   UNL     1      -6.956  -2.770 -34.533  1.00  0.00     0.072 C 
ENDBRANCH   3  20
TORSDOF 5
ENDMDL
