MODEL 1
REMARK VINA RESULT:     -11.0      0.000      0.000
REMARK  8 active torsions:
REMARK  status: ('A' for Active; 'I' for Inactive)
REMARK    1  A    between atoms: C_2  and  O_3 
REMARK    2  A    between atoms: O_3  and  C_4 
REMARK    3  A    between atoms: C_7  and  N_8 
REMARK       I    between atoms: N_8  and  C_9 
REMARK    4  A    between atoms: C_9  and  C_10 
REMARK    5  A    between atoms: C_12  and  N_13 
REMARK    6  A    between atoms: N_16  and  C_18 
REMARK    7  A    between atoms: C_18  and  C_19 
REMARK    8  A    between atoms: C_18  and  C_25 
ROOT
HETATM    1  C   UNL     1      -1.606   5.061 -31.503  1.00  0.00     0.200 C 
HETATM    2  N   UNL     1      -2.209   3.769 -31.144  1.00  0.00    -0.211 N 
HETATM    3  C   UNL     1      -3.473   3.478 -31.545  1.00  0.00     0.702 C 
HETATM    4  N   UNL     1      -4.189   4.267 -32.278  1.00  0.00    -0.028 NA
HETATM    5  C   UNL     1      -3.692   5.518 -32.559  1.00  0.00     0.263 C 
HETATM    6  O   UNL     1      -4.049   6.168 -33.537  1.00  0.00    -0.271 OA
HETATM    7  C   UNL     1      -2.705   6.092 -31.581  1.00  0.00     0.141 C 
HETATM    8  H   UNL     1      -1.975   3.543 -30.175  1.00  0.00     0.178 HD
ENDROOT
BRANCH   3   9
HETATM    9  N   UNL     1      -3.935   2.228 -31.183  1.00  0.00    -0.213 N 
HETATM   10  C   UNL     1      -3.381   0.965 -31.696  1.00  0.00     0.169 C 
HETATM   11  C   UNL     1      -4.118   0.564 -32.987  1.00  0.00     0.256 C 
HETATM   12  N   UNL     1      -5.614   0.419 -32.687  1.00  0.00    -0.056 N 
HETATM   13  H   UNL     1      -5.709  -0.247 -31.918  1.00  0.00     0.281 HD
HETATM   14  C   UNL     1      -6.170   1.734 -32.115  1.00  0.00     0.256 C 
HETATM   15  C   UNL     1      -5.373   2.111 -30.841  1.00  0.00     0.169 C 
BRANCH  12  16
HETATM   16  C   UNL     1      -6.444  -0.174 -33.829  1.00  0.00     0.254 C 
BRANCH  16  17
HETATM   17  C   UNL     1      -6.073  -1.629 -34.116  1.00  0.00    -0.023 A 
HETATM   18  C   UNL     1      -4.764  -2.116 -33.935  1.00  0.00     0.009 A 
HETATM   19  C   UNL     1      -4.448  -3.445 -34.222  1.00  0.00     0.001 A 
HETATM   20  C   UNL     1      -5.432  -4.310 -34.692  1.00  0.00     0.000 A 
HETATM   21  C   UNL     1      -6.734  -3.850 -34.870  1.00  0.00     0.001 A 
HETATM   22  C   UNL     1      -7.054  -2.521 -34.585  1.00  0.00     0.009 A 
ENDBRANCH  16  17
BRANCH  16  23
HETATM   23  C   UNL     1      -7.957   0.111 -33.730  1.00  0.00    -0.023 A 
HETATM   24  C   UNL     1      -8.774  -0.436 -32.720  1.00  0.00     0.009 A 
HETATM   25  C   UNL     1     -10.137  -0.127 -32.639  1.00  0.00     0.001 A 
HETATM   26  C   UNL     1     -10.712   0.750 -33.551  1.00  0.00     0.000 A 
HETATM   27  C   UNL     1      -9.922   1.336 -34.531  1.00  0.00     0.001 A 
HETATM   28  C   UNL     1      -8.561   1.034 -34.611  1.00  0.00     0.009 A 
ENDBRANCH  16  23
ENDBRANCH  12  16
ENDBRANCH   3   9
BRANCH   1  29
HETATM   29  C   UNL     1      -0.516   5.379 -30.460  1.00  0.00     0.246 C 
HETATM   30  N   UNL     1      -0.906   6.222 -29.439  1.00  0.00    -0.325 N 
HETATM   31  H   UNL     1      -1.896   6.374 -29.282  1.00  0.00     0.169 HD
HETATM   32  O   UNL     1       0.612   4.904 -30.614  1.00  0.00    -0.271 OA
BRANCH  30  33
HETATM   33  C   UNL     1      -0.053   6.844 -28.501  1.00  0.00     0.035 A 
HETATM   34  C   UNL     1       0.795   7.908 -28.814  1.00  0.00     0.032 A 
HETATM   35  C   UNL     1       1.577   8.517 -27.823  1.00  0.00     0.039 A 
HETATM   36  C   UNL     1       1.525   8.061 -26.508  1.00  0.00     0.068 A 
HETATM   37  C   UNL     1       0.690   6.989 -26.196  1.00  0.00     0.039 A 
HETATM   38  C   UNL     1      -0.105   6.392 -27.179  1.00  0.00     0.032 A 
BRANCH  36  39
HETATM   39  O   UNL     1       2.234   8.564 -25.455  1.00  0.00    -0.352 OA
BRANCH  39  40
HETATM   40  C   UNL     1       1.583   9.543 -24.645  1.00  0.00     0.171 C 
HETATM   41  C   UNL     1       2.253   9.546 -23.283  1.00  0.00     0.034 C 
ENDBRANCH  39  40
ENDBRANCH  36  39
ENDBRANCH  30  33
ENDBRANCH   1  29
TORSDOF 8
ENDMDL
MODEL 2
REMARK VINA RESULT:     -10.8      1.620      3.734
REMARK  8 active torsions:
REMARK  status: ('A' for Active; 'I' for Inactive)
REMARK    1  A    between atoms: C_2  and  O_3 
REMARK    2  A    between atoms: O_3  and  C_4 
REMARK    3  A    between atoms: C_7  and  N_8 
REMARK       I    between atoms: N_8  and  C_9 
REMARK    4  A    between atoms: C_9  and  C_10 
REMARK    5  A    between atoms: C_12  and  N_13 
REMARK    6  A    between atoms: N_16  and  C_18 
REMARK    7  A    between atoms: C_18  and  C_19 
REMARK    8  A    between atoms: C_18  and  C_25 
ROOT
HETATM    1  C   UNL     1      -1.408   4.860 -32.007  1.00  0.00     0.200 C 
HETATM    2  N   UNL     1      -2.874   4.932 -31.901  1.00  0.00    -0.211 N 
HETATM    3  C   UNL     1      -3.619   5.192 -33.006  1.00  0.00     0.702 C 
HETATM    4  N   UNL     1      -3.115   5.346 -34.187  1.00  0.00    -0.028 NA
HETATM    5  C   UNL     1      -1.746   5.373 -34.308  1.00  0.00     0.263 C 
HETATM    6  O   UNL     1      -1.168   5.098 -35.355  1.00  0.00    -0.271 OA
HETATM    7  C   UNL     1      -0.965   5.803 -33.097  1.00  0.00     0.141 C 
HETATM    8  H   UNL     1      -3.128   5.437 -31.051  1.00  0.00     0.178 HD
ENDROOT
BRANCH   3   9
HETATM    9  N   UNL     1      -4.985   5.207 -32.807  1.00  0.00    -0.213 N 
HETATM   10  C   UNL     1      -5.631   4.951 -31.509  1.00  0.00     0.169 C 
HETATM   11  C   UNL     1      -5.899   3.443 -31.353  1.00  0.00     0.256 C 
HETATM   12  N   UNL     1      -6.790   2.969 -32.507  1.00  0.00    -0.056 N 
HETATM   13  H   UNL     1      -7.628   3.552 -32.506  1.00  0.00     0.281 HD
HETATM   14  C   UNL     1      -6.119   3.278 -33.857  1.00  0.00     0.256 C 
HETATM   15  C   UNL     1      -5.839   4.799 -33.948  1.00  0.00     0.169 C 
BRANCH  12  16
HETATM   16  C   UNL     1      -7.306   1.534 -32.372  1.00  0.00     0.254 C 
BRANCH  16  17
HETATM   17  C   UNL     1      -8.728   1.379 -32.914  1.00  0.00    -0.023 A 
HETATM   18  C   UNL     1      -9.303   2.327 -33.782  1.00  0.00     0.009 A 
HETATM   19  C   UNL     1     -10.610   2.171 -34.247  1.00  0.00     0.001 A 
HETATM   20  C   UNL     1     -11.362   1.066 -33.857  1.00  0.00     0.000 A 
HETATM   21  C   UNL     1     -10.808   0.114 -33.006  1.00  0.00     0.001 A 
HETATM   22  C   UNL     1      -9.501   0.267 -32.537  1.00  0.00     0.009 A 
ENDBRANCH  16  17
BRANCH  16  23
HETATM   23  C   UNL     1      -6.306   0.453 -32.833  1.00  0.00    -0.023 A 
HETATM   24  C   UNL     1      -5.173   0.088 -32.079  1.00  0.00     0.009 A 
HETATM   25  C   UNL     1      -4.306  -0.923 -32.511  1.00  0.00     0.001 A 
HETATM   26  C   UNL     1      -4.560  -1.607 -33.693  1.00  0.00     0.000 A 
HETATM   27  C   UNL     1      -5.691  -1.295 -34.436  1.00  0.00     0.001 A 
HETATM   28  C   UNL     1      -6.561  -0.291 -34.005  1.00  0.00     0.009 A 
ENDBRANCH  16  23
ENDBRANCH  12  16
ENDBRANCH   3   9
BRANCH   1  29
HETATM   29  C   UNL     1      -0.820   5.181 -30.618  1.00  0.00     0.246 C 
HETATM   30  N   UNL     1      -1.358   6.288 -29.992  1.00  0.00    -0.325 N 
HETATM   31  H   UNL     1      -2.238   6.660 -30.330  1.00  0.00     0.169 HD
HETATM   32  O   UNL     1       0.090   4.474 -30.179  1.00  0.00    -0.271 OA
BRANCH  30  33
HETATM   33  C   UNL     1      -0.847   6.923 -28.839  1.00  0.00     0.035 A 
HETATM   34  C   UNL     1      -1.463   6.867 -27.587  1.00  0.00     0.032 A 
HETATM   35  C   UNL     1      -0.874   7.474 -26.471  1.00  0.00     0.039 A 
HETATM   36  C   UNL     1       0.336   8.152 -26.595  1.00  0.00     0.068 A 
HETATM   37  C   UNL     1       0.947   8.222 -27.847  1.00  0.00     0.039 A 
HETATM   38  C   UNL     1       0.370   7.601 -28.959  1.00  0.00     0.032 A 
BRANCH  36  39
HETATM   39  O   UNL     1       1.010   8.783 -25.590  1.00  0.00    -0.352 OA
BRANCH  39  40
HETATM   40  C   UNL     1       2.430   8.634 -25.569  1.00  0.00     0.171 C 
HETATM   41  C   UNL     1       2.927   9.058 -24.198  1.00  0.00     0.034 C 
ENDBRANCH  39  40
ENDBRANCH  36  39
ENDBRANCH  30  33
ENDBRANCH   1  29
TORSDOF 8
ENDMDL
MODEL 3
REMARK VINA RESULT:     -10.3      2.007      2.406
REMARK  8 active torsions:
REMARK  status: ('A' for Active; 'I' for Inactive)
REMARK    1  A    between atoms: C_2  and  O_3 
REMARK    2  A    between atoms: O_3  and  C_4 
REMARK    3  A    between atoms: C_7  and  N_8 
REMARK       I    between atoms: N_8  and  C_9 
REMARK    4  A    between atoms: C_9  and  C_10 
REMARK    5  A    between atoms: C_12  and  N_13 
REMARK    6  A    between atoms: N_16  and  C_18 
REMARK    7  A    between atoms: C_18  and  C_19 
REMARK    8  A    between atoms: C_18  and  C_25 
ROOT
HETATM    1  C   UNL     1      -4.954   6.251 -29.854  1.00  0.00     0.200 C 
HETATM    2  N   UNL     1      -4.511   4.881 -30.157  1.00  0.00    -0.211 N 
HETATM    3  C   UNL     1      -5.368   3.841 -29.988  1.00  0.00     0.702 C 
HETATM    4  N   UNL     1      -6.596   3.983 -29.606  1.00  0.00    -0.028 NA
HETATM    5  C   UNL     1      -7.017   5.236 -29.231  1.00  0.00     0.263 C 
HETATM    6  O   UNL     1      -8.196   5.574 -29.258  1.00  0.00    -0.271 OA
HETATM    7  C   UNL     1      -5.962   6.187 -28.735  1.00  0.00     0.141 C 
HETATM    8  H   UNL     1      -3.560   4.748 -29.811  1.00  0.00     0.178 HD
ENDROOT
BRANCH   3   9
HETATM    9  N   UNL     1      -4.866   2.601 -30.329  1.00  0.00    -0.213 N 
HETATM   10  C   UNL     1      -3.983   2.358 -31.481  1.00  0.00     0.169 C 
HETATM   11  C   UNL     1      -4.833   2.056 -32.729  1.00  0.00     0.256 C 
HETATM   12  N   UNL     1      -5.714   0.832 -32.452  1.00  0.00    -0.056 N 
HETATM   13  H   UNL     1      -5.098   0.071 -32.162  1.00  0.00     0.281 HD
HETATM   14  C   UNL     1      -6.602   1.086 -31.222  1.00  0.00     0.256 C 
HETATM   15  C   UNL     1      -5.703   1.421 -30.006  1.00  0.00     0.169 C 
BRANCH  12  16
HETATM   16  C   UNL     1      -6.464   0.291 -33.672  1.00  0.00     0.254 C 
BRANCH  16  17
HETATM   17  C   UNL     1      -6.040  -1.135 -34.024  1.00  0.00    -0.023 A 
HETATM   18  C   UNL     1      -6.898  -2.024 -34.698  1.00  0.00     0.009 A 
HETATM   19  C   UNL     1      -6.492  -3.327 -34.991  1.00  0.00     0.001 A 
HETATM   20  C   UNL     1      -5.223  -3.763 -34.618  1.00  0.00     0.000 A 
HETATM   21  C   UNL     1      -4.357  -2.897 -33.957  1.00  0.00     0.001 A 
HETATM   22  C   UNL     1      -4.760  -1.592 -33.661  1.00  0.00     0.009 A 
ENDBRANCH  16  17
BRANCH  16  23
HETATM   23  C   UNL     1      -7.987   0.535 -33.641  1.00  0.00    -0.023 A 
HETATM   24  C   UNL     1      -8.874  -0.258 -32.884  1.00  0.00     0.009 A 
HETATM   25  C   UNL     1     -10.247   0.015 -32.851  1.00  0.00     0.001 A 
HETATM   26  C   UNL     1     -10.764   1.095 -33.555  1.00  0.00     0.000 A 
HETATM   27  C   UNL     1      -9.908   1.917 -34.277  1.00  0.00     0.001 A 
HETATM   28  C   UNL     1      -8.537   1.651 -34.307  1.00  0.00     0.009 A 
ENDBRANCH  16  23
ENDBRANCH  12  16
ENDBRANCH   3   9
BRANCH   1  29
HETATM   29  C   UNL     1      -3.702   7.089 -29.528  1.00  0.00     0.246 C 
HETATM   30  N   UNL     1      -2.565   6.361 -29.238  1.00  0.00    -0.325 N 
HETATM   31  H   UNL     1      -2.535   5.381 -29.493  1.00  0.00     0.169 HD
HETATM   32  O   UNL     1      -3.796   8.319 -29.511  1.00  0.00    -0.271 OA
BRANCH  30  33
HETATM   33  C   UNL     1      -1.367   6.871 -28.690  1.00  0.00     0.035 A 
HETATM   34  C   UNL     1      -0.286   7.301 -29.461  1.00  0.00     0.032 A 
HETATM   35  C   UNL     1       0.853   7.848 -28.855  1.00  0.00     0.039 A 
HETATM   36  C   UNL     1       0.926   7.962 -27.469  1.00  0.00     0.068 A 
HETATM   37  C   UNL     1      -0.146   7.519 -26.696  1.00  0.00     0.039 A 
HETATM   38  C   UNL     1      -1.292   6.991 -27.299  1.00  0.00     0.032 A 
BRANCH  36  39
HETATM   39  O   UNL     1       1.975   8.473 -26.760  1.00  0.00    -0.352 OA
BRANCH  39  40
HETATM   40  C   UNL     1       1.710   8.883 -25.418  1.00  0.00     0.171 C 
HETATM   41  C   UNL     1       3.034   8.952 -24.677  1.00  0.00     0.034 C 
ENDBRANCH  39  40
ENDBRANCH  36  39
ENDBRANCH  30  33
ENDBRANCH   1  29
TORSDOF 8
ENDMDL
MODEL 4
REMARK VINA RESULT:     -10.3      3.487      6.627
REMARK  8 active torsions:
REMARK  status: ('A' for Active; 'I' for Inactive)
REMARK    1  A    between atoms: C_2  and  O_3 
REMARK    2  A    between atoms: O_3  and  C_4 
REMARK    3  A    between atoms: C_7  and  N_8 
REMARK       I    between atoms: N_8  and  C_9 
REMARK    4  A    between atoms: C_9  and  C_10 
REMARK    5  A    between atoms: C_12  and  N_13 
REMARK    6  A    between atoms: N_16  and  C_18 
REMARK    7  A    between atoms: C_18  and  C_19 
REMARK    8  A    between atoms: C_18  and  C_25 
ROOT
HETATM    1  C   UNL     1      -9.221   5.064 -33.430  1.00  0.00     0.200 C 
HETATM    2  N   UNL     1      -9.097   3.614 -33.220  1.00  0.00    -0.211 N 
HETATM    3  C   UNL     1     -10.190   2.885 -32.877  1.00  0.00     0.702 C 
HETATM    4  N   UNL     1     -11.376   3.389 -32.758  1.00  0.00    -0.028 NA
HETATM    5  C   UNL     1     -11.513   4.752 -32.861  1.00  0.00     0.263 C 
HETATM    6  O   UNL     1     -12.570   5.289 -33.178  1.00  0.00    -0.271 OA
HETATM    7  C   UNL     1     -10.307   5.584 -32.521  1.00  0.00     0.141 C 
HETATM    8  H   UNL     1      -8.239   3.418 -32.703  1.00  0.00     0.178 HD
ENDROOT
BRANCH   3   9
HETATM    9  N   UNL     1      -9.974   1.529 -32.734  1.00  0.00    -0.213 N 
HETATM   10  C   UNL     1      -9.171   0.932 -31.654  1.00  0.00     0.169 C 
HETATM   11  C   UNL     1      -7.698   0.843 -32.095  1.00  0.00     0.256 C 
HETATM   12  N   UNL     1      -7.605  -0.000 -33.372  1.00  0.00    -0.056 N 
HETATM   13  H   UNL     1      -8.046  -0.900 -33.176  1.00  0.00     0.281 HD
HETATM   14  C   UNL     1      -8.480   0.615 -34.478  1.00  0.00     0.256 C 
HETATM   15  C   UNL     1      -9.942   0.715 -33.972  1.00  0.00     0.169 C 
BRANCH  12  16
HETATM   16  C   UNL     1      -6.180  -0.344 -33.812  1.00  0.00     0.254 C 
BRANCH  16  17
HETATM   17  C   UNL     1      -5.129   0.223 -32.856  1.00  0.00    -0.023 A 
HETATM   18  C   UNL     1      -4.707  -0.478 -31.710  1.00  0.00     0.009 A 
HETATM   19  C   UNL     1      -3.759   0.071 -30.845  1.00  0.00     0.001 A 
HETATM   20  C   UNL     1      -3.216   1.325 -31.109  1.00  0.00     0.000 A 
HETATM   21  C   UNL     1      -3.615   2.031 -32.242  1.00  0.00     0.001 A 
HETATM   22  C   UNL     1      -4.564   1.485 -33.110  1.00  0.00     0.009 A 
ENDBRANCH  16  17
BRANCH  16  23
HETATM   23  C   UNL     1      -5.977  -1.821 -34.211  1.00  0.00    -0.023 A 
HETATM   24  C   UNL     1      -4.707  -2.429 -34.272  1.00  0.00     0.009 A 
HETATM   25  C   UNL     1      -4.564  -3.782 -34.604  1.00  0.00     0.001 A 
HETATM   26  C   UNL     1      -5.683  -4.563 -34.861  1.00  0.00     0.000 A 
HETATM   27  C   UNL     1      -6.949  -4.000 -34.768  1.00  0.00     0.001 A 
HETATM   28  C   UNL     1      -7.096  -2.652 -34.432  1.00  0.00     0.009 A 
ENDBRANCH  16  23
ENDBRANCH  12  16
ENDBRANCH   3   9
BRANCH   1  29
HETATM   29  C   UNL     1      -7.837   5.696 -33.183  1.00  0.00     0.246 C 
HETATM   30  N   UNL     1      -6.759   4.920 -33.562  1.00  0.00    -0.325 N 
HETATM   31  H   UNL     1      -6.917   4.136 -34.185  1.00  0.00     0.169 HD
HETATM   32  O   UNL     1      -7.775   6.806 -32.648  1.00  0.00    -0.271 OA
BRANCH  30  33
HETATM   33  C   UNL     1      -5.405   5.160 -33.239  1.00  0.00     0.035 A 
HETATM   34  C   UNL     1      -4.941   5.336 -31.934  1.00  0.00     0.032 A 
HETATM   35  C   UNL     1      -3.576   5.517 -31.677  1.00  0.00     0.039 A 
HETATM   36  C   UNL     1      -2.659   5.532 -32.725  1.00  0.00     0.068 A 
HETATM   37  C   UNL     1      -3.122   5.371 -34.031  1.00  0.00     0.039 A 
HETATM   38  C   UNL     1      -4.482   5.172 -34.288  1.00  0.00     0.032 A 
BRANCH  36  39
HETATM   39  O   UNL     1      -1.309   5.700 -32.609  1.00  0.00    -0.352 OA
BRANCH  39  40
HETATM   40  C   UNL     1      -0.850   6.991 -32.209  1.00  0.00     0.171 C 
HETATM   41  C   UNL     1       0.329   6.800 -31.272  1.00  0.00     0.034 C 
ENDBRANCH  39  40
ENDBRANCH  36  39
ENDBRANCH  30  33
ENDBRANCH   1  29
TORSDOF 8
ENDMDL
MODEL 5
REMARK VINA RESULT:      -9.9      3.670     10.472
REMARK  8 active torsions:
REMARK  status: ('A' for Active; 'I' for Inactive)
REMARK    1  A    between atoms: C_2  and  O_3 
REMARK    2  A    between atoms: O_3  and  C_4 
REMARK    3  A    between atoms: C_7  and  N_8 
REMARK       I    between atoms: N_8  and  C_9 
REMARK    4  A    between atoms: C_9  and  C_10 
REMARK    5  A    between atoms: C_12  and  N_13 
REMARK    6  A    between atoms: N_16  and  C_18 
REMARK    7  A    between atoms: C_18  and  C_19 
REMARK    8  A    between atoms: C_18  and  C_25 
ROOT
HETATM    1  C   UNL     1      -8.359   3.485 -32.521  1.00  0.00     0.200 C 
HETATM    2  N   UNL     1      -7.592   4.267 -31.539  1.00  0.00    -0.211 N 
HETATM    3  C   UNL     1      -7.446   5.605 -31.708  1.00  0.00     0.702 C 
HETATM    4  N   UNL     1      -7.984   6.266 -32.681  1.00  0.00    -0.028 NA
HETATM    5  C   UNL     1      -8.632   5.557 -33.665  1.00  0.00     0.263 C 
HETATM    6  O   UNL     1      -9.502   6.052 -34.374  1.00  0.00    -0.271 OA
HETATM    7  C   UNL     1      -8.196   4.133 -33.874  1.00  0.00     0.141 C 
HETATM    8  H   UNL     1      -6.755   3.747 -31.270  1.00  0.00     0.178 HD
ENDROOT
BRANCH   3   9
HETATM    9  N   UNL     1      -6.736   6.252 -30.715  1.00  0.00    -0.213 N 
HETATM   10  C   UNL     1      -5.977   7.496 -30.922  1.00  0.00     0.169 C 
HETATM   11  C   UNL     1      -4.538   7.157 -31.353  1.00  0.00     0.256 C 
HETATM   12  N   UNL     1      -3.880   6.293 -30.272  1.00  0.00    -0.056 N 
HETATM   13  H   UNL     1      -3.952   6.800 -29.388  1.00  0.00     0.281 HD
HETATM   14  C   UNL     1      -4.706   5.016 -30.039  1.00  0.00     0.256 C 
HETATM   15  C   UNL     1      -6.151   5.410 -29.644  1.00  0.00     0.169 C 
BRANCH  12  16
HETATM   16  C   UNL     1      -2.381   6.049 -30.468  1.00  0.00     0.254 C 
BRANCH  16  17
HETATM   17  C   UNL     1      -2.009   5.906 -31.944  1.00  0.00    -0.023 A 
HETATM   18  C   UNL     1      -1.399   6.951 -32.664  1.00  0.00     0.009 A 
HETATM   19  C   UNL     1      -1.086   6.800 -34.016  1.00  0.00     0.001 A 
HETATM   20  C   UNL     1      -1.375   5.606 -34.670  1.00  0.00     0.000 A 
HETATM   21  C   UNL     1      -1.972   4.558 -33.974  1.00  0.00     0.001 A 
HETATM   22  C   UNL     1      -2.287   4.705 -32.621  1.00  0.00     0.009 A 
ENDBRANCH  16  17
BRANCH  16  23
HETATM   23  C   UNL     1      -1.472   6.989 -29.649  1.00  0.00    -0.023 A 
HETATM   24  C   UNL     1      -1.929   8.201 -29.090  1.00  0.00     0.009 A 
HETATM   25  C   UNL     1      -1.084   9.012 -28.322  1.00  0.00     0.001 A 
HETATM   26  C   UNL     1       0.227   8.624 -28.076  1.00  0.00     0.000 A 
HETATM   27  C   UNL     1       0.692   7.416 -28.580  1.00  0.00     0.001 A 
HETATM   28  C   UNL     1      -0.150   6.602 -29.342  1.00  0.00     0.009 A 
ENDBRANCH  16  23
ENDBRANCH  12  16
ENDBRANCH   3   9
BRANCH   1  29
HETATM   29  C   UNL     1      -7.859   2.028 -32.456  1.00  0.00     0.246 C 
HETATM   30  N   UNL     1      -7.020   1.646 -33.485  1.00  0.00    -0.325 N 
HETATM   31  H   UNL     1      -6.587   2.364 -34.053  1.00  0.00     0.169 HD
HETATM   32  O   UNL     1      -8.253   1.303 -31.539  1.00  0.00    -0.271 OA
BRANCH  30  33
HETATM   33  C   UNL     1      -6.615   0.326 -33.783  1.00  0.00     0.035 A 
HETATM   34  C   UNL     1      -7.422  -0.598 -34.449  1.00  0.00     0.032 A 
HETATM   35  C   UNL     1      -6.939  -1.875 -34.763  1.00  0.00     0.039 A 
HETATM   36  C   UNL     1      -5.646  -2.246 -34.405  1.00  0.00     0.068 A 
HETATM   37  C   UNL     1      -4.843  -1.329 -33.726  1.00  0.00     0.039 A 
HETATM   38  C   UNL     1      -5.315  -0.048 -33.428  1.00  0.00     0.032 A 
BRANCH  36  39
HETATM   39  O   UNL     1      -5.059  -3.454 -34.649  1.00  0.00    -0.352 OA
BRANCH  39  40
HETATM   40  C   UNL     1      -3.820  -3.718 -33.991  1.00  0.00     0.171 C 
HETATM   41  C   UNL     1      -3.858  -5.144 -33.472  1.00  0.00     0.034 C 
ENDBRANCH  39  40
ENDBRANCH  36  39
ENDBRANCH  30  33
ENDBRANCH   1  29
TORSDOF 8
ENDMDL
MODEL 6
REMARK VINA RESULT:      -9.5      4.695      8.682
REMARK  8 active torsions:
REMARK  status: ('A' for Active; 'I' for Inactive)
REMARK    1  A    between atoms: C_2  and  O_3 
REMARK    2  A    between atoms: O_3  and  C_4 
REMARK    3  A    between atoms: C_7  and  N_8 
REMARK       I    between atoms: N_8  and  C_9 
REMARK    4  A    between atoms: C_9  and  C_10 
REMARK    5  A    between atoms: C_12  and  N_13 
REMARK    6  A    between atoms: N_16  and  C_18 
REMARK    7  A    between atoms: C_18  and  C_19 
REMARK    8  A    between atoms: C_18  and  C_25 
ROOT
HETATM    1  C   UNL     1      -8.175   4.910 -29.792  1.00  0.00     0.200 C 
HETATM    2  N   UNL     1      -7.188   4.194 -30.615  1.00  0.00    -0.211 N 
HETATM    3  C   UNL     1      -5.879   4.199 -30.257  1.00  0.00     0.702 C 
HETATM    4  N   UNL     1      -5.433   4.774 -29.188  1.00  0.00    -0.028 NA
HETATM    5  C   UNL     1      -6.311   5.526 -28.443  1.00  0.00     0.263 C 
HETATM    6  O   UNL     1      -6.137   5.757 -27.251  1.00  0.00    -0.271 OA
HETATM    7  C   UNL     1      -7.495   6.103 -29.168  1.00  0.00     0.141 C 
HETATM    8  H   UNL     1      -7.391   4.353 -31.603  1.00  0.00     0.178 HD
ENDROOT
BRANCH   3   9
HETATM    9  N   UNL     1      -5.040   3.472 -31.078  1.00  0.00    -0.213 N 
HETATM   10  C   UNL     1      -4.818   3.771 -32.502  1.00  0.00     0.169 C 
HETATM   11  C   UNL     1      -5.857   3.020 -33.356  1.00  0.00     0.256 C 
HETATM   12  N   UNL     1      -5.732   1.516 -33.091  1.00  0.00    -0.056 N 
HETATM   13  H   UNL     1      -4.762   1.253 -33.272  1.00  0.00     0.281 HD
HETATM   14  C   UNL     1      -5.927   1.224 -31.593  1.00  0.00     0.256 C 
HETATM   15  C   UNL     1      -4.884   2.029 -30.778  1.00  0.00     0.169 C 
BRANCH  12  16
HETATM   16  C   UNL     1      -6.563   0.629 -34.021  1.00  0.00     0.254 C 
BRANCH  16  17
HETATM   17  C   UNL     1      -5.993  -0.786 -34.130  1.00  0.00    -0.023 A 
HETATM   18  C   UNL     1      -4.722  -1.120 -33.625  1.00  0.00     0.009 A 
HETATM   19  C   UNL     1      -4.218  -2.415 -33.753  1.00  0.00     0.001 A 
HETATM   20  C   UNL     1      -4.975  -3.399 -34.385  1.00  0.00     0.000 A 
HETATM   21  C   UNL     1      -6.238  -3.090 -34.885  1.00  0.00     0.001 A 
HETATM   22  C   UNL     1      -6.745  -1.795 -34.759  1.00  0.00     0.009 A 
ENDBRANCH  16  17
BRANCH  16  23
HETATM   23  C   UNL     1      -8.085   0.708 -33.782  1.00  0.00    -0.023 A 
HETATM   24  C   UNL     1      -8.938   1.532 -34.544  1.00  0.00     0.009 A 
HETATM   25  C   UNL     1     -10.321   1.551 -34.323  1.00  0.00     0.001 A 
HETATM   26  C   UNL     1     -10.886   0.735 -33.351  1.00  0.00     0.000 A 
HETATM   27  C   UNL     1     -10.075  -0.117 -32.613  1.00  0.00     0.001 A 
HETATM   28  C   UNL     1      -8.696  -0.142 -32.835  1.00  0.00     0.009 A 
ENDBRANCH  16  23
ENDBRANCH  12  16
ENDBRANCH   3   9
BRANCH   1  29
HETATM   29  C   UNL     1      -9.372   5.268 -30.696  1.00  0.00     0.246 C 
HETATM   30  N   UNL     1      -9.468   4.536 -31.863  1.00  0.00    -0.325 N 
HETATM   31  H   UNL     1      -8.939   3.676 -31.945  1.00  0.00     0.169 HD
HETATM   32  O   UNL     1     -10.127   6.180 -30.351  1.00  0.00    -0.271 OA
BRANCH  30  33
HETATM   33  C   UNL     1     -10.320   4.817 -32.954  1.00  0.00     0.035 A 
HETATM   34  C   UNL     1      -9.869   5.308 -34.181  1.00  0.00     0.032 A 
HETATM   35  C   UNL     1     -10.760   5.514 -35.241  1.00  0.00     0.039 A 
HETATM   36  C   UNL     1     -12.116   5.239 -35.084  1.00  0.00     0.068 A 
HETATM   37  C   UNL     1     -12.572   4.763 -33.855  1.00  0.00     0.039 A 
HETATM   38  C   UNL     1     -11.681   4.538 -32.801  1.00  0.00     0.032 A 
BRANCH  36  39
HETATM   39  O   UNL     1     -13.084   5.398 -36.034  1.00  0.00    -0.352 OA
BRANCH  39  40
HETATM   40  C   UNL     1     -13.911   6.556 -35.929  1.00  0.00     0.171 C 
HETATM   41  C   UNL     1     -13.491   7.534 -37.011  1.00  0.00     0.034 C 
ENDBRANCH  39  40
ENDBRANCH  36  39
ENDBRANCH  30  33
ENDBRANCH   1  29
TORSDOF 8
ENDMDL
MODEL 7
REMARK VINA RESULT:      -9.5      3.791     10.399
REMARK  8 active torsions:
REMARK  status: ('A' for Active; 'I' for Inactive)
REMARK    1  A    between atoms: C_2  and  O_3 
REMARK    2  A    between atoms: O_3  and  C_4 
REMARK    3  A    between atoms: C_7  and  N_8 
REMARK       I    between atoms: N_8  and  C_9 
REMARK    4  A    between atoms: C_9  and  C_10 
REMARK    5  A    between atoms: C_12  and  N_13 
REMARK    6  A    between atoms: N_16  and  C_18 
REMARK    7  A    between atoms: C_18  and  C_19 
REMARK    8  A    between atoms: C_18  and  C_25 
ROOT
HETATM    1  C   UNL     1      -8.852   2.521 -31.511  1.00  0.00     0.200 C 
HETATM    2  N   UNL     1      -7.670   2.871 -30.708  1.00  0.00    -0.211 N 
HETATM    3  C   UNL     1      -7.590   4.092 -30.120  1.00  0.00     0.702 C 
HETATM    4  N   UNL     1      -8.528   4.980 -30.187  1.00  0.00    -0.028 NA
HETATM    5  C   UNL     1      -9.607   4.722 -31.000  1.00  0.00     0.263 C 
HETATM    6  O   UNL     1     -10.702   5.251 -30.834  1.00  0.00    -0.271 OA
HETATM    7  C   UNL     1      -9.380   3.781 -32.151  1.00  0.00     0.141 C 
HETATM    8  H   UNL     1      -6.829   2.536 -31.180  1.00  0.00     0.178 HD
ENDROOT
BRANCH   3   9
HETATM    9  N   UNL     1      -6.456   4.310 -29.363  1.00  0.00    -0.213 N 
HETATM   10  C   UNL     1      -6.130   5.592 -28.718  1.00  0.00     0.169 C 
HETATM   11  C   UNL     1      -5.320   6.469 -29.691  1.00  0.00     0.256 C 
HETATM   12  N   UNL     1      -4.042   5.723 -30.094  1.00  0.00    -0.056 N 
HETATM   13  H   UNL     1      -3.550   5.473 -29.235  1.00  0.00     0.281 HD
HETATM   14  C   UNL     1      -4.398   4.369 -30.731  1.00  0.00     0.256 C 
HETATM   15  C   UNL     1      -5.241   3.542 -29.728  1.00  0.00     0.169 C 
BRANCH  12  16
HETATM   16  C   UNL     1      -3.039   6.555 -30.897  1.00  0.00     0.254 C 
BRANCH  16  17
HETATM   17  C   UNL     1      -1.753   6.820 -30.115  1.00  0.00    -0.023 A 
HETATM   18  C   UNL     1      -0.755   5.839 -29.965  1.00  0.00     0.009 A 
HETATM   19  C   UNL     1       0.403   6.101 -29.230  1.00  0.00     0.001 A 
HETATM   20  C   UNL     1       0.584   7.347 -28.636  1.00  0.00     0.000 A 
HETATM   21  C   UNL     1      -0.388   8.333 -28.778  1.00  0.00     0.001 A 
HETATM   22  C   UNL     1      -1.548   8.075 -29.512  1.00  0.00     0.009 A 
ENDBRANCH  16  17
BRANCH  16  23
HETATM   23  C   UNL     1      -2.839   6.079 -32.351  1.00  0.00    -0.023 A 
HETATM   24  C   UNL     1      -1.600   5.619 -32.842  1.00  0.00     0.009 A 
HETATM   25  C   UNL     1      -1.463   5.159 -34.157  1.00  0.00     0.001 A 
HETATM   26  C   UNL     1      -2.561   5.129 -35.007  1.00  0.00     0.000 A 
HETATM   27  C   UNL     1      -3.803   5.538 -34.538  1.00  0.00     0.001 A 
HETATM   28  C   UNL     1      -3.944   5.992 -33.224  1.00  0.00     0.009 A 
ENDBRANCH  16  23
ENDBRANCH  12  16
ENDBRANCH   3   9
BRANCH   1  29
HETATM   29  C   UNL     1      -8.432   1.432 -32.517  1.00  0.00     0.246 C 
HETATM   30  N   UNL     1      -7.609   0.446 -32.009  1.00  0.00    -0.325 N 
HETATM   31  H   UNL     1      -7.535   0.342 -31.004  1.00  0.00     0.169 HD
HETATM   32  O   UNL     1      -8.816   1.521 -33.686  1.00  0.00    -0.271 OA
BRANCH  30  33
HETATM   33  C   UNL     1      -6.906  -0.521 -32.761  1.00  0.00     0.035 A 
HETATM   34  C   UNL     1      -7.488  -1.287 -33.772  1.00  0.00     0.032 A 
HETATM   35  C   UNL     1      -6.721  -2.192 -34.518  1.00  0.00     0.039 A 
HETATM   36  C   UNL     1      -5.363  -2.346 -34.254  1.00  0.00     0.068 A 
HETATM   37  C   UNL     1      -4.781  -1.592 -33.235  1.00  0.00     0.039 A 
HETATM   38  C   UNL     1      -5.541  -0.675 -32.502  1.00  0.00     0.032 A 
BRANCH  36  39
HETATM   39  O   UNL     1      -4.509  -3.190 -34.904  1.00  0.00    -0.352 OA
BRANCH  39  40
HETATM   40  C   UNL     1      -4.536  -4.563 -34.517  1.00  0.00     0.171 C 
HETATM   41  C   UNL     1      -3.489  -4.768 -33.436  1.00  0.00     0.034 C 
ENDBRANCH  39  40
ENDBRANCH  36  39
ENDBRANCH  30  33
ENDBRANCH   1  29
TORSDOF 8
ENDMDL
MODEL 8
REMARK VINA RESULT:      -9.4      4.840      9.350
REMARK  8 active torsions:
REMARK  status: ('A' for Active; 'I' for Inactive)
REMARK    1  A    between atoms: C_2  and  O_3 
REMARK    2  A    between atoms: O_3  and  C_4 
REMARK    3  A    between atoms: C_7  and  N_8 
REMARK       I    between atoms: N_8  and  C_9 
REMARK    4  A    between atoms: C_9  and  C_10 
REMARK    5  A    between atoms: C_12  and  N_13 
REMARK    6  A    between atoms: N_16  and  C_18 
REMARK    7  A    between atoms: C_18  and  C_19 
REMARK    8  A    between atoms: C_18  and  C_25 
ROOT
HETATM    1  C   UNL     1      -8.622   5.124 -29.712  1.00  0.00     0.200 C 
HETATM    2  N   UNL     1      -7.596   4.218 -30.251  1.00  0.00    -0.211 N 
HETATM    3  C   UNL     1      -6.290   4.411 -29.933  1.00  0.00     0.702 C 
HETATM    4  N   UNL     1      -5.880   5.340 -29.132  1.00  0.00    -0.028 NA
HETATM    5  C   UNL     1      -6.798   6.258 -28.681  1.00  0.00     0.263 C 
HETATM    6  O   UNL     1      -6.644   6.894 -27.643  1.00  0.00    -0.271 OA
HETATM    7  C   UNL     1      -8.007   6.491 -29.546  1.00  0.00     0.141 C 
HETATM    8  H   UNL     1      -7.801   4.017 -31.231  1.00  0.00     0.178 HD
ENDROOT
BRANCH   3   9
HETATM    9  N   UNL     1      -5.411   3.488 -30.463  1.00  0.00    -0.213 N 
HETATM   10  C   UNL     1      -4.735   3.647 -31.762  1.00  0.00     0.169 C 
HETATM   11  C   UNL     1      -5.611   3.047 -32.877  1.00  0.00     0.256 C 
HETATM   12  N   UNL     1      -5.866   1.566 -32.574  1.00  0.00    -0.056 N 
HETATM   13  H   UNL     1      -4.956   1.116 -32.459  1.00  0.00     0.281 HD
HETATM   14  C   UNL     1      -6.537   1.414 -31.197  1.00  0.00     0.256 C 
HETATM   15  C   UNL     1      -5.634   2.064 -30.118  1.00  0.00     0.169 C 
BRANCH  12  16
HETATM   16  C   UNL     1      -6.552   0.789 -33.700  1.00  0.00     0.254 C 
BRANCH  16  17
HETATM   17  C   UNL     1      -5.930  -0.592 -33.911  1.00  0.00    -0.023 A 
HETATM   18  C   UNL     1      -4.754  -0.990 -33.246  1.00  0.00     0.009 A 
HETATM   19  C   UNL     1      -4.197  -2.250 -33.470  1.00  0.00     0.001 A 
HETATM   20  C   UNL     1      -4.803  -3.133 -34.359  1.00  0.00     0.000 A 
HETATM   21  C   UNL     1      -5.970  -2.761 -35.021  1.00  0.00     0.001 A 
HETATM   22  C   UNL     1      -6.531  -1.501 -34.800  1.00  0.00     0.009 A 
ENDBRANCH  16  17
BRANCH  16  23
HETATM   23  C   UNL     1      -8.094   0.812 -33.640  1.00  0.00    -0.023 A 
HETATM   24  C   UNL     1      -8.848  -0.151 -32.939  1.00  0.00     0.009 A 
HETATM   25  C   UNL     1     -10.245  -0.078 -32.877  1.00  0.00     0.001 A 
HETATM   26  C   UNL     1     -10.920   0.967 -33.493  1.00  0.00     0.000 A 
HETATM   27  C   UNL     1     -10.201   1.953 -34.157  1.00  0.00     0.001 A 
HETATM   28  C   UNL     1      -8.807   1.886 -34.216  1.00  0.00     0.009 A 
ENDBRANCH  16  23
ENDBRANCH  12  16
ENDBRANCH   3   9
BRANCH   1  29
HETATM   29  C   UNL     1      -9.830   5.089 -30.669  1.00  0.00     0.246 C 
HETATM   30  N   UNL     1     -11.066   5.036 -30.056  1.00  0.00    -0.325 N 
HETATM   31  H   UNL     1     -11.134   5.272 -29.073  1.00  0.00     0.169 HD
HETATM   32  O   UNL     1      -9.626   5.077 -31.886  1.00  0.00    -0.271 OA
BRANCH  30  33
HETATM   33  C   UNL     1     -12.299   4.766 -30.690  1.00  0.00     0.035 A 
HETATM   34  C   UNL     1     -12.499   3.703 -31.573  1.00  0.00     0.032 A 
HETATM   35  C   UNL     1     -13.762   3.459 -32.126  1.00  0.00     0.039 A 
HETATM   36  C   UNL     1     -14.840   4.282 -31.808  1.00  0.00     0.068 A 
HETATM   37  C   UNL     1     -14.640   5.354 -30.938  1.00  0.00     0.039 A 
HETATM   38  C   UNL     1     -13.384   5.588 -30.370  1.00  0.00     0.032 A 
BRANCH  36  39
HETATM   39  O   UNL     1     -16.115   4.153 -32.278  1.00  0.00    -0.352 OA
BRANCH  39  40
HETATM   40  C   UNL     1     -16.706   2.855 -32.201  1.00  0.00     0.171 C 
HETATM   41  C   UNL     1     -18.214   3.022 -32.230  1.00  0.00     0.034 C 
ENDBRANCH  39  40
ENDBRANCH  36  39
ENDBRANCH  30  33
ENDBRANCH   1  29
TORSDOF 8
ENDMDL
MODEL 9
REMARK VINA RESULT:      -9.4      3.545     10.673
REMARK  8 active torsions:
REMARK  status: ('A' for Active; 'I' for Inactive)
REMARK    1  A    between atoms: C_2  and  O_3 
REMARK    2  A    between atoms: O_3  and  C_4 
REMARK    3  A    between atoms: C_7  and  N_8 
REMARK       I    between atoms: N_8  and  C_9 
REMARK    4  A    between atoms: C_9  and  C_10 
REMARK    5  A    between atoms: C_12  and  N_13 
REMARK    6  A    between atoms: N_16  and  C_18 
REMARK    7  A    between atoms: C_18  and  C_19 
REMARK    8  A    between atoms: C_18  and  C_25 
ROOT
HETATM    1  C   UNL     1      -8.148   4.024 -32.001  1.00  0.00     0.200 C 
HETATM    2  N   UNL     1      -7.412   4.768 -30.967  1.00  0.00    -0.211 N 
HETATM    3  C   UNL     1      -7.333   6.121 -31.035  1.00  0.00     0.702 C 
HETATM    4  N   UNL     1      -7.913   6.825 -31.952  1.00  0.00    -0.028 NA
HETATM    5  C   UNL     1      -8.534   6.160 -32.982  1.00  0.00     0.263 C 
HETATM    6  O   UNL     1      -9.435   6.662 -33.647  1.00  0.00    -0.271 OA
HETATM    7  C   UNL     1      -8.030   4.779 -33.301  1.00  0.00     0.141 C 
HETATM    8  H   UNL     1      -6.548   4.272 -30.743  1.00  0.00     0.178 HD
ENDROOT
BRANCH   3   9
HETATM    9  N   UNL     1      -6.648   6.726 -30.000  1.00  0.00    -0.213 N 
HETATM   10  C   UNL     1      -6.270   8.148 -29.983  1.00  0.00     0.169 C 
HETATM   11  C   UNL     1      -4.888   8.324 -30.639  1.00  0.00     0.256 C 
HETATM   12  N   UNL     1      -3.859   7.479 -29.879  1.00  0.00    -0.056 N 
HETATM   13  H   UNL     1      -3.902   7.756 -28.897  1.00  0.00     0.281 HD
HETATM   14  C   UNL     1      -4.288   6.002 -29.872  1.00  0.00     0.256 C 
HETATM   15  C   UNL     1      -5.696   5.884 -29.236  1.00  0.00     0.169 C 
BRANCH  12  16
HETATM   16  C   UNL     1      -2.404   7.713 -30.294  1.00  0.00     0.254 C 
BRANCH  16  17
HETATM   17  C   UNL     1      -1.437   7.541 -29.122  1.00  0.00    -0.023 A 
HETATM   18  C   UNL     1      -1.888   7.304 -27.810  1.00  0.00     0.009 A 
HETATM   19  C   UNL     1      -0.983   7.168 -26.755  1.00  0.00     0.001 A 
HETATM   20  C   UNL     1       0.385   7.265 -26.993  1.00  0.00     0.000 A 
HETATM   21  C   UNL     1       0.852   7.493 -28.286  1.00  0.00     0.001 A 
HETATM   22  C   UNL     1      -0.050   7.629 -29.343  1.00  0.00     0.009 A 
ENDBRANCH  16  17
BRANCH  16  23
HETATM   23  C   UNL     1      -1.992   6.997 -31.597  1.00  0.00    -0.023 A 
HETATM   24  C   UNL     1      -1.760   5.609 -31.668  1.00  0.00     0.009 A 
HETATM   25  C   UNL     1      -1.422   4.988 -32.877  1.00  0.00     0.001 A 
HETATM   26  C   UNL     1      -1.328   5.733 -34.045  1.00  0.00     0.000 A 
HETATM   27  C   UNL     1      -1.591   7.096 -34.013  1.00  0.00     0.001 A 
HETATM   28  C   UNL     1      -1.934   7.718 -32.809  1.00  0.00     0.009 A 
ENDBRANCH  16  23
ENDBRANCH  12  16
ENDBRANCH   3   9
BRANCH   1  29
HETATM   29  C   UNL     1      -7.576   2.593 -32.049  1.00  0.00     0.246 C 
HETATM   30  N   UNL     1      -6.896   2.269 -33.207  1.00  0.00    -0.325 N 
HETATM   31  H   UNL     1      -6.596   3.016 -33.822  1.00  0.00     0.169 HD
HETATM   32  O   UNL     1      -7.781   1.837 -31.096  1.00  0.00    -0.271 OA
BRANCH  30  33
HETATM   33  C   UNL     1      -6.483   0.975 -33.595  1.00  0.00     0.035 A 
HETATM   34  C   UNL     1      -5.396   0.308 -33.028  1.00  0.00     0.032 A 
HETATM   35  C   UNL     1      -5.072  -0.997 -33.421  1.00  0.00     0.039 A 
HETATM   36  C   UNL     1      -5.828  -1.647 -34.393  1.00  0.00     0.068 A 
HETATM   37  C   UNL     1      -6.906  -0.977 -34.972  1.00  0.00     0.039 A 
HETATM   38  C   UNL     1      -7.243   0.319 -34.568  1.00  0.00     0.032 A 
BRANCH  36  39
HETATM   39  O   UNL     1      -5.617  -2.911 -34.863  1.00  0.00    -0.352 OA
BRANCH  39  40
HETATM   40  C   UNL     1      -4.429  -3.573 -34.428  1.00  0.00     0.171 C 
HETATM   41  C   UNL     1      -4.741  -5.052 -34.284  1.00  0.00     0.034 C 
ENDBRANCH  39  40
ENDBRANCH  36  39
ENDBRANCH  30  33
ENDBRANCH   1  29
TORSDOF 8
ENDMDL
MODEL 10
REMARK VINA RESULT:      -9.1      5.674     10.062
REMARK  8 active torsions:
REMARK  status: ('A' for Active; 'I' for Inactive)
REMARK    1  A    between atoms: C_2  and  O_3 
REMARK    2  A    between atoms: O_3  and  C_4 
REMARK    3  A    between atoms: C_7  and  N_8 
REMARK       I    between atoms: N_8  and  C_9 
REMARK    4  A    between atoms: C_9  and  C_10 
REMARK    5  A    between atoms: C_12  and  N_13 
REMARK    6  A    between atoms: N_16  and  C_18 
REMARK    7  A    between atoms: C_18  and  C_19 
REMARK    8  A    between atoms: C_18  and  C_25 
ROOT
HETATM    1  C   UNL     1      -6.390   3.073 -30.646  1.00  0.00     0.200 C 
HETATM    2  N   UNL     1      -6.857   3.883 -31.782  1.00  0.00    -0.211 N 
HETATM    3  C   UNL     1      -7.542   5.032 -31.556  1.00  0.00     0.702 C 
HETATM    4  N   UNL     1      -7.785   5.498 -30.374  1.00  0.00    -0.028 NA
HETATM    5  C   UNL     1      -7.442   4.726 -29.290  1.00  0.00     0.263 C 
HETATM    6  O   UNL     1      -7.234   5.200 -28.178  1.00  0.00    -0.271 OA
HETATM    7  C   UNL     1      -7.370   3.240 -29.511  1.00  0.00     0.141 C 
HETATM    8  H   UNL     1      -7.227   3.267 -32.508  1.00  0.00     0.178 HD
ENDROOT
BRANCH   3   9
HETATM    9  N   UNL     1      -7.908   5.734 -32.687  1.00  0.00    -0.213 N 
HETATM   10  C   UNL     1      -8.703   6.973 -32.667  1.00  0.00     0.169 C 
HETATM   11  C   UNL     1     -10.202   6.626 -32.728  1.00  0.00     0.256 C 
HETATM   12  N   UNL     1     -10.480   5.823 -34.004  1.00  0.00    -0.056 N 
HETATM   13  H   UNL     1     -10.138   6.373 -34.793  1.00  0.00     0.281 HD
HETATM   14  C   UNL     1      -9.614   4.552 -34.029  1.00  0.00     0.256 C 
HETATM   15  C   UNL     1      -8.120   4.953 -33.929  1.00  0.00     0.169 C 
BRANCH  12  16
HETATM   16  C   UNL     1     -11.962   5.583 -34.301  1.00  0.00     0.254 C 
BRANCH  16  17
HETATM   17  C   UNL     1     -12.484   6.500 -35.408  1.00  0.00    -0.023 A 
HETATM   18  C   UNL     1     -13.812   6.431 -35.871  1.00  0.00     0.009 A 
HETATM   19  C   UNL     1     -14.257   7.268 -36.895  1.00  0.00     0.001 A 
HETATM   20  C   UNL     1     -13.386   8.187 -37.473  1.00  0.00     0.000 A 
HETATM   21  C   UNL     1     -12.071   8.276 -37.025  1.00  0.00     0.001 A 
HETATM   22  C   UNL     1     -11.621   7.440 -36.000  1.00  0.00     0.009 A 
ENDBRANCH  16  17
BRANCH  16  23
HETATM   23  C   UNL     1     -12.350   4.096 -34.443  1.00  0.00    -0.023 A 
HETATM   24  C   UNL     1     -12.109   3.351 -35.615  1.00  0.00     0.009 A 
HETATM   25  C   UNL     1     -12.442   1.993 -35.696  1.00  0.00     0.001 A 
HETATM   26  C   UNL     1     -13.002   1.343 -34.603  1.00  0.00     0.000 A 
HETATM   27  C   UNL     1     -13.213   2.042 -33.422  1.00  0.00     0.001 A 
HETATM   28  C   UNL     1     -12.877   3.395 -33.337  1.00  0.00     0.009 A 
ENDBRANCH  16  23
ENDBRANCH  12  16
ENDBRANCH   3   9
BRANCH   1  29
HETATM   29  C   UNL     1      -6.235   1.620 -31.136  1.00  0.00     0.246 C 
HETATM   30  N   UNL     1      -5.876   1.480 -32.462  1.00  0.00    -0.325 N 
HETATM   31  H   UNL     1      -5.499   2.283 -32.953  1.00  0.00     0.169 HD
HETATM   32  O   UNL     1      -6.466   0.698 -30.349  1.00  0.00    -0.271 OA
BRANCH  30  33
HETATM   33  C   UNL     1      -5.894   0.281 -33.208  1.00  0.00     0.035 A 
HETATM   34  C   UNL     1      -6.985  -0.139 -33.972  1.00  0.00     0.032 A 
HETATM   35  C   UNL     1      -6.917  -1.314 -34.732  1.00  0.00     0.039 A 
HETATM   36  C   UNL     1      -5.759  -2.087 -34.730  1.00  0.00     0.068 A 
HETATM   37  C   UNL     1      -4.673  -1.678 -33.956  1.00  0.00     0.039 A 
HETATM   38  C   UNL     1      -4.731  -0.496 -33.211  1.00  0.00     0.032 A 
BRANCH  36  39
HETATM   39  O   UNL     1      -5.567  -3.247 -35.423  1.00  0.00    -0.352 OA
BRANCH  39  40
HETATM   40  C   UNL     1      -6.011  -4.454 -34.802  1.00  0.00     0.171 C 
HETATM   41  C   UNL     1      -4.791  -5.187 -34.274  1.00  0.00     0.034 C 
ENDBRANCH  39  40
ENDBRANCH  36  39
ENDBRANCH  30  33
ENDBRANCH   1  29
TORSDOF 8
ENDMDL
