MODEL 1
REMARK VINA RESULT:      -8.9      0.000      0.000
REMARK  3 active torsions:
REMARK  status: ('A' for Active; 'I' for Inactive)
REMARK    1  A    between atoms: C_6  and  N_7 
REMARK       I    between atoms: N_7  and  C_8 
REMARK    2  A    between atoms: C_8  and  C_9 
REMARK    3  A    between atoms: C_9  and  C_10 
ROOT
HETATM    1  C   UNL     1      -4.479   3.389 -33.046  1.00  0.00     0.286 C 
HETATM    2  N   UNL     1      -3.129   3.594 -32.343  1.00  0.00    -0.056 N 
HETATM    3  H   UNL     1      -3.231   3.314 -31.348  1.00  0.00     0.278 HD
HETATM    4  H   UNL     1      -2.425   2.967 -32.753  1.00  0.00     0.278 HD
HETATM    5  C   UNL     1      -2.627   5.016 -32.314  1.00  0.00     0.209 C 
HETATM    6  C   UNL     1      -2.750   5.633 -33.721  1.00  0.00     0.115 C 
HETATM    7  N   UNL     1      -4.133   5.597 -34.166  1.00  0.00    -0.353 N 
HETATM    8  C   UNL     1      -4.997   4.572 -33.894  1.00  0.00     0.249 C 
HETATM    9  O   UNL     1      -6.145   4.601 -34.329  1.00  0.00    -0.271 OA
HETATM   10  C   UNL     1      -1.191   5.035 -31.805  1.00  0.00     0.035 C 
HETATM   11  C   UNL     1      -0.648   6.464 -31.803  1.00  0.00     0.002 C 
HETATM   12  C   UNL     1      -0.779   7.123 -33.175  1.00  0.00     0.002 C 
HETATM   13  C   UNL     1      -2.208   7.064 -33.713  1.00  0.00     0.027 C 
HETATM   14  H   UNL     1      -4.491   6.311 -34.799  1.00  0.00     0.163 HD
ENDROOT
BRANCH   1  15
HETATM   15  C   UNL     1      -5.560   2.924 -32.064  1.00  0.00     0.146 C 
BRANCH  15  16
HETATM   16  C   UNL     1      -5.663   1.424 -32.157  1.00  0.00     0.224 C 
HETATM   17  N   UNL     1      -5.334   0.904 -33.385  1.00  0.00    -0.327 N 
HETATM   18  H   UNL     1      -4.861   1.517 -34.043  1.00  0.00     0.169 HD
HETATM   19  O   UNL     1      -6.132   0.833 -31.184  1.00  0.00    -0.273 OA
BRANCH  17  20
HETATM   20  C   UNL     1      -5.544  -0.421 -33.844  1.00  0.00     0.040 A 
HETATM   21  C   UNL     1      -6.733  -0.720 -34.543  1.00  0.00    -0.035 A 
HETATM   22  C   UNL     1      -6.970  -2.041 -34.975  1.00  0.00     0.015 A 
HETATM   23  C   UNL     1      -7.770   0.325 -34.867  1.00  0.00     0.050 C 
HETATM   24  C   UNL     1      -6.056  -3.065 -34.716  1.00  0.00    -0.061 A 
HETATM   25  C   UNL     1      -6.300  -4.461 -35.210  1.00  0.00     0.048 C 
HETATM   26  C   UNL     1      -4.879  -2.758 -34.034  1.00  0.00     0.009 A 
HETATM   27  C   UNL     1      -4.627  -1.452 -33.602  1.00  0.00     0.030 A 
ENDBRANCH  17  20
ENDBRANCH  15  16
ENDBRANCH   1  15
TORSDOF 3
ENDMDL
MODEL 2
REMARK VINA RESULT:      -8.4      1.736      1.919
REMARK  3 active torsions:
REMARK  status: ('A' for Active; 'I' for Inactive)
REMARK    1  A    between atoms: C_6  and  N_7 
REMARK       I    between atoms: N_7  and  C_8 
REMARK    2  A    between atoms: C_8  and  C_9 
REMARK    3  A    between atoms: C_9  and  C_10 
ROOT
HETATM    1  C   UNL     1      -4.560   3.190 -31.910  1.00  0.00     0.286 C 
HETATM    2  N   UNL     1      -3.586   3.477 -33.063  1.00  0.00    -0.056 N 
HETATM    3  H   UNL     1      -2.945   2.666 -33.161  1.00  0.00     0.278 HD
HETATM    4  H   UNL     1      -4.106   3.549 -33.946  1.00  0.00     0.278 HD
HETATM    5  C   UNL     1      -2.694   4.677 -32.867  1.00  0.00     0.209 C 
HETATM    6  C   UNL     1      -3.539   5.874 -32.391  1.00  0.00     0.115 C 
HETATM    7  N   UNL     1      -4.219   5.547 -31.149  1.00  0.00    -0.353 N 
HETATM    8  C   UNL     1      -4.731   4.311 -30.861  1.00  0.00     0.249 C 
HETATM    9  O   UNL     1      -5.317   4.118 -29.799  1.00  0.00    -0.271 OA
HETATM   10  C   UNL     1      -1.960   4.978 -34.168  1.00  0.00     0.035 C 
HETATM   11  C   UNL     1      -1.077   6.215 -34.005  1.00  0.00     0.002 C 
HETATM   12  C   UNL     1      -1.873   7.419 -33.504  1.00  0.00     0.002 C 
HETATM   13  C   UNL     1      -2.651   7.109 -32.225  1.00  0.00     0.027 C 
HETATM   14  H   UNL     1      -4.430   6.274 -30.468  1.00  0.00     0.163 HD
ENDROOT
BRANCH   1  15
HETATM   15  C   UNL     1      -4.239   1.859 -31.220  1.00  0.00     0.146 C 
BRANCH  15  16
HETATM   16  C   UNL     1      -4.167   0.790 -32.278  1.00  0.00     0.224 C 
HETATM   17  N   UNL     1      -5.358   0.154 -32.530  1.00  0.00    -0.327 N 
HETATM   18  H   UNL     1      -6.203   0.577 -32.159  1.00  0.00     0.169 HD
HETATM   19  O   UNL     1      -3.052   0.514 -32.722  1.00  0.00    -0.273 OA
BRANCH  17  20
HETATM   20  C   UNL     1      -5.562  -1.025 -33.291  1.00  0.00     0.040 A 
HETATM   21  C   UNL     1      -6.863  -1.322 -33.753  1.00  0.00    -0.035 A 
HETATM   22  C   UNL     1      -7.085  -2.508 -34.481  1.00  0.00     0.015 A 
HETATM   23  C   UNL     1      -8.038  -0.409 -33.513  1.00  0.00     0.050 C 
HETATM   24  C   UNL     1      -6.047  -3.404 -34.747  1.00  0.00    -0.061 A 
HETATM   25  C   UNL     1      -6.288  -4.647 -35.553  1.00  0.00     0.048 C 
HETATM   26  C   UNL     1      -4.764  -3.097 -34.296  1.00  0.00     0.009 A 
HETATM   27  C   UNL     1      -4.525  -1.923 -33.576  1.00  0.00     0.030 A 
ENDBRANCH  17  20
ENDBRANCH  15  16
ENDBRANCH   1  15
TORSDOF 3
ENDMDL
MODEL 3
REMARK VINA RESULT:      -8.3      1.749      7.862
REMARK  3 active torsions:
REMARK  status: ('A' for Active; 'I' for Inactive)
REMARK    1  A    between atoms: C_6  and  N_7 
REMARK       I    between atoms: N_7  and  C_8 
REMARK    2  A    between atoms: C_8  and  C_9 
REMARK    3  A    between atoms: C_9  and  C_10 
ROOT
HETATM    1  C   UNL     1      -4.831   0.064 -32.553  1.00  0.00     0.286 C 
HETATM    2  N   UNL     1      -5.903  -0.539 -33.474  1.00  0.00    -0.056 N 
HETATM    3  H   UNL     1      -6.838  -0.301 -33.090  1.00  0.00     0.278 HD
HETATM    4  H   UNL     1      -5.848  -0.101 -34.403  1.00  0.00     0.278 HD
HETATM    5  C   UNL     1      -5.882  -2.042 -33.588  1.00  0.00     0.209 C 
HETATM    6  C   UNL     1      -4.438  -2.518 -33.839  1.00  0.00     0.115 C 
HETATM    7  N   UNL     1      -3.571  -2.085 -32.757  1.00  0.00    -0.353 N 
HETATM    8  C   UNL     1      -3.692  -0.883 -32.116  1.00  0.00     0.249 C 
HETATM    9  O   UNL     1      -2.902  -0.576 -31.227  1.00  0.00    -0.271 OA
HETATM   10  C   UNL     1      -6.829  -2.477 -34.700  1.00  0.00     0.035 C 
HETATM   11  C   UNL     1      -6.796  -3.997 -34.859  1.00  0.00     0.002 C 
HETATM   12  C   UNL     1      -5.375  -4.514 -35.081  1.00  0.00     0.002 C 
HETATM   13  C   UNL     1      -4.409  -4.041 -33.995  1.00  0.00     0.027 C 
HETATM   14  H   UNL     1      -2.756  -2.637 -32.496  1.00  0.00     0.163 HD
ENDROOT
BRANCH   1  15
HETATM   15  C   UNL     1      -5.458   0.744 -31.330  1.00  0.00     0.146 C 
BRANCH  15  16
HETATM   16  C   UNL     1      -5.030   2.189 -31.328  1.00  0.00     0.224 C 
HETATM   17  N   UNL     1      -4.314   2.574 -32.434  1.00  0.00    -0.327 N 
HETATM   18  H   UNL     1      -4.311   1.947 -33.234  1.00  0.00     0.169 HD
HETATM   19  O   UNL     1      -5.257   2.839 -30.308  1.00  0.00    -0.273 OA
BRANCH  17  20
HETATM   20  C   UNL     1      -3.594   3.782 -32.618  1.00  0.00     0.040 A 
HETATM   21  C   UNL     1      -4.102   4.750 -33.511  1.00  0.00    -0.035 A 
HETATM   22  C   UNL     1      -3.378   5.940 -33.728  1.00  0.00     0.015 A 
HETATM   23  C   UNL     1      -5.409   4.576 -34.240  1.00  0.00     0.050 C 
HETATM   24  C   UNL     1      -2.160   6.177 -33.087  1.00  0.00    -0.061 A 
HETATM   25  C   UNL     1      -1.414   7.462 -33.298  1.00  0.00     0.048 C 
HETATM   26  C   UNL     1      -1.671   5.220 -32.200  1.00  0.00     0.009 A 
HETATM   27  C   UNL     1      -2.379   4.036 -31.969  1.00  0.00     0.030 A 
ENDBRANCH  17  20
ENDBRANCH  15  16
ENDBRANCH   1  15
TORSDOF 3
ENDMDL
MODEL 4
REMARK VINA RESULT:      -8.2      4.082      7.345
REMARK  3 active torsions:
REMARK  status: ('A' for Active; 'I' for Inactive)
REMARK    1  A    between atoms: C_6  and  N_7 
REMARK       I    between atoms: N_7  and  C_8 
REMARK    2  A    between atoms: C_8  and  C_9 
REMARK    3  A    between atoms: C_9  and  C_10 
ROOT
HETATM    1  C   UNL     1      -4.719   0.006 -33.019  1.00  0.00     0.286 C 
HETATM    2  N   UNL     1      -5.534  -0.822 -34.025  1.00  0.00    -0.056 N 
HETATM    3  H   UNL     1      -6.532  -0.547 -33.944  1.00  0.00     0.278 HD
HETATM    4  H   UNL     1      -5.243  -0.588 -34.982  1.00  0.00     0.278 HD
HETATM    5  C   UNL     1      -5.505  -2.314 -33.804  1.00  0.00     0.209 C 
HETATM    6  C   UNL     1      -4.050  -2.772 -33.582  1.00  0.00     0.115 C 
HETATM    7  N   UNL     1      -3.476  -2.084 -32.438  1.00  0.00    -0.353 N 
HETATM    8  C   UNL     1      -3.739  -0.779 -32.120  1.00  0.00     0.249 C 
HETATM    9  O   UNL     1      -3.193  -0.259 -31.151  1.00  0.00    -0.271 OA
HETATM   10  C   UNL     1      -6.148  -3.013 -34.995  1.00  0.00     0.035 C 
HETATM   11  C   UNL     1      -6.097  -4.529 -34.811  1.00  0.00     0.002 C 
HETATM   12  C   UNL     1      -4.672  -5.022 -34.558  1.00  0.00     0.002 C 
HETATM   13  C   UNL     1      -4.003  -4.290 -33.395  1.00  0.00     0.027 C 
HETATM   14  H   UNL     1      -2.759  -2.534 -31.871  1.00  0.00     0.163 HD
ENDROOT
BRANCH   1  15
HETATM   15  C   UNL     1      -5.623   0.902 -32.165  1.00  0.00     0.146 C 
BRANCH  15  16
HETATM   16  C   UNL     1      -6.606   1.583 -33.080  1.00  0.00     0.224 C 
HETATM   17  N   UNL     1      -7.892   1.638 -32.600  1.00  0.00    -0.327 N 
HETATM   18  H   UNL     1      -8.035   1.421 -31.618  1.00  0.00     0.169 HD
HETATM   19  O   UNL     1      -6.199   1.913 -34.195  1.00  0.00    -0.273 OA
BRANCH  17  20
HETATM   20  C   UNL     1      -9.063   2.005 -33.310  1.00  0.00     0.040 A 
HETATM   21  C   UNL     1     -10.119   1.074 -33.410  1.00  0.00    -0.035 A 
HETATM   22  C   UNL     1     -11.275   1.414 -34.142  1.00  0.00     0.015 A 
HETATM   23  C   UNL     1     -10.075  -0.279 -32.749  1.00  0.00     0.050 C 
HETATM   24  C   UNL     1     -11.394   2.650 -34.782  1.00  0.00    -0.061 A 
HETATM   25  C   UNL     1     -12.642   3.016 -35.529  1.00  0.00     0.048 C 
HETATM   26  C   UNL     1     -10.349   3.567 -34.668  1.00  0.00     0.009 A 
HETATM   27  C   UNL     1      -9.198   3.247 -33.942  1.00  0.00     0.030 A 
ENDBRANCH  17  20
ENDBRANCH  15  16
ENDBRANCH   1  15
TORSDOF 3
ENDMDL
MODEL 5
REMARK VINA RESULT:      -8.1      2.222      8.325
REMARK  3 active torsions:
REMARK  status: ('A' for Active; 'I' for Inactive)
REMARK    1  A    between atoms: C_6  and  N_7 
REMARK       I    between atoms: N_7  and  C_8 
REMARK    2  A    between atoms: C_8  and  C_9 
REMARK    3  A    between atoms: C_9  and  C_10 
ROOT
HETATM    1  C   UNL     1      -4.801   3.400 -32.814  1.00  0.00     0.286 C 
HETATM    2  N   UNL     1      -4.597   1.917 -32.469  1.00  0.00    -0.056 N 
HETATM    3  H   UNL     1      -3.586   1.695 -32.558  1.00  0.00     0.278 HD
HETATM    4  H   UNL     1      -4.848   1.752 -31.486  1.00  0.00     0.278 HD
HETATM    5  C   UNL     1      -5.308   0.942 -33.374  1.00  0.00     0.209 C 
HETATM    6  C   UNL     1      -6.769   1.391 -33.565  1.00  0.00     0.115 C 
HETATM    7  N   UNL     1      -6.814   2.727 -34.134  1.00  0.00    -0.353 N 
HETATM    8  C   UNL     1      -5.929   3.721 -33.819  1.00  0.00     0.249 C 
HETATM    9  O   UNL     1      -6.048   4.835 -34.321  1.00  0.00    -0.271 OA
HETATM   10  C   UNL     1      -5.213  -0.459 -32.781  1.00  0.00     0.035 C 
HETATM   11  C   UNL     1      -5.959  -1.459 -33.663  1.00  0.00     0.002 C 
HETATM   12  C   UNL     1      -7.408  -1.035 -33.902  1.00  0.00     0.002 C 
HETATM   13  C   UNL     1      -7.512   0.388 -34.452  1.00  0.00     0.027 C 
HETATM   14  H   UNL     1      -7.590   3.009 -34.731  1.00  0.00     0.163 HD
ENDROOT
BRANCH   1  15
HETATM   15  C   UNL     1      -3.490   4.060 -33.256  1.00  0.00     0.146 C 
BRANCH  15  16
HETATM   16  C   UNL     1      -2.692   4.390 -32.022  1.00  0.00     0.224 C 
HETATM   17  N   UNL     1      -2.429   5.727 -31.851  1.00  0.00    -0.327 N 
HETATM   18  H   UNL     1      -2.950   6.384 -32.424  1.00  0.00     0.169 HD
HETATM   19  O   UNL     1      -2.263   3.443 -31.362  1.00  0.00    -0.273 OA
BRANCH  17  20
HETATM   20  C   UNL     1      -1.530   6.318 -30.928  1.00  0.00     0.040 A 
HETATM   21  C   UNL     1      -2.049   6.937 -29.771  1.00  0.00    -0.035 A 
HETATM   22  C   UNL     1      -1.169   7.558 -28.863  1.00  0.00     0.015 A 
HETATM   23  C   UNL     1      -3.521   6.950 -29.447  1.00  0.00     0.050 C 
HETATM   24  C   UNL     1       0.210   7.586 -29.090  1.00  0.00    -0.061 A 
HETATM   25  C   UNL     1       1.142   8.220 -28.100  1.00  0.00     0.048 C 
HETATM   26  C   UNL     1       0.714   6.964 -30.231  1.00  0.00     0.009 A 
HETATM   27  C   UNL     1      -0.146   6.339 -31.139  1.00  0.00     0.030 A 
ENDBRANCH  17  20
ENDBRANCH  15  16
ENDBRANCH   1  15
TORSDOF 3
ENDMDL
MODEL 6
REMARK VINA RESULT:      -7.9      3.301      6.739
REMARK  3 active torsions:
REMARK  status: ('A' for Active; 'I' for Inactive)
REMARK    1  A    between atoms: C_6  and  N_7 
REMARK       I    between atoms: N_7  and  C_8 
REMARK    2  A    between atoms: C_8  and  C_9 
REMARK    3  A    between atoms: C_9  and  C_10 
ROOT
HETATM    1  C   UNL     1      -6.065   2.471 -33.155  1.00  0.00     0.286 C 
HETATM    2  N   UNL     1      -6.761   1.444 -34.061  1.00  0.00    -0.056 N 
HETATM    3  H   UNL     1      -7.788   1.536 -33.935  1.00  0.00     0.278 HD
HETATM    4  H   UNL     1      -6.567   1.663 -35.047  1.00  0.00     0.278 HD
HETATM    5  C   UNL     1      -6.443   0.001 -33.760  1.00  0.00     0.209 C 
HETATM    6  C   UNL     1      -4.920  -0.168 -33.603  1.00  0.00     0.115 C 
HETATM    7  N   UNL     1      -4.427   0.687 -32.537  1.00  0.00    -0.353 N 
HETATM    8  C   UNL     1      -4.912   1.940 -32.276  1.00  0.00     0.249 C 
HETATM    9  O   UNL     1      -4.425   2.614 -31.373  1.00  0.00    -0.271 OA
HETATM   10  C   UNL     1      -7.004  -0.882 -34.869  1.00  0.00     0.035 C 
HETATM   11  C   UNL     1      -6.661  -2.348 -34.604  1.00  0.00     0.002 C 
HETATM   12  C   UNL     1      -5.159  -2.553 -34.412  1.00  0.00     0.002 C 
HETATM   13  C   UNL     1      -4.580  -1.636 -33.335  1.00  0.00     0.027 C 
HETATM   14  H   UNL     1      -3.611   0.415 -31.990  1.00  0.00     0.163 HD
ENDROOT
BRANCH   1  15
HETATM   15  C   UNL     1      -7.077   3.241 -32.298  1.00  0.00     0.146 C 
BRANCH  15  16
HETATM   16  C   UNL     1      -8.402   3.227 -33.014  1.00  0.00     0.224 C 
HETATM   17  N   UNL     1      -9.407   2.573 -32.343  1.00  0.00    -0.327 N 
HETATM   18  H   UNL     1      -9.248   2.346 -31.365  1.00  0.00     0.169 HD
HETATM   19  O   UNL     1      -8.429   3.689 -34.155  1.00  0.00    -0.273 OA
BRANCH  17  20
HETATM   20  C   UNL     1     -10.680   2.201 -32.846  1.00  0.00     0.040 A 
HETATM   21  C   UNL     1     -10.942   0.836 -33.094  1.00  0.00    -0.035 A 
HETATM   22  C   UNL     1     -12.191   0.457 -33.625  1.00  0.00     0.015 A 
HETATM   23  C   UNL     1      -9.941  -0.250 -32.797  1.00  0.00     0.050 C 
HETATM   24  C   UNL     1     -13.172   1.405 -33.924  1.00  0.00    -0.061 A 
HETATM   25  C   UNL     1     -14.512   0.987 -34.458  1.00  0.00     0.048 C 
HETATM   26  C   UNL     1     -12.908   2.749 -33.666  1.00  0.00     0.009 A 
HETATM   27  C   UNL     1     -11.675   3.142 -33.135  1.00  0.00     0.030 A 
ENDBRANCH  17  20
ENDBRANCH  15  16
ENDBRANCH   1  15
TORSDOF 3
ENDMDL
MODEL 7
REMARK VINA RESULT:      -7.7     16.292     18.367
REMARK  3 active torsions:
REMARK  status: ('A' for Active; 'I' for Inactive)
REMARK    1  A    between atoms: C_6  and  N_7 
REMARK       I    between atoms: N_7  and  C_8 
REMARK    2  A    between atoms: C_8  and  C_9 
REMARK    3  A    between atoms: C_9  and  C_10 
ROOT
HETATM    1  C   UNL     1      -1.792 -13.925 -39.201  1.00  0.00     0.286 C 
HETATM    2  N   UNL     1      -2.681 -13.572 -40.404  1.00  0.00    -0.056 N 
HETATM    3  H   UNL     1      -3.578 -13.186 -40.048  1.00  0.00     0.278 HD
HETATM    4  H   UNL     1      -2.239 -12.824 -40.954  1.00  0.00     0.278 HD
HETATM    5  C   UNL     1      -3.062 -14.734 -41.286  1.00  0.00     0.209 C 
HETATM    6  C   UNL     1      -1.808 -15.570 -41.603  1.00  0.00     0.115 C 
HETATM    7  N   UNL     1      -1.200 -16.051 -40.374  1.00  0.00    -0.353 N 
HETATM    8  C   UNL     1      -1.149 -15.328 -39.214  1.00  0.00     0.249 C 
HETATM    9  O   UNL     1      -0.593 -15.793 -38.222  1.00  0.00    -0.271 OA
HETATM   10  C   UNL     1      -3.734 -14.210 -42.549  1.00  0.00     0.035 C 
HETATM   11  C   UNL     1      -4.096 -15.370 -43.477  1.00  0.00     0.002 C 
HETATM   12  C   UNL     1      -2.882 -16.243 -43.793  1.00  0.00     0.002 C 
HETATM   13  C   UNL     1      -2.174 -16.732 -42.530  1.00  0.00     0.027 C 
HETATM   14  H   UNL     1      -0.688 -16.932 -40.360  1.00  0.00     0.163 HD
ENDROOT
BRANCH   1  15
HETATM   15  C   UNL     1      -2.519 -13.683 -37.874  1.00  0.00     0.146 C 
BRANCH  15  16
HETATM   16  C   UNL     1      -3.763 -12.882 -38.160  1.00  0.00     0.224 C 
HETATM   17  N   UNL     1      -4.903 -13.632 -38.313  1.00  0.00    -0.327 N 
HETATM   18  H   UNL     1      -4.868 -14.605 -38.022  1.00  0.00     0.169 HD
HETATM   19  O   UNL     1      -3.621 -11.672 -38.342  1.00  0.00    -0.273 OA
BRANCH  17  20
HETATM   20  C   UNL     1      -6.161 -13.199 -38.803  1.00  0.00     0.040 A 
HETATM   21  C   UNL     1      -7.271 -13.204 -37.930  1.00  0.00    -0.035 A 
HETATM   22  C   UNL     1      -8.534 -12.808 -38.414  1.00  0.00     0.015 A 
HETATM   23  C   UNL     1      -7.163 -13.603 -36.481  1.00  0.00     0.050 C 
HETATM   24  C   UNL     1      -8.715 -12.422 -39.744  1.00  0.00    -0.061 A 
HETATM   25  C   UNL     1     -10.057 -11.969 -40.240  1.00  0.00     0.048 C 
HETATM   26  C   UNL     1      -7.612 -12.410 -40.596  1.00  0.00     0.009 A 
HETATM   27  C   UNL     1      -6.350 -12.796 -40.131  1.00  0.00     0.030 A 
ENDBRANCH  17  20
ENDBRANCH  15  16
ENDBRANCH   1  15
TORSDOF 3
ENDMDL
MODEL 8
REMARK VINA RESULT:      -7.6      2.633      8.569
REMARK  3 active torsions:
REMARK  status: ('A' for Active; 'I' for Inactive)
REMARK    1  A    between atoms: C_6  and  N_7 
REMARK       I    between atoms: N_7  and  C_8 
REMARK    2  A    between atoms: C_8  and  C_9 
REMARK    3  A    between atoms: C_9  and  C_10 
ROOT
HETATM    1  C   UNL     1      -4.376   4.189 -32.466  1.00  0.00     0.286 C 
HETATM    2  N   UNL     1      -4.162   2.888 -31.676  1.00  0.00    -0.056 N 
HETATM    3  H   UNL     1      -3.146   2.780 -31.490  1.00  0.00     0.278 HD
HETATM    4  H   UNL     1      -4.621   2.961 -30.759  1.00  0.00     0.278 HD
HETATM    5  C   UNL     1      -4.580   1.627 -32.388  1.00  0.00     0.209 C 
HETATM    6  C   UNL     1      -5.984   1.820 -32.992  1.00  0.00     0.115 C 
HETATM    7  N   UNL     1      -5.983   2.941 -33.917  1.00  0.00    -0.353 N 
HETATM    8  C   UNL     1      -5.260   4.086 -33.728  1.00  0.00     0.249 C 
HETATM    9  O   UNL     1      -5.332   5.003 -34.542  1.00  0.00    -0.271 OA
HETATM   10  C   UNL     1      -4.535   0.457 -31.412  1.00  0.00     0.035 C 
HETATM   11  C   UNL     1      -4.992  -0.827 -32.102  1.00  0.00     0.002 C 
HETATM   12  C   UNL     1      -6.371  -0.669 -32.742  1.00  0.00     0.002 C 
HETATM   13  C   UNL     1      -6.437   0.532 -33.685  1.00  0.00     0.027 C 
HETATM   14  H   UNL     1      -6.617   2.953 -34.715  1.00  0.00     0.163 HD
ENDROOT
BRANCH   1  15
HETATM   15  C   UNL     1      -3.043   4.868 -32.803  1.00  0.00     0.146 C 
BRANCH  15  16
HETATM   16  C   UNL     1      -2.256   5.012 -31.527  1.00  0.00     0.224 C 
HETATM   17  N   UNL     1      -2.228   6.285 -31.013  1.00  0.00    -0.327 N 
HETATM   18  H   UNL     1      -2.886   6.959 -31.393  1.00  0.00     0.169 HD
HETATM   19  O   UNL     1      -1.631   4.024 -31.139  1.00  0.00    -0.273 OA
BRANCH  17  20
HETATM   20  C   UNL     1      -1.403   6.776 -29.970  1.00  0.00     0.040 A 
HETATM   21  C   UNL     1      -0.033   6.998 -30.231  1.00  0.00    -0.035 A 
HETATM   22  C   UNL     1       0.805   7.454 -29.194  1.00  0.00     0.015 A 
HETATM   23  C   UNL     1       0.580   6.784 -31.591  1.00  0.00     0.050 C 
HETATM   24  C   UNL     1       0.312   7.679 -27.906  1.00  0.00    -0.061 A 
HETATM   25  C   UNL     1       1.205   8.198 -26.817  1.00  0.00     0.048 C 
HETATM   26  C   UNL     1      -1.044   7.467 -27.660  1.00  0.00     0.009 A 
HETATM   27  C   UNL     1      -1.890   7.019 -28.680  1.00  0.00     0.030 A 
ENDBRANCH  17  20
ENDBRANCH  15  16
ENDBRANCH   1  15
TORSDOF 3
ENDMDL
MODEL 9
REMARK VINA RESULT:      -7.6     15.952     17.621
REMARK  3 active torsions:
REMARK  status: ('A' for Active; 'I' for Inactive)
REMARK    1  A    between atoms: C_6  and  N_7 
REMARK       I    between atoms: N_7  and  C_8 
REMARK    2  A    between atoms: C_8  and  C_9 
REMARK    3  A    between atoms: C_9  and  C_10 
ROOT
HETATM    1  C   UNL     1      -6.022 -14.655 -35.695  1.00  0.00     0.286 C 
HETATM    2  N   UNL     1      -5.531 -14.762 -37.147  1.00  0.00    -0.056 N 
HETATM    3  H   UNL     1      -4.493 -14.763 -37.144  1.00  0.00     0.278 HD
HETATM    4  H   UNL     1      -5.823 -15.664 -37.546  1.00  0.00     0.278 HD
HETATM    5  C   UNL     1      -5.933 -13.622 -38.048  1.00  0.00     0.209 C 
HETATM    6  C   UNL     1      -7.436 -13.330 -37.868  1.00  0.00     0.115 C 
HETATM    7  N   UNL     1      -7.721 -12.999 -36.482  1.00  0.00    -0.353 N 
HETATM    8  C   UNL     1      -7.102 -13.589 -35.413  1.00  0.00     0.249 C 
HETATM    9  O   UNL     1      -7.417 -13.275 -34.268  1.00  0.00    -0.271 OA
HETATM   10  C   UNL     1      -5.588 -13.971 -39.490  1.00  0.00     0.035 C 
HETATM   11  C   UNL     1      -6.022 -12.844 -40.427  1.00  0.00     0.002 C 
HETATM   12  C   UNL     1      -7.502 -12.503 -40.258  1.00  0.00     0.002 C 
HETATM   13  C   UNL     1      -7.865 -12.199 -38.805  1.00  0.00     0.027 C 
HETATM   14  H   UNL     1      -8.485 -12.368 -36.248  1.00  0.00     0.163 HD
ENDROOT
BRANCH   1  15
HETATM   15  C   UNL     1      -4.852 -14.500 -34.716  1.00  0.00     0.146 C 
BRANCH  15  16
HETATM   16  C   UNL     1      -3.627 -15.103 -35.352  1.00  0.00     0.224 C 
HETATM   17  N   UNL     1      -2.654 -14.196 -35.693  1.00  0.00    -0.327 N 
HETATM   18  H   UNL     1      -2.734 -13.257 -35.314  1.00  0.00     0.169 HD
HETATM   19  O   UNL     1      -3.662 -16.308 -35.606  1.00  0.00    -0.273 OA
BRANCH  17  20
HETATM   20  C   UNL     1      -1.507 -14.421 -36.496  1.00  0.00     0.040 A 
HETATM   21  C   UNL     1      -1.332 -13.653 -37.667  1.00  0.00    -0.035 A 
HETATM   22  C   UNL     1      -0.214 -13.891 -38.491  1.00  0.00     0.015 A 
HETATM   23  C   UNL     1      -2.290 -12.563 -38.074  1.00  0.00     0.050 C 
HETATM   24  C   UNL     1       0.721 -14.881 -38.181  1.00  0.00    -0.061 A 
HETATM   25  C   UNL     1       1.926 -15.103 -39.047  1.00  0.00     0.048 C 
HETATM   26  C   UNL     1       0.545 -15.628 -37.017  1.00  0.00     0.009 A 
HETATM   27  C   UNL     1      -0.556 -15.402 -36.186  1.00  0.00     0.030 A 
ENDBRANCH  17  20
ENDBRANCH  15  16
ENDBRANCH   1  15
TORSDOF 3
ENDMDL
MODEL 10
REMARK VINA RESULT:      -7.6      3.438      8.122
REMARK  3 active torsions:
REMARK  status: ('A' for Active; 'I' for Inactive)
REMARK    1  A    between atoms: C_6  and  N_7 
REMARK       I    between atoms: N_7  and  C_8 
REMARK    2  A    between atoms: C_8  and  C_9 
REMARK    3  A    between atoms: C_9  and  C_10 
ROOT
HETATM    1  C   UNL     1      -8.561   2.167 -32.665  1.00  0.00     0.286 C 
HETATM    2  N   UNL     1      -9.514   2.932 -33.597  1.00  0.00    -0.056 N 
HETATM    3  H   UNL     1      -9.527   3.929 -33.307  1.00  0.00     0.278 HD
HETATM    4  H   UNL     1      -9.149   2.912 -34.558  1.00  0.00     0.278 HD
HETATM    5  C   UNL     1     -10.952   2.480 -33.560  1.00  0.00     0.209 C 
HETATM    6  C   UNL     1     -11.010   0.943 -33.657  1.00  0.00     0.115 C 
HETATM    7  N   UNL     1     -10.266   0.342 -32.564  1.00  0.00    -0.353 N 
HETATM    8  C   UNL     1      -9.105   0.857 -32.055  1.00  0.00     0.249 C 
HETATM    9  O   UNL     1      -8.518   0.275 -31.146  1.00  0.00    -0.271 OA
HETATM   10  C   UNL     1     -11.722   3.153 -34.689  1.00  0.00     0.035 C 
HETATM   11  C   UNL     1     -13.176   2.681 -34.694  1.00  0.00     0.002 C 
HETATM   12  C   UNL     1     -13.277   1.157 -34.760  1.00  0.00     0.002 C 
HETATM   13  C   UNL     1     -12.466   0.473 -33.659  1.00  0.00     0.027 C 
HETATM   14  H   UNL     1     -10.539  -0.566 -32.190  1.00  0.00     0.163 HD
ENDROOT
BRANCH   1  15
HETATM   15  C   UNL     1      -8.001   3.075 -31.564  1.00  0.00     0.146 C 
BRANCH  15  16
HETATM   16  C   UNL     1      -6.978   3.989 -32.187  1.00  0.00     0.224 C 
HETATM   17  N   UNL     1      -5.989   3.345 -32.889  1.00  0.00    -0.327 N 
HETATM   18  H   UNL     1      -6.132   2.363 -33.109  1.00  0.00     0.169 HD
HETATM   19  O   UNL     1      -7.058   5.188 -31.917  1.00  0.00    -0.273 OA
BRANCH  17  20
HETATM   20  C   UNL     1      -4.784   3.900 -33.389  1.00  0.00     0.040 A 
HETATM   21  C   UNL     1      -3.571   3.602 -32.730  1.00  0.00    -0.035 A 
HETATM   22  C   UNL     1      -2.371   4.176 -33.196  1.00  0.00     0.015 A 
HETATM   23  C   UNL     1      -3.497   2.674 -31.546  1.00  0.00     0.050 C 
HETATM   24  C   UNL     1      -2.356   5.044 -34.290  1.00  0.00    -0.061 A 
HETATM   25  C   UNL     1      -1.068   5.622 -34.800  1.00  0.00     0.048 C 
HETATM   26  C   UNL     1      -3.557   5.325 -34.940  1.00  0.00     0.009 A 
HETATM   27  C   UNL     1      -4.757   4.760 -34.494  1.00  0.00     0.030 A 
ENDBRANCH  17  20
ENDBRANCH  15  16
ENDBRANCH   1  15
TORSDOF 3
ENDMDL
