MODEL 1
REMARK VINA RESULT:      -9.0      0.000      0.000
REMARK  7 active torsions:
REMARK  status: ('A' for Active; 'I' for Inactive)
REMARK    1  A    between atoms: C_2  and  C_3 
REMARK       I    between atoms: C_3  and  N_4 
REMARK    2  A    between atoms: N_7  and  C_8 
REMARK    3  A    between atoms: C_9  and  N_10 
REMARK    4  A    between atoms: N_10  and  C_11 
REMARK    5  A    between atoms: C_11  and  N_12 
REMARK       I    between atoms: N_12  and  C_13 
REMARK    6  A    between atoms: C_13  and  C_14 
REMARK    7  A    between atoms: C_15  and  O_16 
ROOT
HETATM    1  C   UNL     1      -8.159   2.942 -33.042  1.00  0.00     0.037 A 
HETATM    2  C   UNL     1      -8.327   1.723 -32.329  1.00  0.00     0.057 A 
HETATM    3  C   UNL     1      -9.494   0.967 -32.469  1.00  0.00     0.055 A 
HETATM    4  C   UNL     1     -10.485   1.389 -33.350  1.00  0.00     0.036 A 
HETATM    5 CL   UNL     1     -11.912   0.448 -33.541  1.00  0.00    -0.084 Cl
HETATM    6  C   UNL     1     -10.336   2.571 -34.071  1.00  0.00     0.026 A 
HETATM    7  C   UNL     1      -9.183   3.346 -33.911  1.00  0.00     0.027 A 
ENDROOT
BRANCH   2   8
HETATM    8  N   UNL     1      -7.303   1.381 -31.415  1.00  0.00    -0.331 N 
HETATM    9  H   UNL     1      -7.587   1.538 -30.450  1.00  0.00     0.168 HD
BRANCH   8  10
HETATM   10  C   UNL     1      -6.105   0.785 -31.592  1.00  0.00     0.179 C 
HETATM   11  S   UNL     1      -4.727   1.537 -31.013  1.00  0.00    -0.040 SA
BRANCH  10  12
HETATM   12  N   UNL     1      -5.964  -0.388 -32.273  1.00  0.00    -0.299 N 
HETATM   13  C   UNL     1      -5.989  -0.616 -33.646  1.00  0.00     0.260 C 
HETATM   14  O   UNL     1      -6.111   0.229 -34.525  1.00  0.00    -0.267 OA
HETATM   15  H   UNL     1      -5.506  -1.113 -31.730  1.00  0.00     0.171 HD
BRANCH  13  16
HETATM   16  C   UNL     1      -5.826  -2.037 -34.046  1.00  0.00     0.066 A 
HETATM   17  C   UNL     1      -4.617  -2.733 -33.900  1.00  0.00     0.089 A 
HETATM   18  C   UNL     1      -4.539  -4.101 -34.208  1.00  0.00    -0.028 A 
HETATM   19  C   UNL     1      -3.266  -4.877 -34.034  1.00  0.00     0.051 C 
HETATM   20  C   UNL     1      -5.672  -4.736 -34.739  1.00  0.00     0.009 A 
HETATM   21  C   UNL     1      -6.865  -4.036 -34.928  1.00  0.00     0.002 A 
HETATM   22  C   UNL     1      -6.944  -2.688 -34.580  1.00  0.00     0.020 A 
BRANCH  17  23
HETATM   23  O   UNL     1      -3.505  -2.098 -33.399  1.00  0.00    -0.354 OA
HETATM   24  C   UNL     1      -3.357  -2.396 -32.004  1.00  0.00     0.210 C 
ENDBRANCH  17  23
ENDBRANCH  13  16
ENDBRANCH  10  12
ENDBRANCH   8  10
ENDBRANCH   2   8
BRANCH   1  25
HETATM   25  N   UNL     1      -6.959   3.676 -32.870  1.00  0.00    -0.278 NA
HETATM   26  C   UNL     1      -7.045   4.951 -32.126  1.00  0.00     0.115 C 
HETATM   27  C   UNL     1      -5.629   5.474 -31.825  1.00  0.00     0.140 C 
HETATM   28  N   UNL     1      -4.766   5.542 -33.015  1.00  0.00    -0.350 N 
HETATM   29  C   UNL     1      -3.676   6.407 -32.954  1.00  0.00     0.219 C 
HETATM   30  C   UNL     1      -4.813   4.363 -33.895  1.00  0.00     0.140 C 
HETATM   31  O   UNL     1      -3.551   7.236 -32.051  1.00  0.00    -0.273 OA
HETATM   32  C   UNL     1      -6.246   3.860 -34.162  1.00  0.00     0.115 C 
BRANCH  29  33
HETATM   33  C   UNL     1      -2.648   6.293 -34.070  1.00  0.00     0.098 C 
HETATM   34  C   UNL     1      -1.222   6.245 -33.545  1.00  0.00     0.014 C 
ENDBRANCH  29  33
ENDBRANCH   1  25
TORSDOF 7
ENDMDL
MODEL 2
REMARK VINA RESULT:      -8.8      2.893      5.607
REMARK  7 active torsions:
REMARK  status: ('A' for Active; 'I' for Inactive)
REMARK    1  A    between atoms: C_2  and  C_3 
REMARK       I    between atoms: C_3  and  N_4 
REMARK    2  A    between atoms: N_7  and  C_8 
REMARK    3  A    between atoms: C_9  and  N_10 
REMARK    4  A    between atoms: N_10  and  C_11 
REMARK    5  A    between atoms: C_11  and  N_12 
REMARK       I    between atoms: N_12  and  C_13 
REMARK    6  A    between atoms: C_13  and  C_14 
REMARK    7  A    between atoms: C_15  and  O_16 
ROOT
HETATM    1  C   UNL     1      -7.831   3.641 -33.097  1.00  0.00     0.037 A 
HETATM    2  C   UNL     1      -6.806   2.859 -32.496  1.00  0.00     0.057 A 
HETATM    3  C   UNL     1      -5.475   3.284 -32.519  1.00  0.00     0.055 A 
HETATM    4  C   UNL     1      -5.155   4.508 -33.097  1.00  0.00     0.036 A 
HETATM    5 CL   UNL     1      -3.519   5.044 -33.106  1.00  0.00    -0.084 Cl
HETATM    6  C   UNL     1      -6.143   5.299 -33.678  1.00  0.00     0.026 A 
HETATM    7  C   UNL     1      -7.472   4.863 -33.684  1.00  0.00     0.027 A 
ENDROOT
BRANCH   2   8
HETATM    8  N   UNL     1      -7.196   1.604 -31.972  1.00  0.00    -0.331 N 
HETATM    9  H   UNL     1      -8.193   1.436 -32.088  1.00  0.00     0.168 HD
BRANCH   8  10
HETATM   10  C   UNL     1      -6.475   0.576 -31.477  1.00  0.00     0.179 C 
HETATM   11  S   UNL     1      -5.795   0.715 -29.955  1.00  0.00    -0.040 SA
BRANCH  10  12
HETATM   12  N   UNL     1      -6.234  -0.559 -32.192  1.00  0.00    -0.299 N 
HETATM   13  C   UNL     1      -6.095  -0.719 -33.569  1.00  0.00     0.260 C 
HETATM   14  O   UNL     1      -6.133   0.167 -34.414  1.00  0.00    -0.267 OA
HETATM   15  H   UNL     1      -5.827  -1.304 -31.636  1.00  0.00     0.171 HD
BRANCH  13  16
HETATM   16  C   UNL     1      -5.859  -2.115 -34.014  1.00  0.00     0.066 A 
HETATM   17  C   UNL     1      -4.621  -2.760 -33.868  1.00  0.00     0.089 A 
HETATM   18  C   UNL     1      -4.474  -4.111 -34.223  1.00  0.00    -0.028 A 
HETATM   19  C   UNL     1      -3.169  -4.833 -34.050  1.00  0.00     0.051 C 
HETATM   20  C   UNL     1      -5.566  -4.779 -34.799  1.00  0.00     0.009 A 
HETATM   21  C   UNL     1      -6.786  -4.127 -34.986  1.00  0.00     0.002 A 
HETATM   22  C   UNL     1      -6.935  -2.798 -34.594  1.00  0.00     0.020 A 
BRANCH  17  23
HETATM   23  O   UNL     1      -3.549  -2.093 -33.323  1.00  0.00    -0.354 OA
HETATM   24  C   UNL     1      -3.356  -2.506 -31.964  1.00  0.00     0.210 C 
ENDBRANCH  17  23
ENDBRANCH  13  16
ENDBRANCH  10  12
ENDBRANCH   8  10
ENDBRANCH   2   8
BRANCH   1  25
HETATM   25  N   UNL     1      -9.167   3.171 -33.049  1.00  0.00    -0.278 NA
HETATM   26  C   UNL     1      -9.733   2.608 -34.294  1.00  0.00     0.115 C 
HETATM   27  C   UNL     1     -11.081   1.930 -33.993  1.00  0.00     0.140 C 
HETATM   28  N   UNL     1     -12.018   2.794 -33.257  1.00  0.00    -0.350 N 
HETATM   29  C   UNL     1     -13.371   2.475 -33.346  1.00  0.00     0.219 C 
HETATM   30  C   UNL     1     -11.435   3.536 -32.127  1.00  0.00     0.140 C 
HETATM   31  O   UNL     1     -13.795   1.657 -34.163  1.00  0.00    -0.273 OA
HETATM   32  C   UNL     1     -10.079   4.189 -32.462  1.00  0.00     0.115 C 
BRANCH  29  33
HETATM   33  C   UNL     1     -14.309   3.202 -32.393  1.00  0.00     0.098 C 
HETATM   34  C   UNL     1     -15.553   2.390 -32.070  1.00  0.00     0.014 C 
ENDBRANCH  29  33
ENDBRANCH   1  25
TORSDOF 7
ENDMDL
MODEL 3
REMARK VINA RESULT:      -8.4      1.655      2.564
REMARK  7 active torsions:
REMARK  status: ('A' for Active; 'I' for Inactive)
REMARK    1  A    between atoms: C_2  and  C_3 
REMARK       I    between atoms: C_3  and  N_4 
REMARK    2  A    between atoms: N_7  and  C_8 
REMARK    3  A    between atoms: C_9  and  N_10 
REMARK    4  A    between atoms: N_10  and  C_11 
REMARK    5  A    between atoms: C_11  and  N_12 
REMARK       I    between atoms: N_12  and  C_13 
REMARK    6  A    between atoms: C_13  and  C_14 
REMARK    7  A    between atoms: C_15  and  O_16 
ROOT
HETATM    1  C   UNL     1      -6.539   4.310 -32.724  1.00  0.00     0.037 A 
HETATM    2  C   UNL     1      -6.673   2.910 -32.941  1.00  0.00     0.057 A 
HETATM    3  C   UNL     1      -7.841   2.381 -33.498  1.00  0.00     0.055 A 
HETATM    4  C   UNL     1      -8.867   3.238 -33.886  1.00  0.00     0.036 A 
HETATM    5 CL   UNL     1     -10.296   2.590 -34.592  1.00  0.00    -0.084 Cl
HETATM    6  C   UNL     1      -8.752   4.612 -33.698  1.00  0.00     0.026 A 
HETATM    7  C   UNL     1      -7.598   5.143 -33.113  1.00  0.00     0.027 A 
ENDROOT
BRANCH   2   8
HETATM    8  N   UNL     1      -5.614   2.096 -32.478  1.00  0.00    -0.331 N 
HETATM    9  H   UNL     1      -4.703   2.476 -32.730  1.00  0.00     0.168 HD
BRANCH   8  10
HETATM   10  C   UNL     1      -5.602   1.008 -31.679  1.00  0.00     0.179 C 
HETATM   11  S   UNL     1      -5.835   1.202 -30.034  1.00  0.00    -0.040 SA
BRANCH  10  12
HETATM   12  N   UNL     1      -5.352  -0.245 -32.154  1.00  0.00    -0.299 N 
HETATM   13  C   UNL     1      -4.259  -0.710 -32.881  1.00  0.00     0.260 C 
HETATM   14  O   UNL     1      -3.272  -0.063 -33.209  1.00  0.00    -0.267 OA
HETATM   15  H   UNL     1      -5.880  -0.967 -31.673  1.00  0.00     0.171 HD
BRANCH  13  16
HETATM   16  C   UNL     1      -4.326  -2.144 -33.260  1.00  0.00     0.066 A 
HETATM   17  C   UNL     1      -5.222  -2.634 -34.222  1.00  0.00     0.089 A 
HETATM   18  C   UNL     1      -5.184  -3.983 -34.611  1.00  0.00    -0.028 A 
HETATM   19  C   UNL     1      -6.112  -4.528 -35.658  1.00  0.00     0.051 C 
HETATM   20  C   UNL     1      -4.287  -4.846 -33.962  1.00  0.00     0.009 A 
HETATM   21  C   UNL     1      -3.424  -4.370 -32.973  1.00  0.00     0.002 A 
HETATM   22  C   UNL     1      -3.441  -3.021 -32.622  1.00  0.00     0.020 A 
BRANCH  17  23
HETATM   23  O   UNL     1      -6.113  -1.788 -34.838  1.00  0.00    -0.354 OA
HETATM   24  C   UNL     1      -7.364  -1.797 -34.137  1.00  0.00     0.210 C 
ENDBRANCH  17  23
ENDBRANCH  13  16
ENDBRANCH  10  12
ENDBRANCH   8  10
ENDBRANCH   2   8
BRANCH   1  25
HETATM   25  N   UNL     1      -5.337   4.802 -32.159  1.00  0.00    -0.278 NA
HETATM   26  C   UNL     1      -5.458   5.730 -31.013  1.00  0.00     0.115 C 
HETATM   27  C   UNL     1      -4.074   5.958 -30.380  1.00  0.00     0.140 C 
HETATM   28  N   UNL     1      -3.044   6.354 -31.354  1.00  0.00    -0.350 N 
HETATM   29  C   UNL     1      -1.927   7.020 -30.854  1.00  0.00     0.219 C 
HETATM   30  C   UNL     1      -3.030   5.578 -32.605  1.00  0.00     0.140 C 
HETATM   31  O   UNL     1      -1.888   7.453 -29.702  1.00  0.00    -0.273 OA
HETATM   32  C   UNL     1      -4.435   5.358 -33.201  1.00  0.00     0.115 C 
BRANCH  29  33
HETATM   33  C   UNL     1      -0.756   7.203 -31.809  1.00  0.00     0.098 C 
HETATM   34  C   UNL     1       0.571   6.802 -31.184  1.00  0.00     0.014 C 
ENDBRANCH  29  33
ENDBRANCH   1  25
TORSDOF 7
ENDMDL
MODEL 4
REMARK VINA RESULT:      -8.4      2.767      7.360
REMARK  7 active torsions:
REMARK  status: ('A' for Active; 'I' for Inactive)
REMARK    1  A    between atoms: C_2  and  C_3 
REMARK       I    between atoms: C_3  and  N_4 
REMARK    2  A    between atoms: N_7  and  C_8 
REMARK    3  A    between atoms: C_9  and  N_10 
REMARK    4  A    between atoms: N_10  and  C_11 
REMARK    5  A    between atoms: C_11  and  N_12 
REMARK       I    between atoms: N_12  and  C_13 
REMARK    6  A    between atoms: C_13  and  C_14 
REMARK    7  A    between atoms: C_15  and  O_16 
ROOT
HETATM    1  C   UNL     1      -6.960  -0.307 -33.592  1.00  0.00     0.037 A 
HETATM    2  C   UNL     1      -5.561  -0.185 -33.364  1.00  0.00     0.057 A 
HETATM    3  C   UNL     1      -4.695  -1.242 -33.655  1.00  0.00     0.055 A 
HETATM    4  C   UNL     1      -5.200  -2.410 -34.217  1.00  0.00     0.036 A 
HETATM    5 CL   UNL     1      -4.130  -3.704 -34.598  1.00  0.00    -0.084 Cl
HETATM    6  C   UNL     1      -6.563  -2.547 -34.463  1.00  0.00     0.026 A 
HETATM    7  C   UNL     1      -7.438  -1.503 -34.145  1.00  0.00     0.027 A 
ENDROOT
BRANCH   2   8
HETATM    8  N   UNL     1      -5.125   1.010 -32.746  1.00  0.00    -0.331 N 
HETATM    9  H   UNL     1      -5.874   1.695 -32.669  1.00  0.00     0.168 HD
BRANCH   8  10
HETATM   10  C   UNL     1      -3.960   1.337 -32.147  1.00  0.00     0.179 C 
HETATM   11  S   UNL     1      -3.309   0.299 -31.008  1.00  0.00    -0.040 SA
BRANCH  10  12
HETATM   12  N   UNL     1      -3.314   2.511 -32.397  1.00  0.00    -0.299 N 
HETATM   13  C   UNL     1      -3.793   3.666 -33.011  1.00  0.00     0.260 C 
HETATM   14  O   UNL     1      -4.931   3.855 -33.424  1.00  0.00    -0.267 OA
HETATM   15  H   UNL     1      -2.496   2.650 -31.812  1.00  0.00     0.171 HD
BRANCH  13  16
HETATM   16  C   UNL     1      -2.799   4.761 -33.142  1.00  0.00     0.066 A 
HETATM   17  C   UNL     1      -2.353   5.516 -32.047  1.00  0.00     0.089 A 
HETATM   18  C   UNL     1      -1.345   6.480 -32.209  1.00  0.00    -0.028 A 
HETATM   19  C   UNL     1      -0.828   7.283 -31.050  1.00  0.00     0.051 C 
HETATM   20  C   UNL     1      -0.851   6.728 -33.499  1.00  0.00     0.009 A 
HETATM   21  C   UNL     1      -1.324   6.009 -34.598  1.00  0.00     0.002 A 
HETATM   22  C   UNL     1      -2.296   5.025 -34.422  1.00  0.00     0.020 A 
BRANCH  17  23
HETATM   23  O   UNL     1      -2.857   5.283 -30.789  1.00  0.00    -0.354 OA
HETATM   24  C   UNL     1      -4.050   6.052 -30.588  1.00  0.00     0.210 C 
ENDBRANCH  17  23
ENDBRANCH  13  16
ENDBRANCH  10  12
ENDBRANCH   8  10
ENDBRANCH   2   8
BRANCH   1  25
HETATM   25  N   UNL     1      -7.802   0.790 -33.282  1.00  0.00    -0.278 NA
HETATM   26  C   UNL     1      -8.487   0.770 -31.972  1.00  0.00     0.115 C 
HETATM   27  C   UNL     1      -9.146   2.135 -31.707  1.00  0.00     0.140 C 
HETATM   28  N   UNL     1     -10.001   2.595 -32.814  1.00  0.00    -0.350 N 
HETATM   29  C   UNL     1     -10.978   3.539 -32.505  1.00  0.00     0.219 C 
HETATM   30  C   UNL     1      -9.427   2.437 -34.160  1.00  0.00     0.140 C 
HETATM   31  O   UNL     1     -11.267   3.820 -31.341  1.00  0.00    -0.273 OA
HETATM   32  C   UNL     1      -8.764   1.063 -34.382  1.00  0.00     0.115 C 
BRANCH  29  33
HETATM   33  C   UNL     1     -11.687   4.199 -33.678  1.00  0.00     0.098 C 
HETATM   34  C   UNL     1     -13.005   3.521 -34.017  1.00  0.00     0.014 C 
ENDBRANCH  29  33
ENDBRANCH   1  25
TORSDOF 7
ENDMDL
MODEL 5
REMARK VINA RESULT:      -8.3      3.336      8.292
REMARK  7 active torsions:
REMARK  status: ('A' for Active; 'I' for Inactive)
REMARK    1  A    between atoms: C_2  and  C_3 
REMARK       I    between atoms: C_3  and  N_4 
REMARK    2  A    between atoms: N_7  and  C_8 
REMARK    3  A    between atoms: C_9  and  N_10 
REMARK    4  A    between atoms: N_10  and  C_11 
REMARK    5  A    between atoms: C_11  and  N_12 
REMARK       I    between atoms: N_12  and  C_13 
REMARK    6  A    between atoms: C_13  and  C_14 
REMARK    7  A    between atoms: C_15  and  O_16 
ROOT
HETATM    1  C   UNL     1      -6.309   0.912 -32.476  1.00  0.00     0.037 A 
HETATM    2  C   UNL     1      -5.121   1.657 -32.239  1.00  0.00     0.057 A 
HETATM    3  C   UNL     1      -3.894   1.011 -32.063  1.00  0.00     0.055 A 
HETATM    4  C   UNL     1      -3.827  -0.375 -32.165  1.00  0.00     0.036 A 
HETATM    5 CL   UNL     1      -2.313  -1.171 -31.971  1.00  0.00    -0.084 Cl
HETATM    6  C   UNL     1      -4.974  -1.125 -32.412  1.00  0.00     0.026 A 
HETATM    7  C   UNL     1      -6.208  -0.484 -32.558  1.00  0.00     0.027 A 
ENDROOT
BRANCH   2   8
HETATM    8  N   UNL     1      -5.271   3.056 -32.099  1.00  0.00    -0.331 N 
HETATM    9  H   UNL     1      -5.671   3.482 -32.933  1.00  0.00     0.168 HD
BRANCH   8  10
HETATM   10  C   UNL     1      -5.101   3.875 -31.039  1.00  0.00     0.179 C 
HETATM   11  S   UNL     1      -6.359   4.080 -29.956  1.00  0.00    -0.040 SA
BRANCH  10  12
HETATM   12  N   UNL     1      -3.955   4.588 -30.843  1.00  0.00    -0.299 N 
HETATM   13  C   UNL     1      -2.905   4.827 -31.726  1.00  0.00     0.260 C 
HETATM   14  O   UNL     1      -2.833   4.456 -32.891  1.00  0.00    -0.267 OA
HETATM   15  H   UNL     1      -4.021   5.247 -30.074  1.00  0.00     0.171 HD
BRANCH  13  16
HETATM   16  C   UNL     1      -1.791   5.634 -31.167  1.00  0.00     0.066 A 
HETATM   17  C   UNL     1      -2.002   6.782 -30.388  1.00  0.00     0.089 A 
HETATM   18  C   UNL     1      -0.917   7.458 -29.806  1.00  0.00    -0.028 A 
HETATM   19  C   UNL     1      -1.114   8.671 -28.945  1.00  0.00     0.051 C 
HETATM   20  C   UNL     1       0.384   7.010 -30.086  1.00  0.00     0.009 A 
HETATM   21  C   UNL     1       0.599   5.894 -30.897  1.00  0.00     0.002 A 
HETATM   22  C   UNL     1      -0.486   5.205 -31.436  1.00  0.00     0.020 A 
BRANCH  17  23
HETATM   23  O   UNL     1      -3.277   7.228 -30.135  1.00  0.00    -0.354 OA
HETATM   24  C   UNL     1      -3.680   8.159 -31.148  1.00  0.00     0.210 C 
ENDBRANCH  17  23
ENDBRANCH  13  16
ENDBRANCH  10  12
ENDBRANCH   8  10
ENDBRANCH   2   8
BRANCH   1  25
HETATM   25  N   UNL     1      -7.530   1.609 -32.650  1.00  0.00    -0.278 NA
HETATM   26  C   UNL     1      -8.555   1.455 -31.594  1.00  0.00     0.115 C 
HETATM   27  C   UNL     1      -9.694   2.464 -31.822  1.00  0.00     0.140 C 
HETATM   28  N   UNL     1     -10.243   2.427 -33.187  1.00  0.00    -0.350 N 
HETATM   29  C   UNL     1     -11.529   2.930 -33.363  1.00  0.00     0.219 C 
HETATM   30  C   UNL     1      -9.242   2.371 -34.267  1.00  0.00     0.140 C 
HETATM   31  O   UNL     1     -12.262   3.193 -32.409  1.00  0.00    -0.273 OA
HETATM   32  C   UNL     1      -8.111   1.359 -33.996  1.00  0.00     0.115 C 
BRANCH  29  33
HETATM   33  C   UNL     1     -11.998   3.126 -34.798  1.00  0.00     0.098 C 
HETATM   34  C   UNL     1     -12.722   1.907 -35.345  1.00  0.00     0.014 C 
ENDBRANCH  29  33
ENDBRANCH   1  25
TORSDOF 7
ENDMDL
MODEL 6
REMARK VINA RESULT:      -8.2      3.065      5.588
REMARK  7 active torsions:
REMARK  status: ('A' for Active; 'I' for Inactive)
REMARK    1  A    between atoms: C_2  and  C_3 
REMARK       I    between atoms: C_3  and  N_4 
REMARK    2  A    between atoms: N_7  and  C_8 
REMARK    3  A    between atoms: C_9  and  N_10 
REMARK    4  A    between atoms: N_10  and  C_11 
REMARK    5  A    between atoms: C_11  and  N_12 
REMARK       I    between atoms: N_12  and  C_13 
REMARK    6  A    between atoms: C_13  and  C_14 
REMARK    7  A    between atoms: C_15  and  O_16 
ROOT
HETATM    1  C   UNL     1      -7.413   4.477 -30.532  1.00  0.00     0.037 A 
HETATM    2  C   UNL     1      -6.012   4.618 -30.732  1.00  0.00     0.057 A 
HETATM    3  C   UNL     1      -5.208   5.228 -29.764  1.00  0.00     0.055 A 
HETATM    4  C   UNL     1      -5.779   5.662 -28.572  1.00  0.00     0.036 A 
HETATM    5 CL   UNL     1      -4.787   6.392 -27.370  1.00  0.00    -0.084 Cl
HETATM    6  C   UNL     1      -7.145   5.520 -28.346  1.00  0.00     0.026 A 
HETATM    7  C   UNL     1      -7.957   4.938 -29.324  1.00  0.00     0.027 A 
ENDROOT
BRANCH   2   8
HETATM    8  N   UNL     1      -5.509   4.201 -31.987  1.00  0.00    -0.331 N 
HETATM    9  H   UNL     1      -5.811   4.815 -32.741  1.00  0.00     0.168 HD
BRANCH   8  10
HETATM   10  C   UNL     1      -4.625   3.238 -32.324  1.00  0.00     0.179 C 
HETATM   11  S   UNL     1      -2.988   3.552 -32.191  1.00  0.00    -0.040 SA
BRANCH  10  12
HETATM   12  N   UNL     1      -5.015   2.031 -32.823  1.00  0.00    -0.299 N 
HETATM   13  C   UNL     1      -5.655   0.976 -32.175  1.00  0.00     0.260 C 
HETATM   14  O   UNL     1      -6.027   0.954 -31.008  1.00  0.00    -0.267 OA
HETATM   15  H   UNL     1      -5.106   2.026 -33.833  1.00  0.00     0.171 HD
BRANCH  13  16
HETATM   16  C   UNL     1      -5.911  -0.214 -33.025  1.00  0.00     0.066 A 
HETATM   17  C   UNL     1      -4.891  -1.080 -33.446  1.00  0.00     0.089 A 
HETATM   18  C   UNL     1      -5.197  -2.242 -34.173  1.00  0.00    -0.028 A 
HETATM   19  C   UNL     1      -4.128  -3.201 -34.612  1.00  0.00     0.051 C 
HETATM   20  C   UNL     1      -6.532  -2.478 -34.536  1.00  0.00     0.009 A 
HETATM   21  C   UNL     1      -7.544  -1.595 -34.156  1.00  0.00     0.002 A 
HETATM   22  C   UNL     1      -7.237  -0.464 -33.400  1.00  0.00     0.020 A 
BRANCH  17  23
HETATM   23  O   UNL     1      -3.582  -0.832 -33.105  1.00  0.00    -0.354 OA
HETATM   24  C   UNL     1      -3.266  -1.486 -31.869  1.00  0.00     0.210 C 
ENDBRANCH  17  23
ENDBRANCH  13  16
ENDBRANCH  10  12
ENDBRANCH   8  10
ENDBRANCH   2   8
BRANCH   1  25
HETATM   25  N   UNL     1      -8.188   3.852 -31.539  1.00  0.00    -0.278 NA
HETATM   26  C   UNL     1      -8.986   4.729 -32.423  1.00  0.00     0.115 C 
HETATM   27  C   UNL     1      -9.554   3.910 -33.595  1.00  0.00     0.140 C 
HETATM   28  N   UNL     1     -10.270   2.697 -33.166  1.00  0.00    -0.350 N 
HETATM   29  C   UNL     1     -11.191   2.160 -34.062  1.00  0.00     0.219 C 
HETATM   30  C   UNL     1      -9.594   1.901 -32.128  1.00  0.00     0.140 C 
HETATM   31  O   UNL     1     -11.559   2.773 -35.065  1.00  0.00    -0.273 OA
HETATM   32  C   UNL     1      -9.026   2.758 -30.979  1.00  0.00     0.115 C 
BRANCH  29  33
HETATM   33  C   UNL     1     -11.740   0.779 -33.733  1.00  0.00     0.098 C 
HETATM   34  C   UNL     1     -13.195   0.619 -34.143  1.00  0.00     0.014 C 
ENDBRANCH  29  33
ENDBRANCH   1  25
TORSDOF 7
ENDMDL
MODEL 7
REMARK VINA RESULT:      -8.1      4.514      6.609
REMARK  7 active torsions:
REMARK  status: ('A' for Active; 'I' for Inactive)
REMARK    1  A    between atoms: C_2  and  C_3 
REMARK       I    between atoms: C_3  and  N_4 
REMARK    2  A    between atoms: N_7  and  C_8 
REMARK    3  A    between atoms: C_9  and  N_10 
REMARK    4  A    between atoms: N_10  and  C_11 
REMARK    5  A    between atoms: C_11  and  N_12 
REMARK       I    between atoms: N_12  and  C_13 
REMARK    6  A    between atoms: C_13  and  C_14 
REMARK    7  A    between atoms: C_15  and  O_16 
ROOT
HETATM    1  C   UNL     1      -2.471   6.488 -30.752  1.00  0.00     0.037 A 
HETATM    2  C   UNL     1      -2.779   5.243 -31.366  1.00  0.00     0.057 A 
HETATM    3  C   UNL     1      -2.351   4.961 -32.666  1.00  0.00     0.055 A 
HETATM    4  C   UNL     1      -1.576   5.891 -33.351  1.00  0.00     0.036 A 
HETATM    5 CL   UNL     1      -1.029   5.535 -34.943  1.00  0.00    -0.084 Cl
HETATM    6  C   UNL     1      -1.249   7.110 -32.765  1.00  0.00     0.026 A 
HETATM    7  C   UNL     1      -1.701   7.409 -31.476  1.00  0.00     0.027 A 
ENDROOT
BRANCH   2   8
HETATM    8  N   UNL     1      -3.611   4.366 -30.631  1.00  0.00    -0.331 N 
HETATM    9  H   UNL     1      -3.284   4.242 -29.675  1.00  0.00     0.168 HD
BRANCH   8  10
HETATM   10  C   UNL     1      -4.793   3.788 -30.932  1.00  0.00     0.179 C 
HETATM   11  S   UNL     1      -6.213   4.560 -30.500  1.00  0.00    -0.040 SA
BRANCH  10  12
HETATM   12  N   UNL     1      -4.878   2.566 -31.531  1.00  0.00    -0.299 N 
HETATM   13  C   UNL     1      -5.167   1.326 -30.966  1.00  0.00     0.260 C 
HETATM   14  O   UNL     1      -5.441   1.106 -29.792  1.00  0.00    -0.267 OA
HETATM   15  H   UNL     1      -5.031   2.621 -32.533  1.00  0.00     0.171 HD
BRANCH  13  16
HETATM   16  C   UNL     1      -5.151   0.187 -31.918  1.00  0.00     0.066 A 
HETATM   17  C   UNL     1      -6.130   0.012 -32.908  1.00  0.00     0.089 A 
HETATM   18  C   UNL     1      -6.021  -1.031 -33.842  1.00  0.00    -0.028 A 
HETATM   19  C   UNL     1      -7.038  -1.224 -34.930  1.00  0.00     0.051 C 
HETATM   20  C   UNL     1      -4.959  -1.940 -33.716  1.00  0.00     0.009 A 
HETATM   21  C   UNL     1      -4.008  -1.794 -32.704  1.00  0.00     0.002 A 
HETATM   22  C   UNL     1      -4.101  -0.732 -31.807  1.00  0.00     0.020 A 
BRANCH  17  23
HETATM   23  O   UNL     1      -7.180   0.894 -33.013  1.00  0.00    -0.354 OA
HETATM   24  C   UNL     1      -8.253   0.483 -32.156  1.00  0.00     0.210 C 
ENDBRANCH  17  23
ENDBRANCH  13  16
ENDBRANCH  10  12
ENDBRANCH   8  10
ENDBRANCH   2   8
BRANCH   1  25
HETATM   25  N   UNL     1      -2.925   6.731 -29.432  1.00  0.00    -0.278 NA
HETATM   26  C   UNL     1      -4.126   7.580 -29.274  1.00  0.00     0.115 C 
HETATM   27  C   UNL     1      -4.612   7.528 -27.814  1.00  0.00     0.140 C 
HETATM   28  N   UNL     1      -3.552   7.817 -26.835  1.00  0.00    -0.350 N 
HETATM   29  C   UNL     1      -3.959   8.249 -25.575  1.00  0.00     0.219 C 
HETATM   30  C   UNL     1      -2.266   7.142 -27.082  1.00  0.00     0.140 C 
HETATM   31  O   UNL     1      -5.121   8.586 -25.346  1.00  0.00    -0.273 OA
HETATM   32  C   UNL     1      -1.820   7.204 -28.556  1.00  0.00     0.115 C 
BRANCH  29  33
HETATM   33  C   UNL     1      -2.891   8.303 -24.492  1.00  0.00     0.098 C 
HETATM   34  C   UNL     1      -2.379   9.714 -24.250  1.00  0.00     0.014 C 
ENDBRANCH  29  33
ENDBRANCH   1  25
TORSDOF 7
ENDMDL
MODEL 8
REMARK VINA RESULT:      -8.1      2.919      6.916
REMARK  7 active torsions:
REMARK  status: ('A' for Active; 'I' for Inactive)
REMARK    1  A    between atoms: C_2  and  C_3 
REMARK       I    between atoms: C_3  and  N_4 
REMARK    2  A    between atoms: N_7  and  C_8 
REMARK    3  A    between atoms: C_9  and  N_10 
REMARK    4  A    between atoms: N_10  and  C_11 
REMARK    5  A    between atoms: C_11  and  N_12 
REMARK       I    between atoms: N_12  and  C_13 
REMARK    6  A    between atoms: C_13  and  C_14 
REMARK    7  A    between atoms: C_15  and  O_16 
ROOT
HETATM    1  C   UNL     1      -7.954   0.469 -33.634  1.00  0.00     0.037 A 
HETATM    2  C   UNL     1      -6.987   0.405 -32.593  1.00  0.00     0.057 A 
HETATM    3  C   UNL     1      -5.913  -0.485 -32.668  1.00  0.00     0.055 A 
HETATM    4  C   UNL     1      -5.761  -1.286 -33.796  1.00  0.00     0.036 A 
HETATM    5 CL   UNL     1      -4.426  -2.367 -33.900  1.00  0.00    -0.084 Cl
HETATM    6  C   UNL     1      -6.686  -1.229 -34.835  1.00  0.00     0.026 A 
HETATM    7  C   UNL     1      -7.779  -0.362 -34.750  1.00  0.00     0.027 A 
ENDROOT
BRANCH   2   8
HETATM    8  N   UNL     1      -7.231   1.210 -31.456  1.00  0.00    -0.331 N 
HETATM    9  H   UNL     1      -7.756   0.711 -30.741  1.00  0.00     0.168 HD
BRANCH   8  10
HETATM   10  C   UNL     1      -6.792   2.441 -31.117  1.00  0.00     0.179 C 
HETATM   11  S   UNL     1      -7.495   3.229 -29.820  1.00  0.00    -0.040 SA
BRANCH  10  12
HETATM   12  N   UNL     1      -5.828   3.095 -31.826  1.00  0.00    -0.299 N 
HETATM   13  C   UNL     1      -5.910   4.301 -32.519  1.00  0.00     0.260 C 
HETATM   14  O   UNL     1      -6.888   5.036 -32.591  1.00  0.00    -0.267 OA
HETATM   15  H   UNL     1      -4.886   2.813 -31.575  1.00  0.00     0.171 HD
BRANCH  13  16
HETATM   16  C   UNL     1      -4.661   4.711 -33.208  1.00  0.00     0.066 A 
HETATM   17  C   UNL     1      -3.449   4.906 -32.529  1.00  0.00     0.089 A 
HETATM   18  C   UNL     1      -2.274   5.205 -33.238  1.00  0.00    -0.028 A 
HETATM   19  C   UNL     1      -0.958   5.392 -32.541  1.00  0.00     0.051 C 
HETATM   20  C   UNL     1      -2.354   5.383 -34.629  1.00  0.00     0.009 A 
HETATM   21  C   UNL     1      -3.568   5.233 -35.302  1.00  0.00     0.002 A 
HETATM   22  C   UNL     1      -4.721   4.895 -34.594  1.00  0.00     0.020 A 
BRANCH  17  23
HETATM   23  O   UNL     1      -3.382   4.752 -31.164  1.00  0.00    -0.354 OA
HETATM   24  C   UNL     1      -3.700   5.990 -30.515  1.00  0.00     0.210 C 
ENDBRANCH  17  23
ENDBRANCH  13  16
ENDBRANCH  10  12
ENDBRANCH   8  10
ENDBRANCH   2   8
BRANCH   1  25
HETATM   25  N   UNL     1      -9.026   1.388 -33.516  1.00  0.00    -0.278 NA
HETATM   26  C   UNL     1     -10.395   0.858 -33.700  1.00  0.00     0.115 C 
HETATM   27  C   UNL     1     -11.425   1.926 -33.294  1.00  0.00     0.140 C 
HETATM   28  N   UNL     1     -11.204   3.228 -33.944  1.00  0.00    -0.350 N 
HETATM   29  C   UNL     1     -12.298   4.088 -34.021  1.00  0.00     0.219 C 
HETATM   30  C   UNL     1      -9.807   3.693 -33.962  1.00  0.00     0.140 C 
HETATM   31  O   UNL     1     -13.442   3.712 -33.762  1.00  0.00    -0.273 OA
HETATM   32  C   UNL     1      -8.804   2.593 -34.359  1.00  0.00     0.115 C 
BRANCH  29  33
HETATM   33  C   UNL     1     -12.014   5.518 -34.457  1.00  0.00     0.098 C 
HETATM   34  C   UNL     1     -12.251   6.524 -33.342  1.00  0.00     0.014 C 
ENDBRANCH  29  33
ENDBRANCH   1  25
TORSDOF 7
ENDMDL
MODEL 9
REMARK VINA RESULT:      -8.1      3.140      7.577
REMARK  7 active torsions:
REMARK  status: ('A' for Active; 'I' for Inactive)
REMARK    1  A    between atoms: C_2  and  C_3 
REMARK       I    between atoms: C_3  and  N_4 
REMARK    2  A    between atoms: N_7  and  C_8 
REMARK    3  A    between atoms: C_9  and  N_10 
REMARK    4  A    between atoms: N_10  and  C_11 
REMARK    5  A    between atoms: C_11  and  N_12 
REMARK       I    between atoms: N_12  and  C_13 
REMARK    6  A    between atoms: C_13  and  C_14 
REMARK    7  A    between atoms: C_15  and  O_16 
ROOT
HETATM    1  C   UNL     1      -6.230   0.225 -32.539  1.00  0.00     0.037 A 
HETATM    2  C   UNL     1      -5.443   0.816 -31.513  1.00  0.00     0.057 A 
HETATM    3  C   UNL     1      -4.154   0.348 -31.241  1.00  0.00     0.055 A 
HETATM    4  C   UNL     1      -3.618  -0.678 -32.014  1.00  0.00     0.036 A 
HETATM    5 CL   UNL     1      -2.023  -1.240 -31.696  1.00  0.00    -0.084 Cl
HETATM    6  C   UNL     1      -4.364  -1.261 -33.034  1.00  0.00     0.026 A 
HETATM    7  C   UNL     1      -5.665  -0.817 -33.289  1.00  0.00     0.027 A 
ENDROOT
BRANCH   2   8
HETATM    8  N   UNL     1      -6.068   1.818 -30.736  1.00  0.00    -0.331 N 
HETATM    9  H   UNL     1      -6.710   1.424 -30.051  1.00  0.00     0.168 HD
BRANCH   8  10
HETATM   10  C   UNL     1      -5.871   3.152 -30.664  1.00  0.00     0.179 C 
HETATM   11  S   UNL     1      -6.906   4.080 -29.734  1.00  0.00    -0.040 SA
BRANCH  10  12
HETATM   12  N   UNL     1      -4.887   3.784 -31.365  1.00  0.00    -0.299 N 
HETATM   13  C   UNL     1      -4.991   4.588 -32.497  1.00  0.00     0.260 C 
HETATM   14  O   UNL     1      -6.025   4.913 -33.069  1.00  0.00    -0.267 OA
HETATM   15  H   UNL     1      -4.035   3.913 -30.830  1.00  0.00     0.171 HD
BRANCH  13  16
HETATM   16  C   UNL     1      -3.699   5.100 -33.020  1.00  0.00     0.066 A 
HETATM   17  C   UNL     1      -2.749   5.734 -32.205  1.00  0.00     0.089 A 
HETATM   18  C   UNL     1      -1.503   6.119 -32.729  1.00  0.00    -0.028 A 
HETATM   19  C   UNL     1      -0.457   6.773 -31.874  1.00  0.00     0.051 C 
HETATM   20  C   UNL     1      -1.262   5.930 -34.098  1.00  0.00     0.009 A 
HETATM   21  C   UNL     1      -2.223   5.340 -34.921  1.00  0.00     0.002 A 
HETATM   22  C   UNL     1      -3.440   4.923 -34.384  1.00  0.00     0.020 A 
BRANCH  17  23
HETATM   23  O   UNL     1      -3.001   5.936 -30.869  1.00  0.00    -0.354 OA
HETATM   24  C   UNL     1      -3.670   7.189 -30.680  1.00  0.00     0.210 C 
ENDBRANCH  17  23
ENDBRANCH  13  16
ENDBRANCH  10  12
ENDBRANCH   8  10
ENDBRANCH   2   8
BRANCH   1  25
HETATM   25  N   UNL     1      -7.531   0.732 -32.780  1.00  0.00    -0.278 NA
HETATM   26  C   UNL     1      -8.614  -0.254 -32.993  1.00  0.00     0.115 C 
HETATM   27  C   UNL     1      -9.977   0.461 -32.988  1.00  0.00     0.140 C 
HETATM   28  N   UNL     1     -10.036   1.611 -33.906  1.00  0.00    -0.350 N 
HETATM   29  C   UNL     1     -11.301   2.019 -34.322  1.00  0.00     0.219 C 
HETATM   30  C   UNL     1      -8.869   2.507 -33.868  1.00  0.00     0.140 C 
HETATM   31  O   UNL     1     -12.306   1.336 -34.120  1.00  0.00    -0.273 OA
HETATM   32  C   UNL     1      -7.524   1.755 -33.859  1.00  0.00     0.115 C 
BRANCH  29  33
HETATM   33  C   UNL     1     -11.383   3.349 -35.058  1.00  0.00     0.098 C 
HETATM   34  C   UNL     1     -12.348   3.305 -36.232  1.00  0.00     0.014 C 
ENDBRANCH  29  33
ENDBRANCH   1  25
TORSDOF 7
ENDMDL
MODEL 10
REMARK VINA RESULT:      -8.0      3.306      5.730
REMARK  7 active torsions:
REMARK  status: ('A' for Active; 'I' for Inactive)
REMARK    1  A    between atoms: C_2  and  C_3 
REMARK       I    between atoms: C_3  and  N_4 
REMARK    2  A    between atoms: N_7  and  C_8 
REMARK    3  A    between atoms: C_9  and  N_10 
REMARK    4  A    between atoms: N_10  and  C_11 
REMARK    5  A    between atoms: C_11  and  N_12 
REMARK       I    between atoms: N_12  and  C_13 
REMARK    6  A    between atoms: C_13  and  C_14 
REMARK    7  A    between atoms: C_15  and  O_16 
ROOT
HETATM    1  C   UNL     1      -5.351   6.029 -31.223  1.00  0.00     0.037 A 
HETATM    2  C   UNL     1      -4.087   5.556 -30.776  1.00  0.00     0.057 A 
HETATM    3  C   UNL     1      -3.185   6.414 -30.141  1.00  0.00     0.055 A 
HETATM    4  C   UNL     1      -3.546   7.736 -29.903  1.00  0.00     0.036 A 
HETATM    5 CL   UNL     1      -2.446   8.789 -29.101  1.00  0.00    -0.084 Cl
HETATM    6  C   UNL     1      -4.785   8.219 -30.317  1.00  0.00     0.026 A 
HETATM    7  C   UNL     1      -5.678   7.371 -30.980  1.00  0.00     0.027 A 
ENDROOT
BRANCH   2   8
HETATM    8  N   UNL     1      -3.767   4.215 -31.095  1.00  0.00    -0.331 N 
HETATM    9  H   UNL     1      -3.871   3.597 -30.293  1.00  0.00     0.168 HD
BRANCH   8  10
HETATM   10  C   UNL     1      -3.480   3.617 -32.270  1.00  0.00     0.179 C 
HETATM   11  S   UNL     1      -2.334   4.304 -33.277  1.00  0.00    -0.040 SA
BRANCH  10  12
HETATM   12  N   UNL     1      -4.128   2.497 -32.698  1.00  0.00    -0.299 N 
HETATM   13  C   UNL     1      -4.903   1.597 -31.971  1.00  0.00     0.260 C 
HETATM   14  O   UNL     1      -5.181   1.669 -30.780  1.00  0.00    -0.267 OA
HETATM   15  H   UNL     1      -4.297   2.490 -33.699  1.00  0.00     0.171 HD
BRANCH  13  16
HETATM   16  C   UNL     1      -5.445   0.461 -32.759  1.00  0.00     0.066 A 
HETATM   17  C   UNL     1      -4.632  -0.552 -33.289  1.00  0.00     0.089 A 
HETATM   18  C   UNL     1      -5.202  -1.653 -33.949  1.00  0.00    -0.028 A 
HETATM   19  C   UNL     1      -4.358  -2.765 -34.500  1.00  0.00     0.051 C 
HETATM   20  C   UNL     1      -6.593  -1.679 -34.137  1.00  0.00     0.009 A 
HETATM   21  C   UNL     1      -7.401  -0.650 -33.650  1.00  0.00     0.002 A 
HETATM   22  C   UNL     1      -6.830   0.419 -32.960  1.00  0.00     0.020 A 
BRANCH  17  23
HETATM   23  O   UNL     1      -3.268  -0.510 -33.119  1.00  0.00    -0.354 OA
HETATM   24  C   UNL     1      -2.907  -1.149 -31.887  1.00  0.00     0.210 C 
ENDBRANCH  17  23
ENDBRANCH  13  16
ENDBRANCH  10  12
ENDBRANCH   8  10
ENDBRANCH   2   8
BRANCH   1  25
HETATM   25  N   UNL     1      -6.234   5.124 -31.861  1.00  0.00    -0.278 NA
HETATM   26  C   UNL     1      -6.736   5.497 -33.201  1.00  0.00     0.115 C 
HETATM   27  C   UNL     1      -7.468   4.301 -33.835  1.00  0.00     0.140 C 
HETATM   28  N   UNL     1      -8.498   3.716 -32.961  1.00  0.00    -0.350 N 
HETATM   29  C   UNL     1      -9.502   2.975 -33.580  1.00  0.00     0.219 C 
HETATM   30  C   UNL     1      -8.096   3.521 -31.558  1.00  0.00     0.140 C 
HETATM   31  O   UNL     1      -9.657   2.980 -34.801  1.00  0.00    -0.273 OA
HETATM   32  C   UNL     1      -7.354   4.734 -30.963  1.00  0.00     0.115 C 
BRANCH  29  33
HETATM   33  C   UNL     1     -10.414   2.165 -32.669  1.00  0.00     0.098 C 
HETATM   34  C   UNL     1     -10.677   0.767 -33.205  1.00  0.00     0.014 C 
ENDBRANCH  29  33
ENDBRANCH   1  25
TORSDOF 7
ENDMDL
