MODEL 1
REMARK VINA RESULT:      -8.8      0.000      0.000
REMARK  6 active torsions:
REMARK  status: ('A' for Active; 'I' for Inactive)
REMARK    1  A    between atoms: C_5  and  C_6 
REMARK    2  A    between atoms: C_6  and  O_7 
REMARK    3  A    between atoms: C_6  and  C_8 
REMARK    4  A    between atoms: C_8  and  N_9 
REMARK       I    between atoms: N_9  and  C_10 
REMARK    5  A    between atoms: C_10  and  C_11 
REMARK    6  A    between atoms: C_11  and  C_12 
ROOT
HETATM    1  N   UNL     1      -3.169   4.438 -33.274  1.00  0.00    -0.358 N 
HETATM    2  C   UNL     1      -3.087   3.718 -32.105  1.00  0.00     0.222 C 
HETATM    3  O   UNL     1      -2.085   3.700 -31.397  1.00  0.00    -0.273 OA
HETATM    4  H   UNL     1      -4.059   4.510 -33.749  1.00  0.00     0.162 HD
ENDROOT
BRANCH   1   5
HETATM    5  C   UNL     1      -2.097   5.319 -33.715  1.00  0.00     0.159 C 
BRANCH   5   6
HETATM    6  C   UNL     1      -2.196   6.787 -33.252  1.00  0.00     0.169 C 
BRANCH   6   7
HETATM    7  C   UNL     1      -1.404   7.084 -31.994  1.00  0.00    -0.028 A 
HETATM    8  C   UNL     1      -0.103   6.584 -31.849  1.00  0.00     0.010 A 
HETATM    9  C   UNL     1       0.630   6.831 -30.685  1.00  0.00     0.007 A 
HETATM   10  C   UNL     1       0.074   7.578 -29.642  1.00  0.00    -0.062 A 
HETATM   11  C   UNL     1       0.854   7.855 -28.391  1.00  0.00     0.048 C 
HETATM   12  C   UNL     1      -1.219   8.092 -29.790  1.00  0.00     0.007 A 
HETATM   13  C   UNL     1      -1.952   7.845 -30.952  1.00  0.00     0.010 A 
ENDBRANCH   6   7
BRANCH   6  14
HETATM   14  O   UNL     1      -1.716   7.635 -34.304  1.00  0.00    -0.389 OA
HETATM   15  H   UNL     1      -0.964   8.131 -33.934  1.00  0.00     0.210 HD
ENDBRANCH   6  14
ENDBRANCH   5   6
ENDBRANCH   1   5
BRANCH   2  16
HETATM   16  C   UNL     1      -4.349   2.957 -31.738  1.00  0.00     0.142 C 
BRANCH  16  17
HETATM   17  C   UNL     1      -4.426   1.569 -32.316  1.00  0.00    -0.031 A 
HETATM   18  C   UNL     1      -3.330   0.716 -32.370  1.00  0.00     0.125 A 
HETATM   19  N   UNL     1      -3.351  -0.521 -32.918  1.00  0.00    -0.260 NA
HETATM   20  C   UNL     1      -4.494  -0.952 -33.475  1.00  0.00     0.066 A 
HETATM   21  C   UNL     1      -5.661  -0.161 -33.500  1.00  0.00    -0.007 A 
HETATM   22  C   UNL     1      -4.540  -2.211 -34.057  1.00  0.00     0.032 A 
HETATM   23  C   UNL     1      -5.606   1.111 -32.909  1.00  0.00     0.022 A 
HETATM   24  C   UNL     1      -6.831  -0.649 -34.109  1.00  0.00     0.014 A 
HETATM   25  C   UNL     1      -6.849  -1.917 -34.689  1.00  0.00     0.001 A 
HETATM   26  C   UNL     1      -5.701  -2.700 -34.663  1.00  0.00     0.002 A 
ENDBRANCH  16  17
ENDBRANCH   2  16
TORSDOF 6
ENDMDL
MODEL 2
REMARK VINA RESULT:      -8.7      2.298      3.428
REMARK  6 active torsions:
REMARK  status: ('A' for Active; 'I' for Inactive)
REMARK    1  A    between atoms: C_5  and  C_6 
REMARK    2  A    between atoms: C_6  and  O_7 
REMARK    3  A    between atoms: C_6  and  C_8 
REMARK    4  A    between atoms: C_8  and  N_9 
REMARK       I    between atoms: N_9  and  C_10 
REMARK    5  A    between atoms: C_10  and  C_11 
REMARK    6  A    between atoms: C_11  and  C_12 
ROOT
HETATM    1  N   UNL     1      -6.082   3.180 -34.375  1.00  0.00    -0.358 N 
HETATM    2  C   UNL     1      -6.853   2.221 -33.759  1.00  0.00     0.222 C 
HETATM    3  O   UNL     1      -7.242   2.317 -32.599  1.00  0.00    -0.273 OA
HETATM    4  H   UNL     1      -5.895   3.103 -35.366  1.00  0.00     0.162 HD
ENDROOT
BRANCH   1   5
HETATM    5  C   UNL     1      -5.749   4.438 -33.722  1.00  0.00     0.159 C 
BRANCH   5   6
HETATM    6  C   UNL     1      -4.627   5.266 -34.384  1.00  0.00     0.169 C 
BRANCH   6   7
HETATM    7  C   UNL     1      -3.345   5.309 -33.576  1.00  0.00    -0.028 A 
HETATM    8  C   UNL     1      -2.358   6.257 -33.875  1.00  0.00     0.010 A 
HETATM    9  C   UNL     1      -1.163   6.293 -33.152  1.00  0.00     0.007 A 
HETATM   10  C   UNL     1      -0.930   5.377 -32.120  1.00  0.00    -0.062 A 
HETATM   11  C   UNL     1       0.347   5.411 -31.334  1.00  0.00     0.048 C 
HETATM   12  C   UNL     1      -1.921   4.440 -31.808  1.00  0.00     0.007 A 
HETATM   13  C   UNL     1      -3.115   4.404 -32.531  1.00  0.00     0.010 A 
ENDBRANCH   6   7
BRANCH   6  14
HETATM   14  O   UNL     1      -4.337   4.702 -35.671  1.00  0.00    -0.389 OA
HETATM   15  H   UNL     1      -4.118   3.767 -35.516  1.00  0.00     0.210 HD
ENDBRANCH   6  14
ENDBRANCH   5   6
ENDBRANCH   1   5
BRANCH   2  16
HETATM   16  C   UNL     1      -7.209   1.034 -34.635  1.00  0.00     0.142 C 
BRANCH  16  17
HETATM   17  C   UNL     1      -6.395  -0.204 -34.364  1.00  0.00    -0.031 A 
HETATM   18  C   UNL     1      -5.152  -0.165 -33.744  1.00  0.00     0.125 A 
HETATM   19  N   UNL     1      -4.375  -1.250 -33.521  1.00  0.00    -0.260 NA
HETATM   20  C   UNL     1      -4.812  -2.446 -33.949  1.00  0.00     0.066 A 
HETATM   21  C   UNL     1      -6.046  -2.599 -34.613  1.00  0.00    -0.007 A 
HETATM   22  C   UNL     1      -4.029  -3.573 -33.746  1.00  0.00     0.032 A 
HETATM   23  C   UNL     1      -6.832  -1.453 -34.814  1.00  0.00     0.022 A 
HETATM   24  C   UNL     1      -6.455  -3.869 -35.057  1.00  0.00     0.014 A 
HETATM   25  C   UNL     1      -5.647  -4.986 -34.843  1.00  0.00     0.001 A 
HETATM   26  C   UNL     1      -4.432  -4.837 -34.186  1.00  0.00     0.002 A 
ENDBRANCH  16  17
ENDBRANCH   2  16
TORSDOF 6
ENDMDL
MODEL 3
REMARK VINA RESULT:      -8.7      4.690      6.414
REMARK  6 active torsions:
REMARK  status: ('A' for Active; 'I' for Inactive)
REMARK    1  A    between atoms: C_5  and  C_6 
REMARK    2  A    between atoms: C_6  and  O_7 
REMARK    3  A    between atoms: C_6  and  C_8 
REMARK    4  A    between atoms: C_8  and  N_9 
REMARK       I    between atoms: N_9  and  C_10 
REMARK    5  A    between atoms: C_10  and  C_11 
REMARK    6  A    between atoms: C_11  and  C_12 
ROOT
HETATM    1  N   UNL     1      -4.319   2.308 -30.983  1.00  0.00    -0.358 N 
HETATM    2  C   UNL     1      -4.079   0.955 -30.923  1.00  0.00     0.222 C 
HETATM    3  O   UNL     1      -4.547   0.228 -30.052  1.00  0.00    -0.273 OA
HETATM    4  H   UNL     1      -4.006   2.831 -31.791  1.00  0.00     0.162 HD
ENDROOT
BRANCH   1   5
HETATM    5  C   UNL     1      -5.233   2.970 -30.064  1.00  0.00     0.159 C 
BRANCH   5   6
HETATM    6  C   UNL     1      -6.703   3.065 -30.525  1.00  0.00     0.169 C 
BRANCH   6   7
HETATM    7  C   UNL     1      -6.999   2.265 -31.778  1.00  0.00    -0.028 A 
HETATM    8  C   UNL     1      -7.607   1.006 -31.681  1.00  0.00     0.010 A 
HETATM    9  C   UNL     1      -7.866   0.249 -32.827  1.00  0.00     0.007 A 
HETATM   10  C   UNL     1      -7.516   0.734 -34.091  1.00  0.00    -0.062 A 
HETATM   11  C   UNL     1      -7.795  -0.067 -35.328  1.00  0.00     0.048 C 
HETATM   12  C   UNL     1      -6.924   1.998 -34.193  1.00  0.00     0.007 A 
HETATM   13  C   UNL     1      -6.665   2.754 -33.049  1.00  0.00     0.010 A 
ENDBRANCH   6   7
BRANCH   6  14
HETATM   14  O   UNL     1      -7.549   2.590 -29.469  1.00  0.00    -0.389 OA
HETATM   15  H   UNL     1      -8.347   2.235 -29.897  1.00  0.00     0.210 HD
ENDBRANCH   6  14
ENDBRANCH   5   6
ENDBRANCH   1   5
BRANCH   2  16
HETATM   16  C   UNL     1      -3.202   0.416 -32.040  1.00  0.00     0.142 C 
BRANCH  16  17
HETATM   17  C   UNL     1      -3.533  -0.991 -32.464  1.00  0.00    -0.031 A 
HETATM   18  C   UNL     1      -2.885  -2.105 -31.944  1.00  0.00     0.125 A 
HETATM   19  N   UNL     1      -3.126  -3.379 -32.331  1.00  0.00    -0.260 NA
HETATM   20  C   UNL     1      -4.029  -3.589 -33.302  1.00  0.00     0.066 A 
HETATM   21  C   UNL     1      -4.728  -2.532 -33.919  1.00  0.00    -0.007 A 
HETATM   22  C   UNL     1      -4.286  -4.885 -33.728  1.00  0.00     0.032 A 
HETATM   23  C   UNL     1      -4.462  -1.225 -33.482  1.00  0.00     0.022 A 
HETATM   24  C   UNL     1      -5.654  -2.801 -34.943  1.00  0.00     0.014 A 
HETATM   25  C   UNL     1      -5.890  -4.112 -35.354  1.00  0.00     0.001 A 
HETATM   26  C   UNL     1      -5.205  -5.156 -34.745  1.00  0.00     0.002 A 
ENDBRANCH  16  17
ENDBRANCH   2  16
TORSDOF 6
ENDMDL
MODEL 4
REMARK VINA RESULT:      -8.7      3.184      5.069
REMARK  6 active torsions:
REMARK  status: ('A' for Active; 'I' for Inactive)
REMARK    1  A    between atoms: C_5  and  C_6 
REMARK    2  A    between atoms: C_6  and  O_7 
REMARK    3  A    between atoms: C_6  and  C_8 
REMARK    4  A    between atoms: C_8  and  N_9 
REMARK       I    between atoms: N_9  and  C_10 
REMARK    5  A    between atoms: C_10  and  C_11 
REMARK    6  A    between atoms: C_11  and  C_12 
ROOT
HETATM    1  N   UNL     1      -7.969   1.417 -32.585  1.00  0.00    -0.358 N 
HETATM    2  C   UNL     1      -7.440   1.813 -33.792  1.00  0.00     0.222 C 
HETATM    3  O   UNL     1      -7.013   2.945 -33.998  1.00  0.00    -0.273 OA
HETATM    4  H   UNL     1      -8.192   0.441 -32.439  1.00  0.00     0.162 HD
ENDROOT
BRANCH   1   5
HETATM    5  C   UNL     1      -7.973   2.292 -31.421  1.00  0.00     0.159 C 
BRANCH   5   6
HETATM    6  C   UNL     1      -6.825   2.079 -30.413  1.00  0.00     0.169 C 
BRANCH   6   7
HETATM    7  C   UNL     1      -5.523   2.737 -30.826  1.00  0.00    -0.028 A 
HETATM    8  C   UNL     1      -5.444   4.132 -30.932  1.00  0.00     0.010 A 
HETATM    9  C   UNL     1      -4.256   4.750 -31.334  1.00  0.00     0.007 A 
HETATM   10  C   UNL     1      -3.127   3.984 -31.643  1.00  0.00    -0.062 A 
HETATM   11  C   UNL     1      -1.846   4.637 -32.068  1.00  0.00     0.048 C 
HETATM   12  C   UNL     1      -3.198   2.592 -31.522  1.00  0.00     0.007 A 
HETATM   13  C   UNL     1      -4.385   1.974 -31.121  1.00  0.00     0.010 A 
ENDBRANCH   6   7
BRANCH   6  14
HETATM   14  O   UNL     1      -7.222   2.613 -29.142  1.00  0.00    -0.389 OA
HETATM   15  H   UNL     1      -6.857   3.514 -29.097  1.00  0.00     0.210 HD
ENDBRANCH   6  14
ENDBRANCH   5   6
ENDBRANCH   1   5
BRANCH   2  16
HETATM   16  C   UNL     1      -7.402   0.728 -34.854  1.00  0.00     0.142 C 
BRANCH  16  17
HETATM   17  C   UNL     1      -6.507  -0.436 -34.519  1.00  0.00    -0.031 A 
HETATM   18  C   UNL     1      -5.263  -0.280 -33.919  1.00  0.00     0.125 A 
HETATM   19  N   UNL     1      -4.415  -1.297 -33.642  1.00  0.00    -0.260 NA
HETATM   20  C   UNL     1      -4.778  -2.542 -33.992  1.00  0.00     0.066 A 
HETATM   21  C   UNL     1      -6.006  -2.814 -34.628  1.00  0.00    -0.007 A 
HETATM   22  C   UNL     1      -3.922  -3.603 -33.732  1.00  0.00     0.032 A 
HETATM   23  C   UNL     1      -6.866  -1.736 -34.887  1.00  0.00     0.022 A 
HETATM   24  C   UNL     1      -6.336  -4.133 -34.989  1.00  0.00     0.014 A 
HETATM   25  C   UNL     1      -5.456  -5.180 -34.720  1.00  0.00     0.001 A 
HETATM   26  C   UNL     1      -4.246  -4.914 -34.089  1.00  0.00     0.002 A 
ENDBRANCH  16  17
ENDBRANCH   2  16
TORSDOF 6
ENDMDL
MODEL 5
REMARK VINA RESULT:      -8.6      6.046      9.400
REMARK  6 active torsions:
REMARK  status: ('A' for Active; 'I' for Inactive)
REMARK    1  A    between atoms: C_5  and  C_6 
REMARK    2  A    between atoms: C_6  and  O_7 
REMARK    3  A    between atoms: C_6  and  C_8 
REMARK    4  A    between atoms: C_8  and  N_9 
REMARK       I    between atoms: N_9  and  C_10 
REMARK    5  A    between atoms: C_10  and  C_11 
REMARK    6  A    between atoms: C_11  and  C_12 
ROOT
HETATM    1  N   UNL     1      -8.782   1.936 -33.716  1.00  0.00    -0.358 N 
HETATM    2  C   UNL     1      -7.724   1.480 -32.965  1.00  0.00     0.222 C 
HETATM    3  O   UNL     1      -7.826   1.171 -31.781  1.00  0.00    -0.273 OA
HETATM    4  H   UNL     1      -8.664   2.059 -34.713  1.00  0.00     0.162 HD
ENDROOT
BRANCH   1   5
HETATM    5  C   UNL     1     -10.137   1.995 -33.185  1.00  0.00     0.159 C 
BRANCH   5   6
HETATM    6  C   UNL     1     -11.240   1.396 -34.082  1.00  0.00     0.169 C 
BRANCH   6   7
HETATM    7  C   UNL     1     -12.645   1.661 -33.577  1.00  0.00    -0.028 A 
HETATM    8  C   UNL     1     -13.701   0.828 -33.968  1.00  0.00     0.010 A 
HETATM    9  C   UNL     1     -15.004   1.075 -33.527  1.00  0.00     0.007 A 
HETATM   10  C   UNL     1     -15.276   2.164 -32.692  1.00  0.00    -0.062 A 
HETATM   11  C   UNL     1     -16.669   2.434 -32.208  1.00  0.00     0.048 C 
HETATM   12  C   UNL     1     -14.221   2.988 -32.287  1.00  0.00     0.007 A 
HETATM   13  C   UNL     1     -12.919   2.742 -32.727  1.00  0.00     0.010 A 
ENDBRANCH   6   7
BRANCH   6  14
HETATM   14  O   UNL     1     -11.115   1.951 -35.399  1.00  0.00    -0.389 OA
HETATM   15  H   UNL     1     -11.067   2.917 -35.284  1.00  0.00     0.210 HD
ENDBRANCH   6  14
ENDBRANCH   5   6
ENDBRANCH   1   5
BRANCH   2  16
HETATM   16  C   UNL     1      -6.412   1.364 -33.720  1.00  0.00     0.142 C 
BRANCH  16  17
HETATM   17  C   UNL     1      -5.841  -0.029 -33.762  1.00  0.00    -0.031 A 
HETATM   18  C   UNL     1      -4.533  -0.315 -33.390  1.00  0.00     0.125 A 
HETATM   19  N   UNL     1      -3.973  -1.546 -33.453  1.00  0.00    -0.260 NA
HETATM   20  C   UNL     1      -4.713  -2.559 -33.932  1.00  0.00     0.066 A 
HETATM   21  C   UNL     1      -6.043  -2.378 -34.362  1.00  0.00    -0.007 A 
HETATM   22  C   UNL     1      -4.159  -3.828 -34.021  1.00  0.00     0.032 A 
HETATM   23  C   UNL     1      -6.595  -1.091 -34.269  1.00  0.00     0.022 A 
HETATM   24  C   UNL     1      -6.774  -3.466 -34.871  1.00  0.00     0.014 A 
HETATM   25  C   UNL     1      -6.192  -4.731 -34.953  1.00  0.00     0.001 A 
HETATM   26  C   UNL     1      -4.882  -4.912 -34.526  1.00  0.00     0.002 A 
ENDBRANCH  16  17
ENDBRANCH   2  16
TORSDOF 6
ENDMDL
MODEL 6
REMARK VINA RESULT:      -8.5      1.495      1.969
REMARK  6 active torsions:
REMARK  status: ('A' for Active; 'I' for Inactive)
REMARK    1  A    between atoms: C_5  and  C_6 
REMARK    2  A    between atoms: C_6  and  O_7 
REMARK    3  A    between atoms: C_6  and  C_8 
REMARK    4  A    between atoms: C_8  and  N_9 
REMARK       I    between atoms: N_9  and  C_10 
REMARK    5  A    between atoms: C_10  and  C_11 
REMARK    6  A    between atoms: C_11  and  C_12 
ROOT
HETATM    1  N   UNL     1      -4.067   4.257 -33.408  1.00  0.00    -0.358 N 
HETATM    2  C   UNL     1      -5.249   3.593 -33.172  1.00  0.00     0.222 C 
HETATM    3  O   UNL     1      -6.280   3.816 -33.800  1.00  0.00    -0.273 OA
HETATM    4  H   UNL     1      -3.224   3.945 -32.944  1.00  0.00     0.162 HD
ENDROOT
BRANCH   1   5
HETATM    5  C   UNL     1      -3.924   5.214 -34.495  1.00  0.00     0.159 C 
BRANCH   5   6
HETATM    6  C   UNL     1      -2.512   5.803 -34.695  1.00  0.00     0.169 C 
BRANCH   6   7
HETATM    7  C   UNL     1      -1.805   6.139 -33.397  1.00  0.00    -0.028 A 
HETATM    8  C   UNL     1      -1.960   7.407 -32.821  1.00  0.00     0.010 A 
HETATM    9  C   UNL     1      -1.296   7.737 -31.636  1.00  0.00     0.007 A 
HETATM   10  C   UNL     1      -0.460   6.808 -31.009  1.00  0.00    -0.062 A 
HETATM   11  C   UNL     1       0.252   7.150 -29.734  1.00  0.00     0.048 C 
HETATM   12  C   UNL     1      -0.316   5.535 -31.572  1.00  0.00     0.007 A 
HETATM   13  C   UNL     1      -0.979   5.205 -32.756  1.00  0.00     0.010 A 
ENDBRANCH   6   7
BRANCH   6  14
HETATM   14  O   UNL     1      -1.715   4.853 -35.417  1.00  0.00    -0.389 OA
HETATM   15  H   UNL     1      -2.303   4.452 -36.081  1.00  0.00     0.210 HD
ENDBRANCH   6  14
ENDBRANCH   5   6
ENDBRANCH   1   5
BRANCH   2  16
HETATM   16  C   UNL     1      -5.178   2.538 -32.083  1.00  0.00     0.142 C 
BRANCH  16  17
HETATM   17  C   UNL     1      -4.996   1.132 -32.593  1.00  0.00    -0.031 A 
HETATM   18  C   UNL     1      -3.756   0.508 -32.648  1.00  0.00     0.125 A 
HETATM   19  N   UNL     1      -3.548  -0.737 -33.138  1.00  0.00    -0.260 NA
HETATM   20  C   UNL     1      -4.600  -1.411 -33.631  1.00  0.00     0.066 A 
HETATM   21  C   UNL     1      -5.899  -0.865 -33.648  1.00  0.00    -0.007 A 
HETATM   22  C   UNL     1      -4.413  -2.684 -34.151  1.00  0.00     0.032 A 
HETATM   23  C   UNL     1      -6.079   0.422 -33.120  1.00  0.00     0.022 A 
HETATM   24  C   UNL     1      -6.967  -1.604 -34.190  1.00  0.00     0.014 A 
HETATM   25  C   UNL     1      -6.751  -2.879 -34.710  1.00  0.00     0.001 A 
HETATM   26  C   UNL     1      -5.471  -3.421 -34.690  1.00  0.00     0.002 A 
ENDBRANCH  16  17
ENDBRANCH   2  16
TORSDOF 6
ENDMDL
MODEL 7
REMARK VINA RESULT:      -8.3      1.576      2.366
REMARK  6 active torsions:
REMARK  status: ('A' for Active; 'I' for Inactive)
REMARK    1  A    between atoms: C_5  and  C_6 
REMARK    2  A    between atoms: C_6  and  O_7 
REMARK    3  A    between atoms: C_6  and  C_8 
REMARK    4  A    between atoms: C_8  and  N_9 
REMARK       I    between atoms: N_9  and  C_10 
REMARK    5  A    between atoms: C_10  and  C_11 
REMARK    6  A    between atoms: C_11  and  C_12 
ROOT
HETATM    1  N   UNL     1      -2.895   4.525 -31.052  1.00  0.00    -0.358 N 
HETATM    2  C   UNL     1      -3.013   3.485 -31.946  1.00  0.00     0.222 C 
HETATM    3  O   UNL     1      -2.825   3.613 -33.152  1.00  0.00    -0.273 OA
HETATM    4  H   UNL     1      -2.943   4.332 -30.061  1.00  0.00     0.162 HD
ENDROOT
BRANCH   1   5
HETATM    5  C   UNL     1      -2.437   5.845 -31.461  1.00  0.00     0.159 C 
BRANCH   5   6
HETATM    6  C   UNL     1      -0.908   6.046 -31.504  1.00  0.00     0.169 C 
BRANCH   6   7
HETATM    7  C   UNL     1      -0.308   6.430 -30.166  1.00  0.00    -0.028 A 
HETATM    8  C   UNL     1      -0.358   7.760 -29.728  1.00  0.00     0.010 A 
HETATM    9  C   UNL     1       0.211   8.130 -28.507  1.00  0.00     0.007 A 
HETATM   10  C   UNL     1       0.845   7.179 -27.702  1.00  0.00    -0.062 A 
HETATM   11  C   UNL     1       1.453   7.564 -26.387  1.00  0.00     0.048 C 
HETATM   12  C   UNL     1       0.883   5.846 -28.128  1.00  0.00     0.007 A 
HETATM   13  C   UNL     1       0.315   5.476 -29.349  1.00  0.00     0.010 A 
ENDBRANCH   6   7
BRANCH   6  14
HETATM   14  O   UNL     1      -0.295   4.827 -31.947  1.00  0.00    -0.389 OA
HETATM   15  H   UNL     1      -0.146   4.291 -31.148  1.00  0.00     0.210 HD
ENDBRANCH   6  14
ENDBRANCH   5   6
ENDBRANCH   1   5
BRANCH   2  16
HETATM   16  C   UNL     1      -3.376   2.150 -31.322  1.00  0.00     0.142 C 
BRANCH  16  17
HETATM   17  C   UNL     1      -4.294   1.301 -32.162  1.00  0.00    -0.031 A 
HETATM   18  C   UNL     1      -5.592   1.685 -32.478  1.00  0.00     0.125 A 
HETATM   19  N   UNL     1      -6.459   0.931 -33.194  1.00  0.00    -0.260 NA
HETATM   20  C   UNL     1      -6.056  -0.282 -33.608  1.00  0.00     0.066 A 
HETATM   21  C   UNL     1      -4.770  -0.783 -33.324  1.00  0.00    -0.007 A 
HETATM   22  C   UNL     1      -6.930  -1.081 -34.333  1.00  0.00     0.032 A 
HETATM   23  C   UNL     1      -3.894   0.032 -32.590  1.00  0.00     0.022 A 
HETATM   24  C   UNL     1      -4.400  -2.066 -33.765  1.00  0.00     0.014 A 
HETATM   25  C   UNL     1      -5.298  -2.850 -34.489  1.00  0.00     0.001 A 
HETATM   26  C   UNL     1      -6.565  -2.356 -34.773  1.00  0.00     0.002 A 
ENDBRANCH  16  17
ENDBRANCH   2  16
TORSDOF 6
ENDMDL
MODEL 8
REMARK VINA RESULT:      -8.3      2.153      8.582
REMARK  6 active torsions:
REMARK  status: ('A' for Active; 'I' for Inactive)
REMARK    1  A    between atoms: C_5  and  C_6 
REMARK    2  A    between atoms: C_6  and  O_7 
REMARK    3  A    between atoms: C_6  and  C_8 
REMARK    4  A    between atoms: C_8  and  N_9 
REMARK       I    between atoms: N_9  and  C_10 
REMARK    5  A    between atoms: C_10  and  C_11 
REMARK    6  A    between atoms: C_11  and  C_12 
ROOT
HETATM    1  N   UNL     1      -5.591   3.444 -34.291  1.00  0.00    -0.358 N 
HETATM    2  C   UNL     1      -5.286   4.785 -34.233  1.00  0.00     0.222 C 
HETATM    3  O   UNL     1      -5.983   5.606 -33.645  1.00  0.00    -0.273 OA
HETATM    4  H   UNL     1      -4.917   2.801 -34.686  1.00  0.00     0.162 HD
ENDROOT
BRANCH   1   5
HETATM    5  C   UNL     1      -6.721   2.878 -33.570  1.00  0.00     0.159 C 
BRANCH   5   6
HETATM    6  C   UNL     1      -6.388   1.751 -32.571  1.00  0.00     0.169 C 
BRANCH   6   7
HETATM    7  C   UNL     1      -6.221   0.392 -33.222  1.00  0.00    -0.028 A 
HETATM    8  C   UNL     1      -5.105  -0.399 -32.921  1.00  0.00     0.010 A 
HETATM    9  C   UNL     1      -4.928  -1.644 -33.531  1.00  0.00     0.007 A 
HETATM   10  C   UNL     1      -5.861  -2.119 -34.458  1.00  0.00    -0.062 A 
HETATM   11  C   UNL     1      -5.684  -3.456 -35.113  1.00  0.00     0.048 C 
HETATM   12  C   UNL     1      -6.986  -1.339 -34.748  1.00  0.00     0.007 A 
HETATM   13  C   UNL     1      -7.163  -0.095 -34.139  1.00  0.00     0.010 A 
ENDBRANCH   6   7
BRANCH   6  14
HETATM   14  O   UNL     1      -5.171   2.083 -31.889  1.00  0.00    -0.389 OA
HETATM   15  H   UNL     1      -4.713   2.734 -32.450  1.00  0.00     0.210 HD
ENDBRANCH   6  14
ENDBRANCH   5   6
ENDBRANCH   1   5
BRANCH   2  16
HETATM   16  C   UNL     1      -4.000   5.175 -34.939  1.00  0.00     0.142 C 
BRANCH  16  17
HETATM   17  C   UNL     1      -2.921   5.690 -34.022  1.00  0.00    -0.031 A 
HETATM   18  C   UNL     1      -2.221   6.864 -34.271  1.00  0.00     0.125 A 
HETATM   19  N   UNL     1      -1.219   7.335 -33.493  1.00  0.00    -0.260 NA
HETATM   20  C   UNL     1      -0.849   6.613 -32.423  1.00  0.00     0.066 A 
HETATM   21  C   UNL     1      -1.472   5.394 -32.090  1.00  0.00    -0.007 A 
HETATM   22  C   UNL     1       0.185   7.066 -31.616  1.00  0.00     0.032 A 
HETATM   23  C   UNL     1      -2.518   4.943 -32.911  1.00  0.00     0.022 A 
HETATM   24  C   UNL     1      -1.040   4.664 -30.968  1.00  0.00     0.014 A 
HETATM   25  C   UNL     1       0.004   5.140 -30.176  1.00  0.00     0.001 A 
HETATM   26  C   UNL     1       0.618   6.344 -30.501  1.00  0.00     0.002 A 
ENDBRANCH  16  17
ENDBRANCH   2  16
TORSDOF 6
ENDMDL
MODEL 9
REMARK VINA RESULT:      -8.1      2.016      9.339
REMARK  6 active torsions:
REMARK  status: ('A' for Active; 'I' for Inactive)
REMARK    1  A    between atoms: C_5  and  C_6 
REMARK    2  A    between atoms: C_6  and  O_7 
REMARK    3  A    between atoms: C_6  and  C_8 
REMARK    4  A    between atoms: C_8  and  N_9 
REMARK       I    between atoms: N_9  and  C_10 
REMARK    5  A    between atoms: C_10  and  C_11 
REMARK    6  A    between atoms: C_11  and  C_12 
ROOT
HETATM    1  N   UNL     1      -4.763   2.690 -32.719  1.00  0.00    -0.358 N 
HETATM    2  C   UNL     1      -3.466   2.663 -32.260  1.00  0.00     0.222 C 
HETATM    3  O   UNL     1      -3.026   1.770 -31.543  1.00  0.00    -0.273 OA
HETATM    4  H   UNL     1      -5.031   3.385 -33.403  1.00  0.00     0.162 HD
ENDROOT
BRANCH   1   5
HETATM    5  C   UNL     1      -5.693   1.599 -32.465  1.00  0.00     0.159 C 
BRANCH   5   6
HETATM    6  C   UNL     1      -6.430   1.038 -33.700  1.00  0.00     0.169 C 
BRANCH   6   7
HETATM    7  C   UNL     1      -6.129  -0.422 -33.976  1.00  0.00    -0.028 A 
HETATM    8  C   UNL     1      -7.123  -1.255 -34.507  1.00  0.00     0.010 A 
HETATM    9  C   UNL     1      -6.866  -2.608 -34.746  1.00  0.00     0.007 A 
HETATM   10  C   UNL     1      -5.612  -3.154 -34.452  1.00  0.00    -0.062 A 
HETATM   11  C   UNL     1      -5.323  -4.603 -34.711  1.00  0.00     0.048 C 
HETATM   12  C   UNL     1      -4.612  -2.321 -33.938  1.00  0.00     0.007 A 
HETATM   13  C   UNL     1      -4.869  -0.969 -33.699  1.00  0.00     0.010 A 
ENDBRANCH   6   7
BRANCH   6  14
HETATM   14  O   UNL     1      -7.842   1.184 -33.498  1.00  0.00    -0.389 OA
HETATM   15  H   UNL     1      -8.017   0.910 -32.581  1.00  0.00     0.210 HD
ENDBRANCH   6  14
ENDBRANCH   5   6
ENDBRANCH   1   5
BRANCH   2  16
HETATM   16  C   UNL     1      -2.603   3.821 -32.730  1.00  0.00     0.142 C 
BRANCH  16  17
HETATM   17  C   UNL     1      -2.370   4.883 -31.688  1.00  0.00    -0.031 A 
HETATM   18  C   UNL     1      -3.398   5.650 -31.154  1.00  0.00     0.125 A 
HETATM   19  N   UNL     1      -3.222   6.641 -30.249  1.00  0.00    -0.260 NA
HETATM   20  C   UNL     1      -1.971   6.928 -29.855  1.00  0.00     0.066 A 
HETATM   21  C   UNL     1      -0.850   6.231 -30.350  1.00  0.00    -0.007 A 
HETATM   22  C   UNL     1      -1.760   7.948 -28.937  1.00  0.00     0.032 A 
HETATM   23  C   UNL     1      -1.072   5.201 -31.277  1.00  0.00     0.022 A 
HETATM   24  C   UNL     1       0.443   6.579 -29.919  1.00  0.00     0.014 A 
HETATM   25  C   UNL     1       0.627   7.610 -28.999  1.00  0.00     0.001 A 
HETATM   26  C   UNL     1      -0.477   8.296 -28.507  1.00  0.00     0.002 A 
ENDBRANCH  16  17
ENDBRANCH   2  16
TORSDOF 6
ENDMDL
MODEL 10
REMARK VINA RESULT:      -8.1      2.046      9.150
REMARK  6 active torsions:
REMARK  status: ('A' for Active; 'I' for Inactive)
REMARK    1  A    between atoms: C_5  and  C_6 
REMARK    2  A    between atoms: C_6  and  O_7 
REMARK    3  A    between atoms: C_6  and  C_8 
REMARK    4  A    between atoms: C_8  and  N_9 
REMARK       I    between atoms: N_9  and  C_10 
REMARK    5  A    between atoms: C_10  and  C_11 
REMARK    6  A    between atoms: C_11  and  C_12 
ROOT
HETATM    1  N   UNL     1      -5.086   2.425 -32.909  1.00  0.00    -0.358 N 
HETATM    2  C   UNL     1      -5.209   3.656 -32.307  1.00  0.00     0.222 C 
HETATM    3  O   UNL     1      -5.848   3.837 -31.275  1.00  0.00    -0.273 OA
HETATM    4  H   UNL     1      -4.449   2.317 -33.687  1.00  0.00     0.162 HD
ENDROOT
BRANCH   1   5
HETATM    5  C   UNL     1      -5.629   1.215 -32.308  1.00  0.00     0.159 C 
BRANCH   5   6
HETATM    6  C   UNL     1      -4.683  -0.004 -32.272  1.00  0.00     0.169 C 
BRANCH   6   7
HETATM    7  C   UNL     1      -5.147  -1.158 -33.139  1.00  0.00    -0.028 A 
HETATM    8  C   UNL     1      -6.483  -1.231 -33.555  1.00  0.00     0.010 A 
HETATM    9  C   UNL     1      -6.929  -2.302 -34.336  1.00  0.00     0.007 A 
HETATM   10  C   UNL     1      -6.048  -3.322 -34.709  1.00  0.00    -0.062 A 
HETATM   11  C   UNL     1      -6.514  -4.471 -35.552  1.00  0.00     0.048 C 
HETATM   12  C   UNL     1      -4.709  -3.243 -34.309  1.00  0.00     0.007 A 
HETATM   13  C   UNL     1      -4.264  -2.174 -33.529  1.00  0.00     0.010 A 
ENDBRANCH   6   7
BRANCH   6  14
HETATM   14  O   UNL     1      -3.384   0.408 -32.718  1.00  0.00    -0.389 OA
HETATM   15  H   UNL     1      -3.473   1.336 -33.000  1.00  0.00     0.210 HD
ENDBRANCH   6  14
ENDBRANCH   5   6
ENDBRANCH   1   5
BRANCH   2  16
HETATM   16  C   UNL     1      -4.470   4.782 -33.008  1.00  0.00     0.142 C 
BRANCH  16  17
HETATM   17  C   UNL     1      -3.183   5.189 -32.341  1.00  0.00    -0.031 A 
HETATM   18  C   UNL     1      -1.995   4.488 -32.510  1.00  0.00     0.125 A 
HETATM   19  N   UNL     1      -0.830   4.799 -31.895  1.00  0.00    -0.260 NA
HETATM   20  C   UNL     1      -0.818   5.836 -31.040  1.00  0.00     0.066 A 
HETATM   21  C   UNL     1      -1.971   6.601 -30.773  1.00  0.00    -0.007 A 
HETATM   22  C   UNL     1       0.360   6.168 -30.385  1.00  0.00     0.032 A 
HETATM   23  C   UNL     1      -3.157   6.258 -31.440  1.00  0.00     0.022 A 
HETATM   24  C   UNL     1      -1.913   7.668 -29.858  1.00  0.00     0.014 A 
HETATM   25  C   UNL     1      -0.718   7.978 -29.211  1.00  0.00     0.001 A 
HETATM   26  C   UNL     1       0.421   7.227 -29.475  1.00  0.00     0.002 A 
ENDBRANCH  16  17
ENDBRANCH   2  16
TORSDOF 6
ENDMDL
