MODEL 1
REMARK VINA RESULT:      -8.7      0.000      0.000
REMARK  9 active torsions:
REMARK  status: ('A' for Active; 'I' for Inactive)
REMARK    1  A    between atoms: C_2  and  N_3 
REMARK    2  A    between atoms: C_2  and  C_23 
REMARK       I    between atoms: N_3  and  C_4 
REMARK       I    between atoms: C_4  and  N_5 
REMARK    3  A    between atoms: N_5  and  C_6 
REMARK    4  A    between atoms: C_6  and  C_7 
REMARK    5  A    between atoms: C_7  and  N_8 
REMARK    6  A    between atoms: C_7  and  C_14 
REMARK    7  A    between atoms: C_15  and  O_16 
REMARK    8  A    between atoms: C_23  and  C_24 
REMARK    9  A    between atoms: C_27  and  O_28 
ROOT
HETATM    1  N   UNL     1      -7.743   0.339 -31.960  1.00  0.00    -0.339 N 
HETATM    2  C   UNL     1      -8.307   1.500 -32.400  1.00  0.00     0.316 C 
HETATM    3  N   UNL     1      -9.645   1.578 -32.085  1.00  0.00    -0.341 N 
HETATM    4  O   UNL     1      -7.713   2.419 -32.942  1.00  0.00    -0.248 OA
HETATM    5  H   UNL     1      -8.376  -0.419 -31.746  1.00  0.00     0.164 HD
HETATM    6  H   UNL     1     -10.104   0.674 -32.098  1.00  0.00     0.164 HD
ENDROOT
BRANCH   3   7
HETATM    7  C   UNL     1     -10.432   2.689 -32.633  1.00  0.00     0.162 C 
BRANCH   7   8
HETATM    8  C   UNL     1     -11.556   2.237 -33.625  1.00  0.00     0.241 C 
BRANCH   8   9
HETATM    9  N   UNL     1     -11.243   2.851 -35.002  1.00  0.00    -0.061 N 
HETATM   10  H   UNL     1     -10.744   2.077 -35.468  1.00  0.00     0.280 HD
HETATM   11  C   UNL     1     -10.378   4.067 -35.059  1.00  0.00     0.236 C 
HETATM   12  C   UNL     1     -11.337   5.236 -35.167  1.00  0.00     0.029 C 
HETATM   13  C   UNL     1     -12.649   4.668 -35.690  1.00  0.00     0.029 C 
HETATM   14  C   UNL     1     -12.444   3.173 -35.845  1.00  0.00     0.236 C 
ENDBRANCH   8   9
BRANCH   8  15
HETATM   15  C   UNL     1     -12.968   2.441 -33.102  1.00  0.00     0.007 A 
HETATM   16  C   UNL     1     -13.985   1.513 -33.425  1.00  0.00     0.076 A 
HETATM   17  C   UNL     1     -15.288   1.696 -32.949  1.00  0.00     0.037 A 
HETATM   18  C   UNL     1     -15.592   2.781 -32.128  1.00  0.00     0.003 A 
HETATM   19  C   UNL     1     -14.600   3.692 -31.785  1.00  0.00     0.001 A 
HETATM   20  C   UNL     1     -13.301   3.526 -32.267  1.00  0.00     0.012 A 
BRANCH  16  21
HETATM   21  O   UNL     1     -13.627   0.478 -34.248  1.00  0.00    -0.355 OA
HETATM   22  C   UNL     1     -13.377  -0.779 -33.620  1.00  0.00     0.210 C 
ENDBRANCH  16  21
ENDBRANCH   8  15
ENDBRANCH   7   8
ENDBRANCH   3   7
BRANCH   1  23
HETATM   23  C   UNL     1      -6.411  -0.112 -32.385  1.00  0.00     0.086 C 
HETATM   24  C   UNL     1      -5.293   0.849 -31.980  1.00  0.00     0.032 C 
BRANCH  23  25
HETATM   25  C   UNL     1      -6.359  -0.426 -33.897  1.00  0.00     0.063 C 
BRANCH  25  26
HETATM   26  C   UNL     1      -5.962  -1.861 -34.173  1.00  0.00    -0.056 A 
HETATM   27  C   UNL     1      -6.921  -2.800 -34.583  1.00  0.00     0.010 A 
HETATM   28  C   UNL     1      -6.563  -4.133 -34.796  1.00  0.00     0.037 A 
HETATM   29  C   UNL     1      -5.244  -4.527 -34.597  1.00  0.00     0.065 A 
HETATM   30  C   UNL     1      -4.280  -3.611 -34.197  1.00  0.00     0.037 A 
HETATM   31  C   UNL     1      -4.636  -2.278 -33.991  1.00  0.00     0.010 A 
BRANCH  29  32
HETATM   32  O   UNL     1      -4.851  -5.818 -34.785  1.00  0.00    -0.361 OA
HETATM   33  H   UNL     1      -4.568  -6.190 -33.934  1.00  0.00     0.217 HD
ENDBRANCH  29  32
ENDBRANCH  25  26
ENDBRANCH  23  25
ENDBRANCH   1  23
TORSDOF 9
ENDMDL
MODEL 2
REMARK VINA RESULT:      -8.4      5.640      9.034
REMARK  9 active torsions:
REMARK  status: ('A' for Active; 'I' for Inactive)
REMARK    1  A    between atoms: C_2  and  N_3 
REMARK    2  A    between atoms: C_2  and  C_23 
REMARK       I    between atoms: N_3  and  C_4 
REMARK       I    between atoms: C_4  and  N_5 
REMARK    3  A    between atoms: N_5  and  C_6 
REMARK    4  A    between atoms: C_6  and  C_7 
REMARK    5  A    between atoms: C_7  and  N_8 
REMARK    6  A    between atoms: C_7  and  C_14 
REMARK    7  A    between atoms: C_15  and  O_16 
REMARK    8  A    between atoms: C_23  and  C_24 
REMARK    9  A    between atoms: C_27  and  O_28 
ROOT
HETATM    1  N   UNL     1      -5.920   1.636 -32.225  1.00  0.00    -0.339 N 
HETATM    2  C   UNL     1      -4.601   1.983 -32.185  1.00  0.00     0.316 C 
HETATM    3  N   UNL     1      -4.427   3.343 -32.053  1.00  0.00    -0.341 N 
HETATM    4  O   UNL     1      -3.660   1.205 -32.184  1.00  0.00    -0.248 OA
HETATM    5  H   UNL     1      -6.574   2.371 -32.453  1.00  0.00     0.164 HD
HETATM    6  H   UNL     1      -5.148   3.878 -32.522  1.00  0.00     0.164 HD
ENDROOT
BRANCH   3   7
HETATM    7  C   UNL     1      -3.069   3.890 -32.160  1.00  0.00     0.162 C 
BRANCH   7   8
HETATM    8  C   UNL     1      -2.988   5.430 -31.889  1.00  0.00     0.241 C 
BRANCH   8   9
HETATM    9  N   UNL     1      -3.003   6.149 -33.251  1.00  0.00    -0.061 N 
HETATM   10  H   UNL     1      -3.891   6.671 -33.202  1.00  0.00     0.280 HD
HETATM   11  C   UNL     1      -3.014   5.320 -34.493  1.00  0.00     0.236 C 
HETATM   12  C   UNL     1      -1.571   5.268 -34.953  1.00  0.00     0.029 C 
HETATM   13  C   UNL     1      -0.870   6.455 -34.305  1.00  0.00     0.029 C 
HETATM   14  C   UNL     1      -1.909   7.158 -33.451  1.00  0.00     0.236 C 
ENDBRANCH   8   9
BRANCH   8  15
HETATM   15  C   UNL     1      -1.884   5.836 -30.926  1.00  0.00     0.007 A 
HETATM   16  C   UNL     1      -2.069   6.937 -30.058  1.00  0.00     0.076 A 
HETATM   17  C   UNL     1      -1.057   7.317 -29.171  1.00  0.00     0.037 A 
HETATM   18  C   UNL     1       0.136   6.598 -29.113  1.00  0.00     0.003 A 
HETATM   19  C   UNL     1       0.327   5.502 -29.945  1.00  0.00     0.001 A 
HETATM   20  C   UNL     1      -0.671   5.124 -30.845  1.00  0.00     0.012 A 
BRANCH  16  21
HETATM   21  O   UNL     1      -3.256   7.611 -30.175  1.00  0.00    -0.355 OA
HETATM   22  C   UNL     1      -3.174   8.986 -30.549  1.00  0.00     0.210 C 
ENDBRANCH  16  21
ENDBRANCH   8  15
ENDBRANCH   7   8
ENDBRANCH   3   7
BRANCH   1  23
HETATM   23  C   UNL     1      -6.381   0.298 -32.619  1.00  0.00     0.086 C 
HETATM   24  C   UNL     1      -5.994  -0.790 -31.618  1.00  0.00     0.032 C 
BRANCH  23  25
HETATM   25  C   UNL     1      -5.930  -0.073 -34.050  1.00  0.00     0.063 C 
BRANCH  25  26
HETATM   26  C   UNL     1      -5.705  -1.562 -34.214  1.00  0.00    -0.056 A 
HETATM   27  C   UNL     1      -4.436  -2.120 -33.995  1.00  0.00     0.010 A 
HETATM   28  C   UNL     1      -4.219  -3.486 -34.187  1.00  0.00     0.037 A 
HETATM   29  C   UNL     1      -5.271  -4.294 -34.601  1.00  0.00     0.065 A 
HETATM   30  C   UNL     1      -6.536  -3.761 -34.819  1.00  0.00     0.037 A 
HETATM   31  C   UNL     1      -6.755  -2.398 -34.619  1.00  0.00     0.010 A 
BRANCH  29  32
HETATM   32  O   UNL     1      -5.104  -5.630 -34.810  1.00  0.00    -0.361 OA
HETATM   33  H   UNL     1      -4.766  -5.771 -35.709  1.00  0.00     0.217 HD
ENDBRANCH  29  32
ENDBRANCH  25  26
ENDBRANCH  23  25
ENDBRANCH   1  23
TORSDOF 9
ENDMDL
MODEL 3
REMARK VINA RESULT:      -8.4      5.193      8.239
REMARK  9 active torsions:
REMARK  status: ('A' for Active; 'I' for Inactive)
REMARK    1  A    between atoms: C_2  and  N_3 
REMARK    2  A    between atoms: C_2  and  C_23 
REMARK       I    between atoms: N_3  and  C_4 
REMARK       I    between atoms: C_4  and  N_5 
REMARK    3  A    between atoms: N_5  and  C_6 
REMARK    4  A    between atoms: C_6  and  C_7 
REMARK    5  A    between atoms: C_7  and  N_8 
REMARK    6  A    between atoms: C_7  and  C_14 
REMARK    7  A    between atoms: C_15  and  O_16 
REMARK    8  A    between atoms: C_23  and  C_24 
REMARK    9  A    between atoms: C_27  and  O_28 
ROOT
HETATM    1  N   UNL     1      -6.203   1.189 -33.016  1.00  0.00    -0.339 N 
HETATM    2  C   UNL     1      -4.962   1.492 -32.538  1.00  0.00     0.316 C 
HETATM    3  N   UNL     1      -4.994   2.534 -31.638  1.00  0.00    -0.341 N 
HETATM    4  O   UNL     1      -3.934   0.886 -32.793  1.00  0.00    -0.248 OA
HETATM    5  H   UNL     1      -6.914   1.900 -32.913  1.00  0.00     0.164 HD
HETATM    6  H   UNL     1      -5.709   3.218 -31.855  1.00  0.00     0.164 HD
ENDROOT
BRANCH   3   7
HETATM    7  C   UNL     1      -3.720   3.087 -31.161  1.00  0.00     0.162 C 
BRANCH   7   8
HETATM    8  C   UNL     1      -3.633   4.648 -31.265  1.00  0.00     0.241 C 
BRANCH   8   9
HETATM    9  N   UNL     1      -5.069   5.203 -31.222  1.00  0.00    -0.061 N 
HETATM   10  H   UNL     1      -5.622   4.375 -31.490  1.00  0.00     0.280 HD
HETATM   11  C   UNL     1      -5.426   6.323 -32.143  1.00  0.00     0.236 C 
HETATM   12  C   UNL     1      -5.309   7.582 -31.306  1.00  0.00     0.029 C 
HETATM   13  C   UNL     1      -5.407   7.143 -29.852  1.00  0.00     0.029 C 
HETATM   14  C   UNL     1      -5.546   5.631 -29.864  1.00  0.00     0.236 C 
ENDBRANCH   8   9
BRANCH   8  15
HETATM   15  C   UNL     1      -2.752   5.148 -32.399  1.00  0.00     0.007 A 
HETATM   16  C   UNL     1      -1.867   6.229 -32.185  1.00  0.00     0.076 A 
HETATM   17  C   UNL     1      -1.055   6.696 -33.223  1.00  0.00     0.037 A 
HETATM   18  C   UNL     1      -1.090   6.083 -34.475  1.00  0.00     0.003 A 
HETATM   19  C   UNL     1      -1.940   5.007 -34.698  1.00  0.00     0.001 A 
HETATM   20  C   UNL     1      -2.765   4.543 -33.671  1.00  0.00     0.012 A 
BRANCH  16  21
HETATM   21  O   UNL     1      -1.891   6.798 -30.938  1.00  0.00    -0.355 OA
HETATM   22  C   UNL     1      -0.732   6.606 -30.128  1.00  0.00     0.210 C 
ENDBRANCH  16  21
ENDBRANCH   8  15
ENDBRANCH   7   8
ENDBRANCH   3   7
BRANCH   1  23
HETATM   23  C   UNL     1      -6.421   0.306 -34.169  1.00  0.00     0.086 C 
HETATM   24  C   UNL     1      -7.044   1.023 -35.367  1.00  0.00     0.032 C 
BRANCH  23  25
HETATM   25  C   UNL     1      -7.228  -0.956 -33.790  1.00  0.00     0.063 C 
BRANCH  25  26
HETATM   26  C   UNL     1      -6.476  -2.234 -34.099  1.00  0.00    -0.056 A 
HETATM   27  C   UNL     1      -7.158  -3.366 -34.571  1.00  0.00     0.010 A 
HETATM   28  C   UNL     1      -6.472  -4.558 -34.815  1.00  0.00     0.037 A 
HETATM   29  C   UNL     1      -5.102  -4.617 -34.585  1.00  0.00     0.065 A 
HETATM   30  C   UNL     1      -4.409  -3.505 -34.123  1.00  0.00     0.037 A 
HETATM   31  C   UNL     1      -5.093  -2.313 -33.886  1.00  0.00     0.010 A 
BRANCH  29  32
HETATM   32  O   UNL     1      -4.392  -5.760 -34.801  1.00  0.00    -0.361 OA
HETATM   33  H   UNL     1      -4.537  -6.055 -35.715  1.00  0.00     0.217 HD
ENDBRANCH  29  32
ENDBRANCH  25  26
ENDBRANCH  23  25
ENDBRANCH   1  23
TORSDOF 9
ENDMDL
MODEL 4
REMARK VINA RESULT:      -8.4      1.549      3.653
REMARK  9 active torsions:
REMARK  status: ('A' for Active; 'I' for Inactive)
REMARK    1  A    between atoms: C_2  and  N_3 
REMARK    2  A    between atoms: C_2  and  C_23 
REMARK       I    between atoms: N_3  and  C_4 
REMARK       I    between atoms: C_4  and  N_5 
REMARK    3  A    between atoms: N_5  and  C_6 
REMARK    4  A    between atoms: C_6  and  C_7 
REMARK    5  A    between atoms: C_7  and  N_8 
REMARK    6  A    between atoms: C_7  and  C_14 
REMARK    7  A    between atoms: C_15  and  O_16 
REMARK    8  A    between atoms: C_23  and  C_24 
REMARK    9  A    between atoms: C_27  and  O_28 
ROOT
HETATM    1  N   UNL     1      -8.018   0.329 -32.611  1.00  0.00    -0.339 N 
HETATM    2  C   UNL     1      -8.952   0.976 -33.365  1.00  0.00     0.316 C 
HETATM    3  N   UNL     1     -10.210   0.898 -32.810  1.00  0.00    -0.341 N 
HETATM    4  O   UNL     1      -8.727   1.624 -34.375  1.00  0.00    -0.248 OA
HETATM    5  H   UNL     1      -8.363  -0.349 -31.947  1.00  0.00     0.164 HD
HETATM    6  H   UNL     1     -10.369   0.025 -32.322  1.00  0.00     0.164 HD
ENDROOT
BRANCH   3   7
HETATM    7  C   UNL     1     -11.350   1.402 -33.585  1.00  0.00     0.162 C 
BRANCH   7   8
HETATM    8  C   UNL     1     -11.919   2.763 -33.057  1.00  0.00     0.241 C 
BRANCH   8   9
HETATM    9  N   UNL     1     -13.341   2.931 -33.624  1.00  0.00    -0.061 N 
HETATM   10  H   UNL     1     -13.192   3.650 -34.349  1.00  0.00     0.280 HD
HETATM   11  C   UNL     1     -14.420   3.405 -32.708  1.00  0.00     0.236 C 
HETATM   12  C   UNL     1     -15.145   2.151 -32.262  1.00  0.00     0.029 C 
HETATM   13  C   UNL     1     -14.831   1.081 -33.298  1.00  0.00     0.029 C 
HETATM   14  C   UNL     1     -13.900   1.720 -34.312  1.00  0.00     0.236 C 
ENDBRANCH   8   9
BRANCH   8  15
HETATM   15  C   UNL     1     -10.977   3.943 -33.239  1.00  0.00     0.007 A 
HETATM   16  C   UNL     1     -10.105   4.321 -32.193  1.00  0.00     0.076 A 
HETATM   17  C   UNL     1      -9.238   5.407 -32.352  1.00  0.00     0.037 A 
HETATM   18  C   UNL     1      -9.205   6.113 -33.554  1.00  0.00     0.003 A 
HETATM   19  C   UNL     1     -10.043   5.743 -34.599  1.00  0.00     0.001 A 
HETATM   20  C   UNL     1     -10.922   4.669 -34.444  1.00  0.00     0.012 A 
BRANCH  16  21
HETATM   21  O   UNL     1     -10.196   3.599 -31.032  1.00  0.00    -0.355 OA
HETATM   22  C   UNL     1      -8.967   3.289 -30.376  1.00  0.00     0.210 C 
ENDBRANCH  16  21
ENDBRANCH   8  15
ENDBRANCH   7   8
ENDBRANCH   3   7
BRANCH   1  23
HETATM   23  C   UNL     1      -6.663   0.037 -33.097  1.00  0.00     0.086 C 
HETATM   24  C   UNL     1      -5.739   1.254 -33.072  1.00  0.00     0.032 C 
BRANCH  23  25
HETATM   25  C   UNL     1      -6.678  -0.626 -34.493  1.00  0.00     0.063 C 
BRANCH  25  26
HETATM   26  C   UNL     1      -6.122  -2.035 -34.467  1.00  0.00    -0.056 A 
HETATM   27  C   UNL     1      -4.780  -2.265 -34.130  1.00  0.00     0.010 A 
HETATM   28  C   UNL     1      -4.256  -3.560 -34.147  1.00  0.00     0.037 A 
HETATM   29  C   UNL     1      -5.076  -4.625 -34.505  1.00  0.00     0.065 A 
HETATM   30  C   UNL     1      -6.409  -4.416 -34.837  1.00  0.00     0.037 A 
HETATM   31  C   UNL     1      -6.934  -3.124 -34.813  1.00  0.00     0.010 A 
BRANCH  29  32
HETATM   32  O   UNL     1      -4.607  -5.903 -34.544  1.00  0.00    -0.361 OA
HETATM   33  H   UNL     1      -4.538  -6.188 -35.470  1.00  0.00     0.217 HD
ENDBRANCH  29  32
ENDBRANCH  25  26
ENDBRANCH  23  25
ENDBRANCH   1  23
TORSDOF 9
ENDMDL
MODEL 5
REMARK VINA RESULT:      -8.4      1.496      2.481
REMARK  9 active torsions:
REMARK  status: ('A' for Active; 'I' for Inactive)
REMARK    1  A    between atoms: C_2  and  N_3 
REMARK    2  A    between atoms: C_2  and  C_23 
REMARK       I    between atoms: N_3  and  C_4 
REMARK       I    between atoms: C_4  and  N_5 
REMARK    3  A    between atoms: N_5  and  C_6 
REMARK    4  A    between atoms: C_6  and  C_7 
REMARK    5  A    between atoms: C_7  and  N_8 
REMARK    6  A    between atoms: C_7  and  C_14 
REMARK    7  A    between atoms: C_15  and  O_16 
REMARK    8  A    between atoms: C_23  and  C_24 
REMARK    9  A    between atoms: C_27  and  O_28 
ROOT
HETATM    1  N   UNL     1      -7.651   1.341 -32.947  1.00  0.00    -0.339 N 
HETATM    2  C   UNL     1      -8.977   1.557 -32.713  1.00  0.00     0.316 C 
HETATM    3  N   UNL     1      -9.269   2.897 -32.587  1.00  0.00    -0.341 N 
HETATM    4  O   UNL     1      -9.845   0.699 -32.689  1.00  0.00    -0.248 OA
HETATM    5  H   UNL     1      -7.021   2.094 -32.710  1.00  0.00     0.164 HD
HETATM    6  H   UNL     1      -8.516   3.424 -32.160  1.00  0.00     0.164 HD
ENDROOT
BRANCH   3   7
HETATM    7  C   UNL     1     -10.622   3.284 -32.169  1.00  0.00     0.162 C 
BRANCH   7   8
HETATM    8  C   UNL     1     -11.586   3.592 -33.365  1.00  0.00     0.241 C 
BRANCH   8   9
HETATM    9  N   UNL     1     -11.957   5.085 -33.299  1.00  0.00    -0.061 N 
HETATM   10  H   UNL     1     -12.714   5.081 -32.598  1.00  0.00     0.280 HD
HETATM   11  C   UNL     1     -12.468   5.746 -34.536  1.00  0.00     0.236 C 
HETATM   12  C   UNL     1     -11.269   6.451 -35.138  1.00  0.00     0.029 C 
HETATM   13  C   UNL     1     -10.262   6.625 -34.010  1.00  0.00     0.029 C 
HETATM   14  C   UNL     1     -10.877   5.988 -32.777  1.00  0.00     0.236 C 
ENDBRANCH   8   9
BRANCH   8  15
HETATM   15  C   UNL     1     -12.744   2.615 -33.498  1.00  0.00     0.007 A 
HETATM   16  C   UNL     1     -13.874   2.737 -32.658  1.00  0.00     0.076 A 
HETATM   17  C   UNL     1     -14.942   1.841 -32.773  1.00  0.00     0.037 A 
HETATM   18  C   UNL     1     -14.916   0.834 -33.737  1.00  0.00     0.003 A 
HETATM   19  C   UNL     1     -13.821   0.711 -34.584  1.00  0.00     0.001 A 
HETATM   20  C   UNL     1     -12.744   1.592 -34.466  1.00  0.00     0.012 A 
BRANCH  16  21
HETATM   21  O   UNL     1     -13.832   3.737 -31.721  1.00  0.00    -0.355 OA
HETATM   22  C   UNL     1     -15.012   4.529 -31.582  1.00  0.00     0.210 C 
ENDBRANCH  16  21
ENDBRANCH   8  15
ENDBRANCH   7   8
ENDBRANCH   3   7
BRANCH   1  23
HETATM   23  C   UNL     1      -7.032   0.011 -32.861  1.00  0.00     0.086 C 
HETATM   24  C   UNL     1      -6.311  -0.233 -31.536  1.00  0.00     0.032 C 
BRANCH  23  25
HETATM   25  C   UNL     1      -6.105  -0.276 -34.064  1.00  0.00     0.063 C 
BRANCH  25  26
HETATM   26  C   UNL     1      -5.791  -1.751 -34.208  1.00  0.00    -0.056 A 
HETATM   27  C   UNL     1      -4.488  -2.226 -33.993  1.00  0.00     0.010 A 
HETATM   28  C   UNL     1      -4.189  -3.580 -34.167  1.00  0.00     0.037 A 
HETATM   29  C   UNL     1      -5.193  -4.457 -34.560  1.00  0.00     0.065 A 
HETATM   30  C   UNL     1      -6.490  -4.005 -34.773  1.00  0.00     0.037 A 
HETATM   31  C   UNL     1      -6.791  -2.656 -34.592  1.00  0.00     0.010 A 
BRANCH  29  32
HETATM   32  O   UNL     1      -4.946  -5.783 -34.751  1.00  0.00    -0.361 OA
HETATM   33  H   UNL     1      -3.993  -5.944 -34.659  1.00  0.00     0.217 HD
ENDBRANCH  29  32
ENDBRANCH  25  26
ENDBRANCH  23  25
ENDBRANCH   1  23
TORSDOF 9
ENDMDL
MODEL 6
REMARK VINA RESULT:      -8.1      4.422      6.310
REMARK  9 active torsions:
REMARK  status: ('A' for Active; 'I' for Inactive)
REMARK    1  A    between atoms: C_2  and  N_3 
REMARK    2  A    between atoms: C_2  and  C_23 
REMARK       I    between atoms: N_3  and  C_4 
REMARK       I    between atoms: C_4  and  N_5 
REMARK    3  A    between atoms: N_5  and  C_6 
REMARK    4  A    between atoms: C_6  and  C_7 
REMARK    5  A    between atoms: C_7  and  N_8 
REMARK    6  A    between atoms: C_7  and  C_14 
REMARK    7  A    between atoms: C_15  and  O_16 
REMARK    8  A    between atoms: C_23  and  C_24 
REMARK    9  A    between atoms: C_27  and  O_28 
ROOT
HETATM    1  N   UNL     1      -4.511   0.795 -31.150  1.00  0.00    -0.339 N 
HETATM    2  C   UNL     1      -3.928   2.000 -31.411  1.00  0.00     0.316 C 
HETATM    3  N   UNL     1      -4.642   3.048 -30.872  1.00  0.00    -0.341 N 
HETATM    4  O   UNL     1      -2.862   2.168 -31.982  1.00  0.00    -0.248 OA
HETATM    5  H   UNL     1      -5.485   0.811 -30.885  1.00  0.00     0.164 HD
HETATM    6  H   UNL     1      -5.642   2.880 -30.869  1.00  0.00     0.164 HD
ENDROOT
BRANCH   3   7
HETATM    7  C   UNL     1      -4.236   4.418 -31.206  1.00  0.00     0.162 C 
BRANCH   7   8
HETATM    8  C   UNL     1      -4.587   4.840 -32.673  1.00  0.00     0.241 C 
BRANCH   8   9
HETATM    9  N   UNL     1      -3.555   5.892 -33.120  1.00  0.00    -0.061 N 
HETATM   10  H   UNL     1      -4.071   6.771 -32.960  1.00  0.00     0.280 HD
HETATM   11  C   UNL     1      -3.089   5.874 -34.538  1.00  0.00     0.236 C 
HETATM   12  C   UNL     1      -1.770   5.129 -34.516  1.00  0.00     0.029 C 
HETATM   13  C   UNL     1      -1.260   5.200 -33.084  1.00  0.00     0.029 C 
HETATM   14  C   UNL     1      -2.307   5.956 -32.287  1.00  0.00     0.236 C 
ENDBRANCH   8   9
BRANCH   8  15
HETATM   15  C   UNL     1      -6.049   5.197 -32.886  1.00  0.00     0.007 A 
HETATM   16  C   UNL     1      -6.934   4.253 -33.454  1.00  0.00     0.076 A 
HETATM   17  C   UNL     1      -8.280   4.576 -33.655  1.00  0.00     0.037 A 
HETATM   18  C   UNL     1      -8.771   5.824 -33.273  1.00  0.00     0.003 A 
HETATM   19  C   UNL     1      -7.918   6.757 -32.696  1.00  0.00     0.001 A 
HETATM   20  C   UNL     1      -6.570   6.449 -32.505  1.00  0.00     0.012 A 
BRANCH  16  21
HETATM   21  O   UNL     1      -6.389   3.051 -33.823  1.00  0.00    -0.355 OA
HETATM   22  C   UNL     1      -7.258   1.919 -33.786  1.00  0.00     0.210 C 
ENDBRANCH  16  21
ENDBRANCH   8  15
ENDBRANCH   7   8
ENDBRANCH   3   7
BRANCH   1  23
HETATM   23  C   UNL     1      -4.106  -0.448 -31.821  1.00  0.00     0.086 C 
HETATM   24  C   UNL     1      -2.660  -0.847 -31.527  1.00  0.00     0.032 C 
BRANCH  23  25
HETATM   25  C   UNL     1      -4.376  -0.401 -33.342  1.00  0.00     0.063 C 
BRANCH  25  26
HETATM   26  C   UNL     1      -5.034  -1.668 -33.848  1.00  0.00    -0.056 A 
HETATM   27  C   UNL     1      -4.267  -2.813 -34.113  1.00  0.00     0.010 A 
HETATM   28  C   UNL     1      -4.867  -3.967 -34.621  1.00  0.00     0.037 A 
HETATM   29  C   UNL     1      -6.236  -3.975 -34.866  1.00  0.00     0.065 A 
HETATM   30  C   UNL     1      -7.012  -2.853 -34.605  1.00  0.00     0.037 A 
HETATM   31  C   UNL     1      -6.415  -1.702 -34.091  1.00  0.00     0.010 A 
BRANCH  29  32
HETATM   32  O   UNL     1      -6.863  -5.075 -35.368  1.00  0.00    -0.361 OA
HETATM   33  H   UNL     1      -7.052  -5.692 -34.642  1.00  0.00     0.217 HD
ENDBRANCH  29  32
ENDBRANCH  25  26
ENDBRANCH  23  25
ENDBRANCH   1  23
TORSDOF 9
ENDMDL
MODEL 7
REMARK VINA RESULT:      -8.1      6.365      8.405
REMARK  9 active torsions:
REMARK  status: ('A' for Active; 'I' for Inactive)
REMARK    1  A    between atoms: C_2  and  N_3 
REMARK    2  A    between atoms: C_2  and  C_23 
REMARK       I    between atoms: N_3  and  C_4 
REMARK       I    between atoms: C_4  and  N_5 
REMARK    3  A    between atoms: N_5  and  C_6 
REMARK    4  A    between atoms: C_6  and  C_7 
REMARK    5  A    between atoms: C_7  and  N_8 
REMARK    6  A    between atoms: C_7  and  C_14 
REMARK    7  A    between atoms: C_15  and  O_16 
REMARK    8  A    between atoms: C_23  and  C_24 
REMARK    9  A    between atoms: C_27  and  O_28 
ROOT
HETATM    1  N   UNL     1      -3.859   1.299 -31.317  1.00  0.00    -0.339 N 
HETATM    2  C   UNL     1      -4.518   2.478 -31.508  1.00  0.00     0.316 C 
HETATM    3  N   UNL     1      -4.027   3.482 -30.704  1.00  0.00    -0.341 N 
HETATM    4  O   UNL     1      -5.391   2.680 -32.338  1.00  0.00    -0.248 OA
HETATM    5  H   UNL     1      -3.337   1.207 -30.458  1.00  0.00     0.164 HD
HETATM    6  H   UNL     1      -3.704   3.142 -29.805  1.00  0.00     0.164 HD
ENDROOT
BRANCH   3   7
HETATM    7  C   UNL     1      -4.737   4.766 -30.671  1.00  0.00     0.162 C 
BRANCH   7   8
HETATM    8  C   UNL     1      -3.891   5.968 -31.213  1.00  0.00     0.241 C 
BRANCH   8   9
HETATM    9  N   UNL     1      -4.765   7.233 -31.134  1.00  0.00    -0.061 N 
HETATM   10  H   UNL     1      -5.275   7.191 -32.030  1.00  0.00     0.280 HD
HETATM   11  C   UNL     1      -4.088   8.561 -31.042  1.00  0.00     0.236 C 
HETATM   12  C   UNL     1      -4.095   8.912 -29.568  1.00  0.00     0.029 C 
HETATM   13  C   UNL     1      -5.199   8.079 -28.933  1.00  0.00     0.029 C 
HETATM   14  C   UNL     1      -5.794   7.230 -30.041  1.00  0.00     0.236 C 
ENDBRANCH   8   9
BRANCH   8  15
HETATM   15  C   UNL     1      -3.212   5.700 -32.547  1.00  0.00     0.007 A 
HETATM   16  C   UNL     1      -1.810   5.536 -32.609  1.00  0.00     0.076 A 
HETATM   17  C   UNL     1      -1.178   5.293 -33.833  1.00  0.00     0.037 A 
HETATM   18  C   UNL     1      -1.928   5.182 -35.003  1.00  0.00     0.003 A 
HETATM   19  C   UNL     1      -3.310   5.322 -34.957  1.00  0.00     0.001 A 
HETATM   20  C   UNL     1      -3.947   5.580 -33.742  1.00  0.00     0.012 A 
BRANCH  16  21
HETATM   21  O   UNL     1      -1.127   5.672 -31.428  1.00  0.00    -0.355 OA
HETATM   22  C   UNL     1      -0.122   6.684 -31.385  1.00  0.00     0.210 C 
ENDBRANCH  16  21
ENDBRANCH   8  15
ENDBRANCH   7   8
ENDBRANCH   3   7
BRANCH   1  23
HETATM   23  C   UNL     1      -4.346   0.018 -31.848  1.00  0.00     0.086 C 
HETATM   24  C   UNL     1      -5.640  -0.454 -31.186  1.00  0.00     0.032 C 
BRANCH  23  25
HETATM   25  C   UNL     1      -3.260  -1.080 -31.800  1.00  0.00     0.063 C 
BRANCH  25  26
HETATM   26  C   UNL     1      -3.628  -2.289 -32.634  1.00  0.00    -0.056 A 
HETATM   27  C   UNL     1      -4.444  -2.152 -33.767  1.00  0.00     0.010 A 
HETATM   28  C   UNL     1      -4.818  -3.273 -34.513  1.00  0.00     0.037 A 
HETATM   29  C   UNL     1      -4.377  -4.532 -34.122  1.00  0.00     0.065 A 
HETATM   30  C   UNL     1      -3.565  -4.687 -33.006  1.00  0.00     0.037 A 
HETATM   31  C   UNL     1      -3.184  -3.568 -32.266  1.00  0.00     0.010 A 
BRANCH  29  32
HETATM   32  O   UNL     1      -4.724  -5.654 -34.813  1.00  0.00    -0.361 OA
HETATM   33  H   UNL     1      -3.917  -6.118 -35.089  1.00  0.00     0.217 HD
ENDBRANCH  29  32
ENDBRANCH  25  26
ENDBRANCH  23  25
ENDBRANCH   1  23
TORSDOF 9
ENDMDL
MODEL 8
REMARK VINA RESULT:      -8.1      1.744      2.697
REMARK  9 active torsions:
REMARK  status: ('A' for Active; 'I' for Inactive)
REMARK    1  A    between atoms: C_2  and  N_3 
REMARK    2  A    between atoms: C_2  and  C_23 
REMARK       I    between atoms: N_3  and  C_4 
REMARK       I    between atoms: C_4  and  N_5 
REMARK    3  A    between atoms: N_5  and  C_6 
REMARK    4  A    between atoms: C_6  and  C_7 
REMARK    5  A    between atoms: C_7  and  N_8 
REMARK    6  A    between atoms: C_7  and  C_14 
REMARK    7  A    between atoms: C_15  and  O_16 
REMARK    8  A    between atoms: C_23  and  C_24 
REMARK    9  A    between atoms: C_27  and  O_28 
ROOT
HETATM    1  N   UNL     1      -7.326   0.133 -31.002  1.00  0.00    -0.339 N 
HETATM    2  C   UNL     1      -7.760   1.419 -31.134  1.00  0.00     0.316 C 
HETATM    3  N   UNL     1      -9.117   1.531 -30.924  1.00  0.00    -0.341 N 
HETATM    4  O   UNL     1      -7.052   2.393 -31.336  1.00  0.00    -0.248 OA
HETATM    5  H   UNL     1      -8.027  -0.591 -31.070  1.00  0.00     0.164 HD
HETATM    6  H   UNL     1      -9.631   0.715 -31.236  1.00  0.00     0.164 HD
ENDROOT
BRANCH   3   7
HETATM    7  C   UNL     1      -9.764   2.821 -31.192  1.00  0.00     0.162 C 
BRANCH   7   8
HETATM    8  C   UNL     1     -10.188   3.014 -32.688  1.00  0.00     0.241 C 
BRANCH   8   9
HETATM    9  N   UNL     1     -10.027   4.506 -33.034  1.00  0.00    -0.061 N 
HETATM   10  H   UNL     1     -11.010   4.808 -33.118  1.00  0.00     0.280 HD
HETATM   11  C   UNL     1      -9.316   4.871 -34.296  1.00  0.00     0.236 C 
HETATM   12  C   UNL     1      -7.897   5.196 -33.875  1.00  0.00     0.029 C 
HETATM   13  C   UNL     1      -7.952   5.521 -32.389  1.00  0.00     0.029 C 
HETATM   14  C   UNL     1      -9.398   5.346 -31.960  1.00  0.00     0.236 C 
ENDBRANCH   8   9
BRANCH   8  15
HETATM   15  C   UNL     1     -11.523   2.380 -33.044  1.00  0.00     0.007 A 
HETATM   16  C   UNL     1     -12.730   3.031 -32.701  1.00  0.00     0.076 A 
HETATM   17  C   UNL     1     -13.962   2.453 -33.023  1.00  0.00     0.037 A 
HETATM   18  C   UNL     1     -14.014   1.240 -33.709  1.00  0.00     0.003 A 
HETATM   19  C   UNL     1     -12.837   0.596 -34.070  1.00  0.00     0.001 A 
HETATM   20  C   UNL     1     -11.602   1.159 -33.740  1.00  0.00     0.012 A 
BRANCH  16  21
HETATM   21  O   UNL     1     -12.613   4.211 -32.014  1.00  0.00    -0.355 OA
HETATM   22  C   UNL     1     -13.580   5.219 -32.308  1.00  0.00     0.210 C 
ENDBRANCH  16  21
ENDBRANCH   8  15
ENDBRANCH   7   8
ENDBRANCH   3   7
BRANCH   1  23
HETATM   23  C   UNL     1      -5.989  -0.305 -31.425  1.00  0.00     0.086 C 
HETATM   24  C   UNL     1      -4.860   0.399 -30.672  1.00  0.00     0.032 C 
BRANCH  23  25
HETATM   25  C   UNL     1      -5.798  -0.191 -32.954  1.00  0.00     0.063 C 
BRANCH  25  26
HETATM   26  C   UNL     1      -5.763  -1.545 -33.632  1.00  0.00    -0.056 A 
HETATM   27  C   UNL     1      -6.938  -2.115 -34.146  1.00  0.00     0.010 A 
HETATM   28  C   UNL     1      -6.914  -3.383 -34.732  1.00  0.00     0.037 A 
HETATM   29  C   UNL     1      -5.713  -4.081 -34.802  1.00  0.00     0.065 A 
HETATM   30  C   UNL     1      -4.539  -3.531 -34.303  1.00  0.00     0.037 A 
HETATM   31  C   UNL     1      -4.561  -2.262 -33.724  1.00  0.00     0.010 A 
BRANCH  29  32
HETATM   32  O   UNL     1      -5.643  -5.323 -35.357  1.00  0.00    -0.361 OA
HETATM   33  H   UNL     1      -6.160  -5.942 -34.816  1.00  0.00     0.217 HD
ENDBRANCH  29  32
ENDBRANCH  25  26
ENDBRANCH  23  25
ENDBRANCH   1  23
TORSDOF 9
ENDMDL
MODEL 9
REMARK VINA RESULT:      -7.9      1.814      3.569
REMARK  9 active torsions:
REMARK  status: ('A' for Active; 'I' for Inactive)
REMARK    1  A    between atoms: C_2  and  N_3 
REMARK    2  A    between atoms: C_2  and  C_23 
REMARK       I    between atoms: N_3  and  C_4 
REMARK       I    between atoms: C_4  and  N_5 
REMARK    3  A    between atoms: N_5  and  C_6 
REMARK    4  A    between atoms: C_6  and  C_7 
REMARK    5  A    between atoms: C_7  and  N_8 
REMARK    6  A    between atoms: C_7  and  C_14 
REMARK    7  A    between atoms: C_15  and  O_16 
REMARK    8  A    between atoms: C_23  and  C_24 
REMARK    9  A    between atoms: C_27  and  O_28 
ROOT
HETATM    1  N   UNL     1      -6.612   0.856 -32.995  1.00  0.00    -0.339 N 
HETATM    2  C   UNL     1      -7.886   0.551 -33.375  1.00  0.00     0.316 C 
HETATM    3  N   UNL     1      -8.535   1.633 -33.926  1.00  0.00    -0.341 N 
HETATM    4  O   UNL     1      -8.399  -0.556 -33.322  1.00  0.00    -0.248 OA
HETATM    5  H   UNL     1      -6.398   1.835 -32.875  1.00  0.00     0.164 HD
HETATM    6  H   UNL     1      -8.255   2.513 -33.509  1.00  0.00     0.164 HD
ENDROOT
BRANCH   3   7
HETATM    7  C   UNL     1      -9.966   1.512 -34.232  1.00  0.00     0.162 C 
BRANCH   7   8
HETATM    8  C   UNL     1     -10.898   2.168 -33.158  1.00  0.00     0.241 C 
BRANCH   8   9
HETATM    9  N   UNL     1     -12.200   2.594 -33.861  1.00  0.00    -0.061 N 
HETATM   10  H   UNL     1     -11.923   3.493 -34.286  1.00  0.00     0.280 HD
HETATM   11  C   UNL     1     -13.416   2.826 -33.026  1.00  0.00     0.236 C 
HETATM   12  C   UNL     1     -14.219   1.544 -33.124  1.00  0.00     0.029 C 
HETATM   13  C   UNL     1     -13.742   0.833 -34.383  1.00  0.00     0.029 C 
HETATM   14  C   UNL     1     -12.645   1.696 -34.979  1.00  0.00     0.236 C 
ENDBRANCH   8   9
BRANCH   8  15
HETATM   15  C   UNL     1     -10.216   3.226 -32.304  1.00  0.00     0.007 A 
HETATM   16  C   UNL     1     -10.039   4.536 -32.805  1.00  0.00     0.076 A 
HETATM   17  C   UNL     1      -9.411   5.513 -32.027  1.00  0.00     0.037 A 
HETATM   18  C   UNL     1      -8.975   5.214 -30.737  1.00  0.00     0.003 A 
HETATM   19  C   UNL     1      -9.158   3.936 -30.221  1.00  0.00     0.001 A 
HETATM   20  C   UNL     1      -9.771   2.950 -30.997  1.00  0.00     0.012 A 
BRANCH  16  21
HETATM   21  O   UNL     1     -10.474   4.762 -34.085  1.00  0.00    -0.355 OA
HETATM   22  C   UNL     1     -10.958   6.075 -34.371  1.00  0.00     0.210 C 
ENDBRANCH  16  21
ENDBRANCH   8  15
ENDBRANCH   7   8
ENDBRANCH   3   7
BRANCH   1  23
HETATM   23  C   UNL     1      -5.798  -0.030 -32.152  1.00  0.00     0.086 C 
HETATM   24  C   UNL     1      -5.557   0.529 -30.750  1.00  0.00     0.032 C 
BRANCH  23  25
HETATM   25  C   UNL     1      -4.467  -0.419 -32.835  1.00  0.00     0.063 C 
BRANCH  25  26
HETATM   26  C   UNL     1      -4.491  -1.835 -33.374  1.00  0.00    -0.056 A 
HETATM   27  C   UNL     1      -5.438  -2.216 -34.336  1.00  0.00     0.010 A 
HETATM   28  C   UNL     1      -5.487  -3.532 -34.802  1.00  0.00     0.037 A 
HETATM   29  C   UNL     1      -4.589  -4.468 -34.301  1.00  0.00     0.065 A 
HETATM   30  C   UNL     1      -3.641  -4.108 -33.351  1.00  0.00     0.037 A 
HETATM   31  C   UNL     1      -3.586  -2.792 -32.892  1.00  0.00     0.010 A 
BRANCH  29  32
HETATM   32  O   UNL     1      -4.605  -5.765 -34.719  1.00  0.00    -0.361 OA
HETATM   33  H   UNL     1      -3.829  -6.224 -34.358  1.00  0.00     0.217 HD
ENDBRANCH  29  32
ENDBRANCH  25  26
ENDBRANCH  23  25
ENDBRANCH   1  23
TORSDOF 9
ENDMDL
MODEL 10
REMARK VINA RESULT:      -7.9      5.538      9.270
REMARK  9 active torsions:
REMARK  status: ('A' for Active; 'I' for Inactive)
REMARK    1  A    between atoms: C_2  and  N_3 
REMARK    2  A    between atoms: C_2  and  C_23 
REMARK       I    between atoms: N_3  and  C_4 
REMARK       I    between atoms: C_4  and  N_5 
REMARK    3  A    between atoms: N_5  and  C_6 
REMARK    4  A    between atoms: C_6  and  C_7 
REMARK    5  A    between atoms: C_7  and  N_8 
REMARK    6  A    between atoms: C_7  and  C_14 
REMARK    7  A    between atoms: C_15  and  O_16 
REMARK    8  A    between atoms: C_23  and  C_24 
REMARK    9  A    between atoms: C_27  and  O_28 
ROOT
HETATM    1  N   UNL     1      -1.955   4.911 -32.763  1.00  0.00    -0.339 N 
HETATM    2  C   UNL     1      -2.850   4.283 -31.948  1.00  0.00     0.316 C 
HETATM    3  N   UNL     1      -3.134   3.006 -32.377  1.00  0.00    -0.341 N 
HETATM    4  O   UNL     1      -3.309   4.736 -30.911  1.00  0.00    -0.248 OA
HETATM    5  H   UNL     1      -1.840   4.527 -33.690  1.00  0.00     0.164 HD
HETATM    6  H   UNL     1      -3.115   2.918 -33.386  1.00  0.00     0.164 HD
ENDROOT
BRANCH   3   7
HETATM    7  C   UNL     1      -4.204   2.260 -31.702  1.00  0.00     0.162 C 
BRANCH   7   8
HETATM    8  C   UNL     1      -5.453   1.993 -32.609  1.00  0.00     0.241 C 
BRANCH   8   9
HETATM    9  N   UNL     1      -6.708   2.394 -31.811  1.00  0.00    -0.061 N 
HETATM   10  H   UNL     1      -7.386   1.679 -32.115  1.00  0.00     0.280 HD
HETATM   11  C   UNL     1      -7.306   3.740 -32.056  1.00  0.00     0.236 C 
HETATM   12  C   UNL     1      -6.771   4.624 -30.946  1.00  0.00     0.029 C 
HETATM   13  C   UNL     1      -6.328   3.689 -29.829  1.00  0.00     0.029 C 
HETATM   14  C   UNL     1      -6.581   2.276 -30.320  1.00  0.00     0.236 C 
ENDBRANCH   8   9
BRANCH   8  15
HETATM   15  C   UNL     1      -5.475   0.614 -33.249  1.00  0.00     0.007 A 
HETATM   16  C   UNL     1      -6.466   0.291 -34.203  1.00  0.00     0.076 A 
HETATM   17  C   UNL     1      -6.493  -0.977 -34.794  1.00  0.00     0.037 A 
HETATM   18  C   UNL     1      -5.527  -1.927 -34.469  1.00  0.00     0.003 A 
HETATM   19  C   UNL     1      -4.534  -1.620 -33.546  1.00  0.00     0.001 A 
HETATM   20  C   UNL     1      -4.507  -0.362 -32.940  1.00  0.00     0.012 A 
BRANCH  16  21
HETATM   21  O   UNL     1      -7.396   1.261 -34.468  1.00  0.00    -0.355 OA
HETATM   22  C   UNL     1      -8.767   0.869 -34.392  1.00  0.00     0.210 C 
ENDBRANCH  16  21
ENDBRANCH   8  15
ENDBRANCH   7   8
ENDBRANCH   3   7
BRANCH   1  23
HETATM   23  C   UNL     1      -1.680   6.352 -32.686  1.00  0.00     0.086 C 
HETATM   24  C   UNL     1      -2.001   7.095 -33.983  1.00  0.00     0.032 C 
BRANCH  23  25
HETATM   25  C   UNL     1      -0.237   6.644 -32.216  1.00  0.00     0.063 C 
BRANCH  25  26
HETATM   26  C   UNL     1      -0.107   6.611 -30.708  1.00  0.00    -0.056 A 
HETATM   27  C   UNL     1       0.508   5.523 -30.069  1.00  0.00     0.010 A 
HETATM   28  C   UNL     1       0.590   5.473 -28.675  1.00  0.00     0.037 A 
HETATM   29  C   UNL     1       0.055   6.511 -27.920  1.00  0.00     0.065 A 
HETATM   30  C   UNL     1      -0.553   7.598 -28.536  1.00  0.00     0.037 A 
HETATM   31  C   UNL     1      -0.629   7.653 -29.927  1.00  0.00     0.010 A 
BRANCH  29  32
HETATM   32  O   UNL     1       0.104   6.500 -26.559  1.00  0.00    -0.361 OA
HETATM   33  H   UNL     1       0.646   7.247 -26.256  1.00  0.00     0.217 HD
ENDBRANCH  29  32
ENDBRANCH  25  26
ENDBRANCH  23  25
ENDBRANCH   1  23
TORSDOF 9
ENDMDL
