MODEL 1
REMARK VINA RESULT:      -8.9      0.000      0.000
REMARK  5 active torsions:
REMARK  status: ('A' for Active; 'I' for Inactive)
REMARK    1  A    between atoms: C_5  and  O_6 
REMARK    2  A    between atoms: O_6  and  C_7 
REMARK    3  A    between atoms: C_7  and  C_8 
REMARK       I    between atoms: C_8  and  N_9 
REMARK    4  A    between atoms: N_9  and  N_10 
REMARK       I    between atoms: N_10  and  C_11 
REMARK    5  A    between atoms: C_11  and  C_12 
ROOT
HETATM    1  N   UNL     1      -4.075   1.608 -32.672  1.00  0.00    -0.263 N 
HETATM    2  C   UNL     1      -5.383   1.164 -32.640  1.00  0.00     0.276 C 
HETATM    3  O   UNL     1      -6.255   1.733 -31.985  1.00  0.00    -0.266 OA
HETATM    4  H   UNL     1      -3.343   1.060 -33.131  1.00  0.00     0.190 HD
ENDROOT
BRANCH   1   5
HETATM    5  N   UNL     1      -3.683   2.667 -31.851  1.00  0.00    -0.265 N 
HETATM    6  C   UNL     1      -2.851   3.638 -32.364  1.00  0.00     0.260 C 
HETATM    7  O   UNL     1      -2.494   3.669 -33.542  1.00  0.00    -0.269 OA
HETATM    8  H   UNL     1      -3.882   2.592 -30.853  1.00  0.00     0.190 HD
BRANCH   6   9
HETATM    9  C   UNL     1      -2.338   4.632 -31.327  1.00  0.00     0.280 C 
BRANCH   9  10
HETATM   10  O   UNL     1      -0.920   4.747 -31.399  1.00  0.00    -0.342 OA
BRANCH  10  11
HETATM   11  C   UNL     1      -0.348   5.562 -30.460  1.00  0.00     0.069 A 
HETATM   12  C   UNL     1      -0.606   6.925 -30.616  1.00  0.00     0.037 A 
HETATM   13  C   UNL     1      -0.082   7.853 -29.713  1.00  0.00     0.009 A 
HETATM   14  C   UNL     1       0.704   7.427 -28.638  1.00  0.00    -0.062 A 
HETATM   15  C   UNL     1       1.239   8.414 -27.643  1.00  0.00     0.048 C 
HETATM   16  C   UNL     1       0.931   6.057 -28.466  1.00  0.00     0.009 A 
HETATM   17  C   UNL     1       0.410   5.128 -29.374  1.00  0.00     0.037 A 
ENDBRANCH  10  11
ENDBRANCH   9  10
ENDBRANCH   6   9
ENDBRANCH   1   5
BRANCH   2  18
HETATM   18  C   UNL     1      -5.645  -0.019 -33.441  1.00  0.00     0.107 A 
HETATM   19  C   UNL     1      -5.035  -1.256 -33.333  1.00  0.00     0.169 A 
HETATM   20  N   UNL     1      -5.597  -2.069 -34.322  1.00  0.00    -0.219 N 
HETATM   21  N   UNL     1      -4.068  -1.709 -32.475  1.00  0.00    -0.233 NA
HETATM   22  C   UNL     1      -5.167  -3.395 -34.485  1.00  0.00     0.036 A 
HETATM   23  N   UNL     1      -6.543  -1.403 -35.027  1.00  0.00    -0.170 NA
HETATM   24  C   UNL     1      -5.771  -4.239 -35.566  1.00  0.00     0.070 C 
HETATM   25  C   UNL     1      -4.211  -3.878 -33.670  1.00  0.00     0.053 A 
HETATM   26  C   UNL     1      -3.682  -2.943 -32.629  1.00  0.00     0.035 A 
HETATM   27  C   UNL     1      -2.629  -3.474 -31.691  1.00  0.00     0.070 C 
HETATM   28  C   UNL     1      -6.574  -0.175 -34.501  1.00  0.00     0.071 A 
HETATM   29  C   UNL     1      -7.516   0.839 -35.044  1.00  0.00     0.073 C 
ENDBRANCH   2  18
TORSDOF 5
ENDMDL
MODEL 2
REMARK VINA RESULT:      -8.8      1.820      2.688
REMARK  5 active torsions:
REMARK  status: ('A' for Active; 'I' for Inactive)
REMARK    1  A    between atoms: C_5  and  O_6 
REMARK    2  A    between atoms: O_6  and  C_7 
REMARK    3  A    between atoms: C_7  and  C_8 
REMARK       I    between atoms: C_8  and  N_9 
REMARK    4  A    between atoms: N_9  and  N_10 
REMARK       I    between atoms: N_10  and  C_11 
REMARK    5  A    between atoms: C_11  and  C_12 
ROOT
HETATM    1  N   UNL     1      -3.034   3.506 -31.916  1.00  0.00    -0.263 N 
HETATM    2  C   UNL     1      -4.405   3.613 -31.782  1.00  0.00     0.276 C 
HETATM    3  O   UNL     1      -4.930   4.413 -31.010  1.00  0.00    -0.266 OA
HETATM    4  H   UNL     1      -2.616   2.760 -32.479  1.00  0.00     0.190 HD
ENDROOT
BRANCH   1   5
HETATM    5  N   UNL     1      -2.197   4.239 -31.073  1.00  0.00    -0.265 N 
HETATM    6  C   UNL     1      -1.196   5.006 -31.628  1.00  0.00     0.260 C 
HETATM    7  O   UNL     1      -1.047   5.147 -32.842  1.00  0.00    -0.269 OA
HETATM    8  H   UNL     1      -2.242   4.044 -30.073  1.00  0.00     0.190 HD
BRANCH   6   9
HETATM    9  C   UNL     1      -0.231   5.604 -30.610  1.00  0.00     0.280 C 
BRANCH   9  10
HETATM   10  O   UNL     1      -0.942   6.305 -29.594  1.00  0.00    -0.342 OA
BRANCH  10  11
HETATM   11  C   UNL     1      -0.174   6.807 -28.578  1.00  0.00     0.069 A 
HETATM   12  C   UNL     1       0.676   7.855 -28.935  1.00  0.00     0.037 A 
HETATM   13  C   UNL     1       1.502   8.453 -27.980  1.00  0.00     0.009 A 
HETATM   14  C   UNL     1       1.483   8.013 -26.654  1.00  0.00    -0.062 A 
HETATM   15  C   UNL     1       2.339   8.675 -25.615  1.00  0.00     0.048 C 
HETATM   16  C   UNL     1       0.604   6.985 -26.293  1.00  0.00     0.009 A 
HETATM   17  C   UNL     1      -0.219   6.382 -27.251  1.00  0.00     0.037 A 
ENDBRANCH  10  11
ENDBRANCH   9  10
ENDBRANCH   6   9
ENDBRANCH   1   5
BRANCH   2  18
HETATM   18  C   UNL     1      -5.172   2.714 -32.626  1.00  0.00     0.107 A 
HETATM   19  C   UNL     1      -5.004   1.348 -32.764  1.00  0.00     0.169 A 
HETATM   20  N   UNL     1      -5.956   0.917 -33.694  1.00  0.00    -0.219 N 
HETATM   21  N   UNL     1      -4.122   0.485 -32.167  1.00  0.00    -0.233 NA
HETATM   22  C   UNL     1      -6.027  -0.433 -34.070  1.00  0.00     0.036 A 
HETATM   23  N   UNL     1      -6.722   1.948 -34.126  1.00  0.00    -0.170 NA
HETATM   24  C   UNL     1      -7.043  -0.864 -35.083  1.00  0.00     0.070 C 
HETATM   25  C   UNL     1      -5.173  -1.313 -33.514  1.00  0.00     0.053 A 
HETATM   26  C   UNL     1      -4.203  -0.766 -32.516  1.00  0.00     0.035 A 
HETATM   27  C   UNL     1      -3.255  -1.742 -31.865  1.00  0.00     0.070 C 
HETATM   28  C   UNL     1      -6.255   3.025 -33.486  1.00  0.00     0.071 A 
HETATM   29  C   UNL     1      -6.875   4.354 -33.727  1.00  0.00     0.073 C 
ENDBRANCH   2  18
TORSDOF 5
ENDMDL
MODEL 3
REMARK VINA RESULT:      -8.7      1.384      2.887
REMARK  5 active torsions:
REMARK  status: ('A' for Active; 'I' for Inactive)
REMARK    1  A    between atoms: C_5  and  O_6 
REMARK    2  A    between atoms: O_6  and  C_7 
REMARK    3  A    between atoms: C_7  and  C_8 
REMARK       I    between atoms: C_8  and  N_9 
REMARK    4  A    between atoms: N_9  and  N_10 
REMARK       I    between atoms: N_10  and  C_11 
REMARK    5  A    between atoms: C_11  and  C_12 
ROOT
HETATM    1  N   UNL     1      -3.609   1.214 -32.481  1.00  0.00    -0.263 N 
HETATM    2  C   UNL     1      -3.261   0.007 -31.906  1.00  0.00     0.276 C 
HETATM    3  O   UNL     1      -2.532  -0.065 -30.918  1.00  0.00    -0.266 OA
HETATM    4  H   UNL     1      -4.123   1.247 -33.365  1.00  0.00     0.190 HD
ENDROOT
BRANCH   1   5
HETATM    5  N   UNL     1      -3.033   2.395 -32.013  1.00  0.00    -0.265 N 
HETATM    6  C   UNL     1      -3.782   3.552 -32.020  1.00  0.00     0.260 C 
HETATM    7  O   UNL     1      -4.969   3.587 -32.344  1.00  0.00    -0.269 OA
HETATM    8  H   UNL     1      -2.027   2.400 -31.847  1.00  0.00     0.190 HD
BRANCH   6   9
HETATM    9  C   UNL     1      -2.992   4.809 -31.670  1.00  0.00     0.280 C 
BRANCH   9  10
HETATM   10  O   UNL     1      -1.601   4.518 -31.575  1.00  0.00    -0.342 OA
BRANCH  10  11
HETATM   11  C   UNL     1      -0.884   5.341 -30.749  1.00  0.00     0.069 A 
HETATM   12  C   UNL     1      -1.254   6.686 -30.779  1.00  0.00     0.037 A 
HETATM   13  C   UNL     1      -0.598   7.620 -29.973  1.00  0.00     0.009 A 
HETATM   14  C   UNL     1       0.435   7.216 -29.121  1.00  0.00    -0.062 A 
HETATM   15  C   UNL     1       1.118   8.206 -28.225  1.00  0.00     0.048 C 
HETATM   16  C   UNL     1       0.779   5.860 -29.069  1.00  0.00     0.009 A 
HETATM   17  C   UNL     1       0.126   4.927 -29.881  1.00  0.00     0.037 A 
ENDBRANCH  10  11
ENDBRANCH   9  10
ENDBRANCH   6   9
ENDBRANCH   1   5
BRANCH   2  18
HETATM   18  C   UNL     1      -3.826  -1.164 -32.554  1.00  0.00     0.107 A 
HETATM   19  C   UNL     1      -4.893  -1.201 -33.434  1.00  0.00     0.169 A 
HETATM   20  N   UNL     1      -5.084  -2.543 -33.779  1.00  0.00    -0.219 N 
HETATM   21  N   UNL     1      -5.679  -0.197 -33.937  1.00  0.00    -0.233 NA
HETATM   22  C   UNL     1      -6.119  -2.915 -34.651  1.00  0.00     0.036 A 
HETATM   23  N   UNL     1      -4.172  -3.341 -33.171  1.00  0.00    -0.170 NA
HETATM   24  C   UNL     1      -6.314  -4.362 -34.987  1.00  0.00     0.070 C 
HETATM   25  C   UNL     1      -6.920  -1.962 -35.160  1.00  0.00     0.053 A 
HETATM   26  C   UNL     1      -6.630  -0.553 -34.751  1.00  0.00     0.035 A 
HETATM   27  C   UNL     1      -7.503   0.531 -35.332  1.00  0.00     0.070 C 
HETATM   28  C   UNL     1      -3.418  -2.516 -32.438  1.00  0.00     0.071 A 
HETATM   29  C   UNL     1      -2.299  -3.064 -31.626  1.00  0.00     0.073 C 
ENDBRANCH   2  18
TORSDOF 5
ENDMDL
MODEL 4
REMARK VINA RESULT:      -8.5      2.924     10.244
REMARK  5 active torsions:
REMARK  status: ('A' for Active; 'I' for Inactive)
REMARK    1  A    between atoms: C_5  and  O_6 
REMARK    2  A    between atoms: O_6  and  C_7 
REMARK    3  A    between atoms: C_7  and  C_8 
REMARK       I    between atoms: C_8  and  N_9 
REMARK    4  A    between atoms: N_9  and  N_10 
REMARK       I    between atoms: N_10  and  C_11 
REMARK    5  A    between atoms: C_11  and  C_12 
ROOT
HETATM    1  N   UNL     1      -3.568   4.622 -31.126  1.00  0.00    -0.263 N 
HETATM    2  C   UNL     1      -2.355   5.184 -31.474  1.00  0.00     0.276 C 
HETATM    3  O   UNL     1      -1.413   4.511 -31.890  1.00  0.00    -0.266 OA
HETATM    4  H   UNL     1      -4.299   5.181 -30.678  1.00  0.00     0.190 HD
ENDROOT
BRANCH   1   5
HETATM    5  N   UNL     1      -3.714   3.234 -31.130  1.00  0.00    -0.265 N 
HETATM    6  C   UNL     1      -4.403   2.637 -32.164  1.00  0.00     0.260 C 
HETATM    7  O   UNL     1      -4.833   3.258 -33.136  1.00  0.00    -0.269 OA
HETATM    8  H   UNL     1      -3.460   2.727 -30.282  1.00  0.00     0.190 HD
BRANCH   6   9
HETATM    9  C   UNL     1      -4.664   1.148 -31.963  1.00  0.00     0.280 C 
BRANCH   9  10
HETATM   10  O   UNL     1      -5.850   0.749 -32.642  1.00  0.00    -0.342 OA
BRANCH  10  11
HETATM   11  C   UNL     1      -5.792  -0.472 -33.259  1.00  0.00     0.069 A 
HETATM   12  C   UNL     1      -7.026  -1.025 -33.604  1.00  0.00     0.037 A 
HETATM   13  C   UNL     1      -7.093  -2.264 -34.246  1.00  0.00     0.009 A 
HETATM   14  C   UNL     1      -5.922  -2.964 -34.555  1.00  0.00    -0.062 A 
HETATM   15  C   UNL     1      -5.983  -4.277 -35.277  1.00  0.00     0.048 C 
HETATM   16  C   UNL     1      -4.686  -2.389 -34.238  1.00  0.00     0.009 A 
HETATM   17  C   UNL     1      -4.620  -1.151 -33.590  1.00  0.00     0.037 A 
ENDBRANCH  10  11
ENDBRANCH   9  10
ENDBRANCH   6   9
ENDBRANCH   1   5
BRANCH   2  18
HETATM   18  C   UNL     1      -2.283   6.626 -31.314  1.00  0.00     0.107 A 
HETATM   19  C   UNL     1      -2.484   7.351 -30.153  1.00  0.00     0.169 A 
HETATM   20  N   UNL     1      -2.330   8.700 -30.489  1.00  0.00    -0.219 N 
HETATM   21  N   UNL     1      -2.781   6.944 -28.879  1.00  0.00    -0.233 NA
HETATM   22  C   UNL     1      -2.496   9.701 -29.520  1.00  0.00     0.036 A 
HETATM   23  N   UNL     1      -2.021   8.847 -31.801  1.00  0.00    -0.170 NA
HETATM   24  C   UNL     1      -2.345  11.139 -29.911  1.00  0.00     0.070 C 
HETATM   25  C   UNL     1      -2.797   9.345 -28.257  1.00  0.00     0.053 A 
HETATM   26  C   UNL     1      -2.924   7.879 -27.985  1.00  0.00     0.035 A 
HETATM   27  C   UNL     1      -3.236   7.461 -26.571  1.00  0.00     0.070 C 
HETATM   28  C   UNL     1      -1.992   7.606 -32.296  1.00  0.00     0.071 A 
HETATM   29  C   UNL     1      -1.678   7.391 -33.733  1.00  0.00     0.073 C 
ENDBRANCH   2  18
TORSDOF 5
ENDMDL
MODEL 5
REMARK VINA RESULT:      -8.4      2.593      3.762
REMARK  5 active torsions:
REMARK  status: ('A' for Active; 'I' for Inactive)
REMARK    1  A    between atoms: C_5  and  O_6 
REMARK    2  A    between atoms: O_6  and  C_7 
REMARK    3  A    between atoms: C_7  and  C_8 
REMARK       I    between atoms: C_8  and  N_9 
REMARK    4  A    between atoms: N_9  and  N_10 
REMARK       I    between atoms: N_10  and  C_11 
REMARK    5  A    between atoms: C_11  and  C_12 
ROOT
HETATM    1  N   UNL     1      -4.514   3.912 -33.308  1.00  0.00    -0.263 N 
HETATM    2  C   UNL     1      -5.047   3.561 -32.083  1.00  0.00     0.276 C 
HETATM    3  O   UNL     1      -4.485   3.825 -31.021  1.00  0.00    -0.266 OA
HETATM    4  H   UNL     1      -4.939   3.586 -34.180  1.00  0.00     0.190 HD
ENDROOT
BRANCH   1   5
HETATM    5  N   UNL     1      -3.242   4.482 -33.372  1.00  0.00    -0.265 N 
HETATM    6  C   UNL     1      -2.913   5.261 -34.461  1.00  0.00     0.260 C 
HETATM    7  O   UNL     1      -3.712   5.551 -35.350  1.00  0.00    -0.269 OA
HETATM    8  H   UNL     1      -2.543   4.161 -32.701  1.00  0.00     0.190 HD
BRANCH   6   9
HETATM    9  C   UNL     1      -1.443   5.668 -34.515  1.00  0.00     0.280 C 
BRANCH   9  10
HETATM   10  O   UNL     1      -1.290   7.041 -34.171  1.00  0.00    -0.342 OA
BRANCH  10  11
HETATM   11  C   UNL     1      -1.220   7.307 -32.830  1.00  0.00     0.069 A 
HETATM   12  C   UNL     1      -0.182   6.670 -32.149  1.00  0.00     0.037 A 
HETATM   13  C   UNL     1      -0.006   6.872 -30.777  1.00  0.00     0.009 A 
HETATM   14  C   UNL     1      -0.865   7.719 -30.072  1.00  0.00    -0.062 A 
HETATM   15  C   UNL     1      -0.659   7.970 -28.607  1.00  0.00     0.048 C 
HETATM   16  C   UNL     1      -1.883   8.383 -30.766  1.00  0.00     0.009 A 
HETATM   17  C   UNL     1      -2.063   8.176 -32.138  1.00  0.00     0.037 A 
ENDBRANCH  10  11
ENDBRANCH   9  10
ENDBRANCH   6   9
ENDBRANCH   1   5
BRANCH   2  18
HETATM   18  C   UNL     1      -6.320   2.864 -32.148  1.00  0.00     0.107 A 
HETATM   19  C   UNL     1      -6.554   1.592 -32.639  1.00  0.00     0.169 A 
HETATM   20  N   UNL     1      -7.927   1.358 -32.513  1.00  0.00    -0.219 N 
HETATM   21  N   UNL     1      -5.698   0.660 -33.165  1.00  0.00    -0.233 NA
HETATM   22  C   UNL     1      -8.488   0.148 -32.949  1.00  0.00     0.036 A 
HETATM   23  N   UNL     1      -8.556   2.418 -31.948  1.00  0.00    -0.170 NA
HETATM   24  C   UNL     1      -9.965  -0.068 -32.822  1.00  0.00     0.070 C 
HETATM   25  C   UNL     1      -7.684  -0.792 -33.481  1.00  0.00     0.053 A 
HETATM   26  C   UNL     1      -6.227  -0.463 -33.558  1.00  0.00     0.035 A 
HETATM   27  C   UNL     1      -5.309  -1.514 -34.128  1.00  0.00     0.070 C 
HETATM   28  C   UNL     1      -7.594   3.320 -31.728  1.00  0.00     0.071 A 
HETATM   29  C   UNL     1      -7.936   4.627 -31.107  1.00  0.00     0.073 C 
ENDBRANCH   2  18
TORSDOF 5
ENDMDL
MODEL 6
REMARK VINA RESULT:      -8.4      2.685      9.892
REMARK  5 active torsions:
REMARK  status: ('A' for Active; 'I' for Inactive)
REMARK    1  A    between atoms: C_5  and  O_6 
REMARK    2  A    between atoms: O_6  and  C_7 
REMARK    3  A    between atoms: C_7  and  C_8 
REMARK       I    between atoms: C_8  and  N_9 
REMARK    4  A    between atoms: N_9  and  N_10 
REMARK       I    between atoms: N_10  and  C_11 
REMARK    5  A    between atoms: C_11  and  C_12 
ROOT
HETATM    1  N   UNL     1      -4.437   4.156 -30.474  1.00  0.00    -0.263 N 
HETATM    2  C   UNL     1      -4.408   5.419 -31.033  1.00  0.00     0.276 C 
HETATM    3  O   UNL     1      -4.993   5.688 -32.081  1.00  0.00    -0.266 OA
HETATM    4  H   UNL     1      -3.855   3.924 -29.665  1.00  0.00     0.190 HD
ENDROOT
BRANCH   1   5
HETATM    5  N   UNL     1      -5.048   3.108 -31.164  1.00  0.00    -0.265 N 
HETATM    6  C   UNL     1      -4.255   2.160 -31.775  1.00  0.00     0.260 C 
HETATM    7  O   UNL     1      -3.029   2.140 -31.677  1.00  0.00    -0.269 OA
HETATM    8  H   UNL     1      -6.050   3.176 -31.343  1.00  0.00     0.190 HD
BRANCH   6   9
HETATM    9  C   UNL     1      -5.023   1.179 -32.656  1.00  0.00     0.280 C 
BRANCH   9  10
HETATM   10  O   UNL     1      -4.213   0.053 -32.979  1.00  0.00    -0.342 OA
BRANCH  10  11
HETATM   11  C   UNL     1      -4.866  -0.987 -33.583  1.00  0.00     0.069 A 
HETATM   12  C   UNL     1      -4.117  -2.155 -33.734  1.00  0.00     0.037 A 
HETATM   13  C   UNL     1      -4.680  -3.286 -34.330  1.00  0.00     0.009 A 
HETATM   14  C   UNL     1      -6.005  -3.264 -34.777  1.00  0.00    -0.062 A 
HETATM   15  C   UNL     1      -6.629  -4.486 -35.383  1.00  0.00     0.048 C 
HETATM   16  C   UNL     1      -6.763  -2.102 -34.592  1.00  0.00     0.009 A 
HETATM   17  C   UNL     1      -6.196  -0.968 -34.001  1.00  0.00     0.037 A 
ENDBRANCH  10  11
ENDBRANCH   9  10
ENDBRANCH   6   9
ENDBRANCH   1   5
BRANCH   2  18
HETATM   18  C   UNL     1      -3.640   6.399 -30.285  1.00  0.00     0.107 A 
HETATM   19  C   UNL     1      -2.266   6.448 -30.132  1.00  0.00     0.169 A 
HETATM   20  N   UNL     1      -1.990   7.551 -29.318  1.00  0.00    -0.219 N 
HETATM   21  N   UNL     1      -1.278   5.638 -30.627  1.00  0.00    -0.233 NA
HETATM   22  C   UNL     1      -0.669   7.859 -28.957  1.00  0.00     0.036 A 
HETATM   23  N   UNL     1      -3.127   8.204 -28.973  1.00  0.00    -0.170 NA
HETATM   24  C   UNL     1      -0.403   9.034 -28.067  1.00  0.00     0.070 C 
HETATM   25  C   UNL     1       0.332   7.084 -29.414  1.00  0.00     0.053 A 
HETATM   26  C   UNL     1      -0.056   5.938 -30.294  1.00  0.00     0.035 A 
HETATM   27  C   UNL     1       1.055   5.073 -30.835  1.00  0.00     0.070 C 
HETATM   28  C   UNL     1      -4.116   7.516 -29.552  1.00  0.00     0.071 A 
HETATM   29  C   UNL     1      -5.524   7.961 -29.380  1.00  0.00     0.073 C 
ENDBRANCH   2  18
TORSDOF 5
ENDMDL
MODEL 7
REMARK VINA RESULT:      -8.4      2.529     10.184
REMARK  5 active torsions:
REMARK  status: ('A' for Active; 'I' for Inactive)
REMARK    1  A    between atoms: C_5  and  O_6 
REMARK    2  A    between atoms: O_6  and  C_7 
REMARK    3  A    between atoms: C_7  and  C_8 
REMARK       I    between atoms: C_8  and  N_9 
REMARK    4  A    between atoms: N_9  and  N_10 
REMARK       I    between atoms: N_10  and  C_11 
REMARK    5  A    between atoms: C_11  and  C_12 
ROOT
HETATM    1  N   UNL     1      -2.903   3.946 -31.261  1.00  0.00    -0.263 N 
HETATM    2  C   UNL     1      -1.886   4.719 -31.787  1.00  0.00     0.276 C 
HETATM    3  O   UNL     1      -1.577   4.679 -32.976  1.00  0.00    -0.266 OA
HETATM    4  H   UNL     1      -3.070   3.910 -30.252  1.00  0.00     0.190 HD
ENDROOT
BRANCH   1   5
HETATM    5  N   UNL     1      -3.537   2.997 -32.065  1.00  0.00    -0.265 N 
HETATM    6  C   UNL     1      -4.894   3.106 -32.283  1.00  0.00     0.260 C 
HETATM    7  O   UNL     1      -5.571   4.047 -31.871  1.00  0.00    -0.269 OA
HETATM    8  H   UNL     1      -3.011   2.161 -32.318  1.00  0.00     0.190 HD
BRANCH   6   9
HETATM    9  C   UNL     1      -5.506   1.914 -33.012  1.00  0.00     0.280 C 
BRANCH   9  10
HETATM   10  O   UNL     1      -4.714   0.746 -32.818  1.00  0.00    -0.342 OA
BRANCH  10  11
HETATM   11  C   UNL     1      -5.204  -0.397 -33.389  1.00  0.00     0.069 A 
HETATM   12  C   UNL     1      -4.254  -1.381 -33.664  1.00  0.00     0.037 A 
HETATM   13  C   UNL     1      -4.637  -2.596 -34.239  1.00  0.00     0.009 A 
HETATM   14  C   UNL     1      -5.980  -2.842 -34.541  1.00  0.00    -0.062 A 
HETATM   15  C   UNL     1      -6.405  -4.157 -35.124  1.00  0.00     0.048 C 
HETATM   16  C   UNL     1      -6.934  -1.866 -34.232  1.00  0.00     0.009 A 
HETATM   17  C   UNL     1      -6.549  -0.648 -33.661  1.00  0.00     0.037 A 
ENDBRANCH  10  11
ENDBRANCH   9  10
ENDBRANCH   6   9
ENDBRANCH   1   5
BRANCH   2  18
HETATM   18  C   UNL     1      -1.217   5.581 -30.828  1.00  0.00     0.107 A 
HETATM   19  C   UNL     1      -1.782   6.600 -30.082  1.00  0.00     0.169 A 
HETATM   20  N   UNL     1      -0.751   7.157 -29.317  1.00  0.00    -0.219 N 
HETATM   21  N   UNL     1      -3.070   7.062 -30.021  1.00  0.00    -0.233 NA
HETATM   22  C   UNL     1      -1.004   8.241 -28.461  1.00  0.00     0.036 A 
HETATM   23  N   UNL     1       0.424   6.519 -29.536  1.00  0.00    -0.170 NA
HETATM   24  C   UNL     1       0.122   8.831 -27.668  1.00  0.00     0.070 C 
HETATM   25  C   UNL     1      -2.254   8.732 -28.378  1.00  0.00     0.053 A 
HETATM   26  C   UNL     1      -3.295   8.061 -29.218  1.00  0.00     0.035 A 
HETATM   27  C   UNL     1      -4.706   8.582 -29.118  1.00  0.00     0.070 C 
HETATM   28  C   UNL     1       0.146   5.573 -30.440  1.00  0.00     0.071 A 
HETATM   29  C   UNL     1       1.225   4.669 -30.918  1.00  0.00     0.073 C 
ENDBRANCH   2  18
TORSDOF 5
ENDMDL
MODEL 8
REMARK VINA RESULT:      -8.4      2.669      4.524
REMARK  5 active torsions:
REMARK  status: ('A' for Active; 'I' for Inactive)
REMARK    1  A    between atoms: C_5  and  O_6 
REMARK    2  A    between atoms: O_6  and  C_7 
REMARK    3  A    between atoms: C_7  and  C_8 
REMARK       I    between atoms: C_8  and  N_9 
REMARK    4  A    between atoms: N_9  and  N_10 
REMARK       I    between atoms: N_10  and  C_11 
REMARK    5  A    between atoms: C_11  and  C_12 
ROOT
HETATM    1  N   UNL     1      -4.076   3.832 -33.149  1.00  0.00    -0.263 N 
HETATM    2  C   UNL     1      -4.044   2.659 -32.418  1.00  0.00     0.276 C 
HETATM    3  O   UNL     1      -3.069   2.331 -31.744  1.00  0.00    -0.266 OA
HETATM    4  H   UNL     1      -4.848   4.032 -33.789  1.00  0.00     0.190 HD
ENDROOT
BRANCH   1   5
HETATM    5  N   UNL     1      -2.931   4.626 -33.232  1.00  0.00    -0.265 N 
HETATM    6  C   UNL     1      -2.801   5.500 -34.290  1.00  0.00     0.260 C 
HETATM    7  O   UNL     1      -3.682   5.680 -35.130  1.00  0.00    -0.269 OA
HETATM    8  H   UNL     1      -2.155   4.407 -32.608  1.00  0.00     0.190 HD
BRANCH   6   9
HETATM    9  C   UNL     1      -1.433   6.170 -34.380  1.00  0.00     0.280 C 
BRANCH   9  10
HETATM   10  O   UNL     1      -1.490   7.500 -33.874  1.00  0.00    -0.342 OA
BRANCH  10  11
HETATM   11  C   UNL     1      -1.315   7.621 -32.522  1.00  0.00     0.069 A 
HETATM   12  C   UNL     1      -0.238   6.909 -31.993  1.00  0.00     0.037 A 
HETATM   13  C   UNL     1       0.045   6.963 -30.626  1.00  0.00     0.009 A 
HETATM   14  C   UNL     1      -0.746   7.736 -29.771  1.00  0.00    -0.062 A 
HETATM   15  C   UNL     1      -0.426   7.828 -28.308  1.00  0.00     0.048 C 
HETATM   16  C   UNL     1      -1.804   8.475 -30.310  1.00  0.00     0.009 A 
HETATM   17  C   UNL     1      -2.090   8.417 -31.679  1.00  0.00     0.037 A 
ENDBRANCH  10  11
ENDBRANCH   9  10
ENDBRANCH   6   9
ENDBRANCH   1   5
BRANCH   2  18
HETATM   18  C   UNL     1      -5.249   1.854 -32.504  1.00  0.00     0.107 A 
HETATM   19  C   UNL     1      -6.549   2.263 -32.268  1.00  0.00     0.169 A 
HETATM   20  N   UNL     1      -7.365   1.142 -32.455  1.00  0.00    -0.219 N 
HETATM   21  N   UNL     1      -7.056   3.487 -31.916  1.00  0.00    -0.233 NA
HETATM   22  C   UNL     1      -8.753   1.230 -32.266  1.00  0.00     0.036 A 
HETATM   23  N   UNL     1      -6.636   0.059 -32.817  1.00  0.00    -0.170 NA
HETATM   24  C   UNL     1      -9.601   0.009 -32.453  1.00  0.00     0.070 C 
HETATM   25  C   UNL     1      -9.292   2.411 -31.911  1.00  0.00     0.053 A 
HETATM   26  C   UNL     1      -8.346   3.559 -31.752  1.00  0.00     0.035 A 
HETATM   27  C   UNL     1      -8.935   4.896 -31.379  1.00  0.00     0.070 C 
HETATM   28  C   UNL     1      -5.368   0.484 -32.848  1.00  0.00     0.071 A 
HETATM   29  C   UNL     1      -4.281  -0.462 -33.214  1.00  0.00     0.073 C 
ENDBRANCH   2  18
TORSDOF 5
ENDMDL
MODEL 9
REMARK VINA RESULT:      -8.4      1.380      3.007
REMARK  5 active torsions:
REMARK  status: ('A' for Active; 'I' for Inactive)
REMARK    1  A    between atoms: C_5  and  O_6 
REMARK    2  A    between atoms: O_6  and  C_7 
REMARK    3  A    between atoms: C_7  and  C_8 
REMARK       I    between atoms: C_8  and  N_9 
REMARK    4  A    between atoms: N_9  and  N_10 
REMARK       I    between atoms: N_10  and  C_11 
REMARK    5  A    between atoms: C_11  and  C_12 
ROOT
HETATM    1  N   UNL     1      -3.375   2.396 -31.991  1.00  0.00    -0.263 N 
HETATM    2  C   UNL     1      -4.257   1.477 -31.457  1.00  0.00     0.276 C 
HETATM    3  O   UNL     1      -4.860   1.679 -30.404  1.00  0.00    -0.266 OA
HETATM    4  H   UNL     1      -2.801   2.163 -32.806  1.00  0.00     0.190 HD
ENDROOT
BRANCH   1   5
HETATM    5  N   UNL     1      -3.053   3.546 -31.269  1.00  0.00    -0.265 N 
HETATM    6  C   UNL     1      -3.362   4.779 -31.805  1.00  0.00     0.260 C 
HETATM    7  O   UNL     1      -3.983   4.921 -32.857  1.00  0.00    -0.269 OA
HETATM    8  H   UNL     1      -2.446   3.443 -30.456  1.00  0.00     0.190 HD
BRANCH   6   9
HETATM    9  C   UNL     1      -2.794   5.958 -31.023  1.00  0.00     0.280 C 
BRANCH   9  10
HETATM   10  O   UNL     1      -1.377   6.017 -31.161  1.00  0.00    -0.342 OA
BRANCH  10  11
HETATM   11  C   UNL     1      -0.700   6.493 -30.070  1.00  0.00     0.069 A 
HETATM   12  C   UNL     1       0.080   5.552 -29.396  1.00  0.00     0.037 A 
HETATM   13  C   UNL     1       0.823   5.922 -28.273  1.00  0.00     0.009 A 
HETATM   14  C   UNL     1       0.799   7.242 -27.813  1.00  0.00    -0.062 A 
HETATM   15  C   UNL     1       1.624   7.656 -26.630  1.00  0.00     0.048 C 
HETATM   16  C   UNL     1       0.043   8.190 -28.513  1.00  0.00     0.009 A 
HETATM   17  C   UNL     1      -0.706   7.817 -29.634  1.00  0.00     0.037 A 
ENDBRANCH  10  11
ENDBRANCH   9  10
ENDBRANCH   6   9
ENDBRANCH   1   5
BRANCH   2  18
HETATM   18  C   UNL     1      -4.420   0.263 -32.237  1.00  0.00     0.107 A 
HETATM   19  C   UNL     1      -5.484  -0.070 -33.056  1.00  0.00     0.169 A 
HETATM   20  N   UNL     1      -5.207  -1.337 -33.581  1.00  0.00    -0.219 N 
HETATM   21  N   UNL     1      -6.628   0.616 -33.367  1.00  0.00    -0.233 NA
HETATM   22  C   UNL     1      -6.118  -1.968 -34.442  1.00  0.00     0.036 A 
HETATM   23  N   UNL     1      -4.010  -1.799 -33.143  1.00  0.00    -0.170 NA
HETATM   24  C   UNL     1      -5.806  -3.333 -34.974  1.00  0.00     0.070 C 
HETATM   25  C   UNL     1      -7.259  -1.332 -34.767  1.00  0.00     0.053 A 
HETATM   26  C   UNL     1      -7.462   0.026 -34.174  1.00  0.00     0.035 A 
HETATM   27  C   UNL     1      -8.724   0.763 -34.546  1.00  0.00     0.070 C 
HETATM   28  C   UNL     1      -3.537  -0.842 -32.339  1.00  0.00     0.071 A 
HETATM   29  C   UNL     1      -2.220  -1.020 -31.674  1.00  0.00     0.073 C 
ENDBRANCH   2  18
TORSDOF 5
ENDMDL
MODEL 10
REMARK VINA RESULT:      -8.0      4.796      8.302
REMARK  5 active torsions:
REMARK  status: ('A' for Active; 'I' for Inactive)
REMARK    1  A    between atoms: C_5  and  O_6 
REMARK    2  A    between atoms: O_6  and  C_7 
REMARK    3  A    between atoms: C_7  and  C_8 
REMARK       I    between atoms: C_8  and  N_9 
REMARK    4  A    between atoms: N_9  and  N_10 
REMARK       I    between atoms: N_10  and  C_11 
REMARK    5  A    between atoms: C_11  and  C_12 
ROOT
HETATM    1  N   UNL     1      -7.194   1.560 -32.643  1.00  0.00    -0.263 N 
HETATM    2  C   UNL     1      -8.318   2.175 -32.128  1.00  0.00     0.276 C 
HETATM    3  O   UNL     1      -8.544   2.229 -30.920  1.00  0.00    -0.266 OA
HETATM    4  H   UNL     1      -7.081   1.428 -33.651  1.00  0.00     0.190 HD
ENDROOT
BRANCH   1   5
HETATM    5  N   UNL     1      -6.331   0.871 -31.790  1.00  0.00    -0.265 N 
HETATM    6  C   UNL     1      -4.990   1.193 -31.793  1.00  0.00     0.260 C 
HETATM    7  O   UNL     1      -4.520   2.119 -32.453  1.00  0.00    -0.269 OA
HETATM    8  H   UNL     1      -6.688   0.036 -31.326  1.00  0.00     0.190 HD
BRANCH   6   9
HETATM    9  C   UNL     1      -4.120   0.249 -30.969  1.00  0.00     0.280 C 
BRANCH   9  10
HETATM   10  O   UNL     1      -3.093  -0.319 -31.776  1.00  0.00    -0.342 OA
BRANCH  10  11
HETATM   11  C   UNL     1      -3.440  -1.457 -32.453  1.00  0.00     0.069 A 
HETATM   12  C   UNL     1      -3.030  -2.653 -31.860  1.00  0.00     0.037 A 
HETATM   13  C   UNL     1      -3.334  -3.879 -32.455  1.00  0.00     0.009 A 
HETATM   14  C   UNL     1      -4.058  -3.925 -33.651  1.00  0.00    -0.062 A 
HETATM   15  C   UNL     1      -4.420  -5.239 -34.276  1.00  0.00     0.048 C 
HETATM   16  C   UNL     1      -4.497  -2.725 -34.223  1.00  0.00     0.009 A 
HETATM   17  C   UNL     1      -4.187  -1.497 -33.630  1.00  0.00     0.037 A 
ENDBRANCH  10  11
ENDBRANCH   9  10
ENDBRANCH   6   9
ENDBRANCH   1   5
BRANCH   2  18
HETATM   18  C   UNL     1      -9.206   2.754 -33.121  1.00  0.00     0.107 A 
HETATM   19  C   UNL     1     -10.397   2.228 -33.588  1.00  0.00     0.169 A 
HETATM   20  N   UNL     1     -10.886   3.124 -34.545  1.00  0.00    -0.219 N 
HETATM   21  N   UNL     1     -11.062   1.077 -33.257  1.00  0.00    -0.233 NA
HETATM   22  C   UNL     1     -12.084   2.859 -35.225  1.00  0.00     0.036 A 
HETATM   23  N   UNL     1     -10.064   4.194 -34.680  1.00  0.00    -0.170 NA
HETATM   24  C   UNL     1     -12.573   3.825 -36.260  1.00  0.00     0.070 C 
HETATM   25  C   UNL     1     -12.764   1.734 -34.938  1.00  0.00     0.053 A 
HETATM   26  C   UNL     1     -12.177   0.844 -33.888  1.00  0.00     0.035 A 
HETATM   27  C   UNL     1     -12.938  -0.408 -33.536  1.00  0.00     0.070 C 
HETATM   28  C   UNL     1      -9.058   3.974 -33.828  1.00  0.00     0.071 A 
HETATM   29  C   UNL     1      -7.956   4.965 -33.715  1.00  0.00     0.073 C 
ENDBRANCH   2  18
TORSDOF 5
ENDMDL
