MODEL 1
REMARK VINA RESULT:      -9.4      0.000      0.000
REMARK  6 active torsions:
REMARK  status: ('A' for Active; 'I' for Inactive)
REMARK    1  A    between atoms: C_2  and  O_3 
REMARK    2  A    between atoms: O_3  and  C_4 
REMARK    3  A    between atoms: C_5  and  O_6 
REMARK    4  A    between atoms: O_6  and  C_7 
REMARK    5  A    between atoms: C_7  and  C_8 
REMARK    6  A    between atoms: C_16  and  C_17 
ROOT
HETATM    1  C   UNL     1      -5.031   0.964 -32.226  1.00  0.00     0.102 A 
HETATM    2  C   UNL     1      -6.024   1.015 -33.211  1.00  0.00     0.102 A 
HETATM    3  C   UNL     1      -6.278   2.223 -33.866  1.00  0.00     0.040 A 
HETATM    4  C   UNL     1      -5.517   3.360 -33.570  1.00  0.00     0.014 A 
HETATM    5  C   UNL     1      -4.496   3.309 -32.610  1.00  0.00    -0.007 A 
HETATM    6  C   UNL     1      -4.252   2.092 -31.953  1.00  0.00     0.051 A 
ENDROOT
BRANCH   5   7
HETATM    7  C   UNL     1      -3.636   4.523 -32.330  1.00  0.00     0.264 C 
HETATM    8  O   UNL     1      -2.448   4.114 -31.635  1.00  0.00    -0.321 OA
HETATM    9  C   UNL     1      -1.505   5.101 -31.544  1.00  0.00     0.087 A 
HETATM   10  C   UNL     1      -1.434   6.164 -32.444  1.00  0.00     0.065 A 
HETATM   11  C   UNL     1      -0.558   4.988 -30.528  1.00  0.00     0.038 A 
HETATM   12  C   UNL     1      -2.395   6.201 -33.559  1.00  0.00     0.256 C 
HETATM   13  C   UNL     1      -0.437   7.135 -32.321  1.00  0.00     0.020 A 
HETATM   14  O   UNL     1      -2.361   7.054 -34.433  1.00  0.00    -0.267 OA
HETATM   15  N   UNL     1      -3.318   5.193 -33.558  1.00  0.00    -0.326 N 
HETATM   16  H   UNL     1      -4.033   5.275 -34.268  1.00  0.00     0.165 HD
HETATM   17  C   UNL     1       0.498   7.031 -31.291  1.00  0.00     0.001 A 
HETATM   18  C   UNL     1       0.441   5.957 -30.399  1.00  0.00     0.003 A 
ENDBRANCH   5   7
BRANCH   1  19
HETATM   19  O   UNL     1      -4.769  -0.238 -31.621  1.00  0.00    -0.349 OA
BRANCH  19  20
HETATM   20  C   UNL     1      -3.488  -0.298 -30.986  1.00  0.00     0.171 C 
HETATM   21  C   UNL     1      -2.527  -1.058 -31.884  1.00  0.00     0.034 C 
ENDBRANCH  19  20
ENDBRANCH   1  19
BRANCH   2  22
HETATM   22  O   UNL     1      -6.734  -0.136 -33.436  1.00  0.00    -0.344 OA
BRANCH  22  23
HETATM   23  C   UNL     1      -6.613  -0.688 -34.747  1.00  0.00     0.214 C 
BRANCH  23  24
HETATM   24  C   UNL     1      -6.115  -2.111 -34.642  1.00  0.00    -0.034 A 
HETATM   25  C   UNL     1      -6.970  -3.191 -34.900  1.00  0.00     0.009 A 
HETATM   26  C   UNL     1      -6.494  -4.503 -34.836  1.00  0.00     0.001 A 
HETATM   27  C   UNL     1      -5.158  -4.747 -34.521  1.00  0.00     0.000 A 
HETATM   28  C   UNL     1      -4.297  -3.681 -34.270  1.00  0.00     0.001 A 
HETATM   29  C   UNL     1      -4.771  -2.370 -34.332  1.00  0.00     0.009 A 
ENDBRANCH  23  24
ENDBRANCH  22  23
ENDBRANCH   2  22
TORSDOF 6
ENDMDL
MODEL 2
REMARK VINA RESULT:      -9.4      0.992      2.136
REMARK  6 active torsions:
REMARK  status: ('A' for Active; 'I' for Inactive)
REMARK    1  A    between atoms: C_2  and  O_3 
REMARK    2  A    between atoms: O_3  and  C_4 
REMARK    3  A    between atoms: C_5  and  O_6 
REMARK    4  A    between atoms: O_6  and  C_7 
REMARK    5  A    between atoms: C_7  and  C_8 
REMARK    6  A    between atoms: C_16  and  C_17 
ROOT
HETATM    1  C   UNL     1      -6.289   1.904 -33.236  1.00  0.00     0.102 A 
HETATM    2  C   UNL     1      -5.722   0.645 -33.005  1.00  0.00     0.102 A 
HETATM    3  C   UNL     1      -4.395   0.561 -32.574  1.00  0.00     0.040 A 
HETATM    4  C   UNL     1      -3.655   1.725 -32.334  1.00  0.00     0.014 A 
HETATM    5  C   UNL     1      -4.227   2.991 -32.529  1.00  0.00    -0.007 A 
HETATM    6  C   UNL     1      -5.558   3.065 -32.968  1.00  0.00     0.051 A 
ENDROOT
BRANCH   5   7
HETATM    7  C   UNL     1      -3.446   4.249 -32.216  1.00  0.00     0.264 C 
HETATM    8  O   UNL     1      -2.199   3.894 -31.601  1.00  0.00    -0.321 OA
HETATM    9  C   UNL     1      -1.328   4.944 -31.494  1.00  0.00     0.087 A 
HETATM   10  C   UNL     1      -1.381   6.059 -32.330  1.00  0.00     0.065 A 
HETATM   11  C   UNL     1      -0.327   4.847 -30.529  1.00  0.00     0.038 A 
HETATM   12  C   UNL     1      -2.395   6.084 -33.397  1.00  0.00     0.256 C 
HETATM   13  C   UNL     1      -0.454   7.094 -32.194  1.00  0.00     0.020 A 
HETATM   14  O   UNL     1      -2.468   6.985 -34.219  1.00  0.00    -0.267 OA
HETATM   15  N   UNL     1      -3.240   5.010 -33.414  1.00  0.00    -0.326 N 
HETATM   16  H   UNL     1      -3.993   5.077 -34.086  1.00  0.00     0.165 HD
HETATM   17  C   UNL     1       0.536   7.005 -31.215  1.00  0.00     0.001 A 
HETATM   18  C   UNL     1       0.603   5.882 -30.387  1.00  0.00     0.003 A 
ENDBRANCH   5   7
BRANCH   1  19
HETATM   19  O   UNL     1      -7.603   1.970 -33.622  1.00  0.00    -0.349 OA
BRANCH  19  20
HETATM   20  C   UNL     1      -8.435   2.702 -32.717  1.00  0.00     0.171 C 
HETATM   21  C   UNL     1      -8.958   1.755 -31.652  1.00  0.00     0.034 C 
ENDBRANCH  19  20
ENDBRANCH   1  19
BRANCH   2  22
HETATM   22  O   UNL     1      -6.505  -0.447 -33.274  1.00  0.00    -0.344 OA
BRANCH  22  23
HETATM   23  C   UNL     1      -6.395  -0.971 -34.598  1.00  0.00     0.214 C 
BRANCH  23  24
HETATM   24  C   UNL     1      -5.895  -2.395 -34.527  1.00  0.00    -0.034 A 
HETATM   25  C   UNL     1      -6.724  -3.466 -34.891  1.00  0.00     0.009 A 
HETATM   26  C   UNL     1      -6.243  -4.777 -34.856  1.00  0.00     0.001 A 
HETATM   27  C   UNL     1      -4.929  -5.030 -34.467  1.00  0.00     0.000 A 
HETATM   28  C   UNL     1      -4.094  -3.974 -34.111  1.00  0.00     0.001 A 
HETATM   29  C   UNL     1      -4.573  -2.664 -34.143  1.00  0.00     0.009 A 
ENDBRANCH  23  24
ENDBRANCH  22  23
ENDBRANCH   2  22
TORSDOF 6
ENDMDL
MODEL 3
REMARK VINA RESULT:      -8.5      4.837      8.490
REMARK  6 active torsions:
REMARK  status: ('A' for Active; 'I' for Inactive)
REMARK    1  A    between atoms: C_2  and  O_3 
REMARK    2  A    between atoms: O_3  and  C_4 
REMARK    3  A    between atoms: C_5  and  O_6 
REMARK    4  A    between atoms: O_6  and  C_7 
REMARK    5  A    between atoms: C_7  and  C_8 
REMARK    6  A    between atoms: C_16  and  C_17 
ROOT
HETATM    1  C   UNL     1      -9.283   2.282 -31.892  1.00  0.00     0.102 A 
HETATM    2  C   UNL     1      -9.978   2.590 -33.068  1.00  0.00     0.102 A 
HETATM    3  C   UNL     1      -9.674   1.900 -34.244  1.00  0.00     0.040 A 
HETATM    4  C   UNL     1      -8.715   0.881 -34.237  1.00  0.00     0.014 A 
HETATM    5  C   UNL     1      -8.039   0.541 -33.056  1.00  0.00    -0.007 A 
HETATM    6  C   UNL     1      -8.347   1.244 -31.881  1.00  0.00     0.051 A 
ENDROOT
BRANCH   5   7
HETATM    7  C   UNL     1      -7.043  -0.599 -33.035  1.00  0.00     0.264 C 
HETATM    8  O   UNL     1      -7.434  -1.590 -33.997  1.00  0.00    -0.321 OA
HETATM    9  C   UNL     1      -6.476  -2.542 -34.216  1.00  0.00     0.087 A 
HETATM   10  C   UNL     1      -5.119  -2.317 -33.985  1.00  0.00     0.065 A 
HETATM   11  C   UNL     1      -6.898  -3.764 -34.736  1.00  0.00     0.038 A 
HETATM   12  C   UNL     1      -4.702  -0.983 -33.522  1.00  0.00     0.256 C 
HETATM   13  C   UNL     1      -4.179  -3.316 -34.246  1.00  0.00     0.020 A 
HETATM   14  O   UNL     1      -3.530  -0.676 -33.363  1.00  0.00    -0.267 OA
HETATM   15  N   UNL     1      -5.724  -0.103 -33.303  1.00  0.00    -0.326 N 
HETATM   16  H   UNL     1      -5.441   0.778 -32.895  1.00  0.00     0.165 HD
HETATM   17  C   UNL     1      -4.604  -4.545 -34.749  1.00  0.00     0.001 A 
HETATM   18  C   UNL     1      -5.961  -4.768 -34.997  1.00  0.00     0.003 A 
ENDBRANCH   5   7
BRANCH   1  19
HETATM   19  O   UNL     1      -9.620   2.942 -30.739  1.00  0.00    -0.349 OA
BRANCH  19  20
HETATM   20  C   UNL     1      -8.509   3.558 -30.081  1.00  0.00     0.171 C 
HETATM   21  C   UNL     1      -8.168   4.853 -30.797  1.00  0.00     0.034 C 
ENDBRANCH  19  20
ENDBRANCH   1  19
BRANCH   2  22
HETATM   22  O   UNL     1     -10.893   3.609 -32.998  1.00  0.00    -0.344 OA
BRANCH  22  23
HETATM   23  C   UNL     1     -11.808   3.690 -34.091  1.00  0.00     0.214 C 
BRANCH  23  24
HETATM   24  C   UNL     1     -13.048   2.891 -33.760  1.00  0.00    -0.034 A 
HETATM   25  C   UNL     1     -13.449   1.821 -34.572  1.00  0.00     0.009 A 
HETATM   26  C   UNL     1     -14.577   1.065 -34.242  1.00  0.00     0.001 A 
HETATM   27  C   UNL     1     -15.307   1.366 -33.093  1.00  0.00     0.000 A 
HETATM   28  C   UNL     1     -14.914   2.422 -32.275  1.00  0.00     0.001 A 
HETATM   29  C   UNL     1     -13.789   3.179 -32.605  1.00  0.00     0.009 A 
ENDBRANCH  23  24
ENDBRANCH  22  23
ENDBRANCH   2  22
TORSDOF 6
ENDMDL
MODEL 4
REMARK VINA RESULT:      -8.4      2.291      9.034
REMARK  6 active torsions:
REMARK  status: ('A' for Active; 'I' for Inactive)
REMARK    1  A    between atoms: C_2  and  O_3 
REMARK    2  A    between atoms: O_3  and  C_4 
REMARK    3  A    between atoms: C_5  and  O_6 
REMARK    4  A    between atoms: O_6  and  C_7 
REMARK    5  A    between atoms: C_7  and  C_8 
REMARK    6  A    between atoms: C_16  and  C_17 
ROOT
HETATM    1  C   UNL     1      -2.576   4.854 -31.525  1.00  0.00     0.102 A 
HETATM    2  C   UNL     1      -3.418   5.668 -30.757  1.00  0.00     0.102 A 
HETATM    3  C   UNL     1      -4.670   5.184 -30.368  1.00  0.00     0.040 A 
HETATM    4  C   UNL     1      -5.061   3.883 -30.707  1.00  0.00     0.014 A 
HETATM    5  C   UNL     1      -4.209   3.048 -31.445  1.00  0.00    -0.007 A 
HETATM    6  C   UNL     1      -2.956   3.545 -31.836  1.00  0.00     0.051 A 
ENDROOT
BRANCH   5   7
HETATM    7  C   UNL     1      -4.607   1.622 -31.762  1.00  0.00     0.264 C 
HETATM    8  O   UNL     1      -5.337   1.597 -32.998  1.00  0.00    -0.321 OA
HETATM    9  C   UNL     1      -5.537   0.333 -33.484  1.00  0.00     0.087 A 
HETATM   10  C   UNL     1      -4.709  -0.741 -33.161  1.00  0.00     0.065 A 
HETATM   11  C   UNL     1      -6.593   0.152 -34.375  1.00  0.00     0.038 A 
HETATM   12  C   UNL     1      -3.549  -0.492 -32.289  1.00  0.00     0.256 C 
HETATM   13  C   UNL     1      -4.943  -2.007 -33.702  1.00  0.00     0.020 A 
HETATM   14  O   UNL     1      -2.731  -1.357 -32.012  1.00  0.00    -0.267 OA
HETATM   15  N   UNL     1      -3.440   0.790 -31.827  1.00  0.00    -0.326 N 
HETATM   16  H   UNL     1      -2.700   0.934 -31.154  1.00  0.00     0.165 HD
HETATM   17  C   UNL     1      -6.012  -2.192 -34.579  1.00  0.00     0.001 A 
HETATM   18  C   UNL     1      -6.833  -1.114 -34.918  1.00  0.00     0.003 A 
ENDBRANCH   5   7
BRANCH   1  19
HETATM   19  O   UNL     1      -1.336   5.330 -31.865  1.00  0.00    -0.349 OA
BRANCH  19  20
HETATM   20  C   UNL     1      -1.159   5.525 -33.271  1.00  0.00     0.171 C 
HETATM   21  C   UNL     1      -1.336   6.999 -33.592  1.00  0.00     0.034 C 
ENDBRANCH  19  20
ENDBRANCH   1  19
BRANCH   2  22
HETATM   22  O   UNL     1      -2.971   6.933 -30.477  1.00  0.00    -0.344 OA
BRANCH  22  23
HETATM   23  C   UNL     1      -3.025   7.314 -29.102  1.00  0.00     0.214 C 
BRANCH  23  24
HETATM   24  C   UNL     1      -1.624   7.328 -28.536  1.00  0.00    -0.034 A 
HETATM   25  C   UNL     1      -1.377   6.903 -27.223  1.00  0.00     0.009 A 
HETATM   26  C   UNL     1      -0.074   6.885 -26.717  1.00  0.00     0.001 A 
HETATM   27  C   UNL     1       0.993   7.283 -27.521  1.00  0.00     0.000 A 
HETATM   28  C   UNL     1       0.760   7.701 -28.829  1.00  0.00     0.001 A 
HETATM   29  C   UNL     1      -0.540   7.721 -29.335  1.00  0.00     0.009 A 
ENDBRANCH  23  24
ENDBRANCH  22  23
ENDBRANCH   2  22
TORSDOF 6
ENDMDL
MODEL 5
REMARK VINA RESULT:      -8.4      4.167      7.056
REMARK  6 active torsions:
REMARK  status: ('A' for Active; 'I' for Inactive)
REMARK    1  A    between atoms: C_2  and  O_3 
REMARK    2  A    between atoms: O_3  and  C_4 
REMARK    3  A    between atoms: C_5  and  O_6 
REMARK    4  A    between atoms: O_6  and  C_7 
REMARK    5  A    between atoms: C_7  and  C_8 
REMARK    6  A    between atoms: C_16  and  C_17 
ROOT
HETATM    1  C   UNL     1      -7.105   0.700 -31.985  1.00  0.00     0.102 A 
HETATM    2  C   UNL     1      -6.434   0.085 -33.048  1.00  0.00     0.102 A 
HETATM    3  C   UNL     1      -6.953   0.194 -34.341  1.00  0.00     0.040 A 
HETATM    4  C   UNL     1      -8.109   0.948 -34.576  1.00  0.00     0.014 A 
HETATM    5  C   UNL     1      -8.768   1.598 -33.522  1.00  0.00    -0.007 A 
HETATM    6  C   UNL     1      -8.242   1.477 -32.226  1.00  0.00     0.051 A 
ENDROOT
BRANCH   5   7
HETATM    7  C   UNL     1      -9.985   2.460 -33.784  1.00  0.00     0.264 C 
HETATM    8  O   UNL     1      -9.562   3.750 -34.249  1.00  0.00    -0.321 OA
HETATM    9  C   UNL     1     -10.588   4.517 -34.731  1.00  0.00     0.087 A 
HETATM   10  C   UNL     1     -11.772   3.971 -35.224  1.00  0.00     0.065 A 
HETATM   11  C   UNL     1     -10.395   5.897 -34.761  1.00  0.00     0.038 A 
HETATM   12  C   UNL     1     -11.903   2.505 -35.261  1.00  0.00     0.256 C 
HETATM   13  C   UNL     1     -12.781   4.796 -35.727  1.00  0.00     0.020 A 
HETATM   14  O   UNL     1     -12.874   1.940 -35.742  1.00  0.00    -0.267 OA
HETATM   15  N   UNL     1     -10.845   1.818 -34.735  1.00  0.00    -0.326 N 
HETATM   16  H   UNL     1     -10.980   0.817 -34.675  1.00  0.00     0.165 HD
HETATM   17  C   UNL     1     -12.594   6.178 -35.739  1.00  0.00     0.001 A 
HETATM   18  C   UNL     1     -11.401   6.728 -35.260  1.00  0.00     0.003 A 
ENDBRANCH   5   7
BRANCH   1  19
HETATM   19  O   UNL     1      -6.561   0.615 -30.729  1.00  0.00    -0.349 OA
BRANCH  19  20
HETATM   20  C   UNL     1      -6.429   1.878 -30.070  1.00  0.00     0.171 C 
HETATM   21  C   UNL     1      -5.105   2.506 -30.467  1.00  0.00     0.034 C 
ENDBRANCH  19  20
ENDBRANCH   1  19
BRANCH   2  22
HETATM   22  O   UNL     1      -5.317  -0.646 -32.736  1.00  0.00    -0.344 OA
BRANCH  22  23
HETATM   23  C   UNL     1      -4.525  -1.063 -33.849  1.00  0.00     0.214 C 
BRANCH  23  24
HETATM   24  C   UNL     1      -4.631  -2.563 -33.998  1.00  0.00    -0.034 A 
HETATM   25  C   UNL     1      -5.647  -3.136 -34.777  1.00  0.00     0.009 A 
HETATM   26  C   UNL     1      -5.718  -4.522 -34.940  1.00  0.00     0.001 A 
HETATM   27  C   UNL     1      -4.772  -5.347 -34.333  1.00  0.00     0.000 A 
HETATM   28  C   UNL     1      -3.755  -4.789 -33.562  1.00  0.00     0.001 A 
HETATM   29  C   UNL     1      -3.683  -3.405 -33.398  1.00  0.00     0.009 A 
ENDBRANCH  23  24
ENDBRANCH  22  23
ENDBRANCH   2  22
TORSDOF 6
ENDMDL
MODEL 6
REMARK VINA RESULT:      -8.2      2.349      8.859
REMARK  6 active torsions:
REMARK  status: ('A' for Active; 'I' for Inactive)
REMARK    1  A    between atoms: C_2  and  O_3 
REMARK    2  A    between atoms: O_3  and  C_4 
REMARK    3  A    between atoms: C_5  and  O_6 
REMARK    4  A    between atoms: O_6  and  C_7 
REMARK    5  A    between atoms: C_7  and  C_8 
REMARK    6  A    between atoms: C_16  and  C_17 
ROOT
HETATM    1  C   UNL     1      -5.202   2.867 -30.793  1.00  0.00     0.102 A 
HETATM    2  C   UNL     1      -4.105   3.551 -31.332  1.00  0.00     0.102 A 
HETATM    3  C   UNL     1      -3.131   2.837 -32.034  1.00  0.00     0.040 A 
HETATM    4  C   UNL     1      -3.272   1.458 -32.235  1.00  0.00     0.014 A 
HETATM    5  C   UNL     1      -4.386   0.772 -31.729  1.00  0.00    -0.007 A 
HETATM    6  C   UNL     1      -5.357   1.497 -31.020  1.00  0.00     0.051 A 
ENDROOT
BRANCH   5   7
HETATM    7  C   UNL     1      -4.568  -0.708 -31.994  1.00  0.00     0.264 C 
HETATM    8  O   UNL     1      -5.005  -0.898 -33.347  1.00  0.00    -0.321 OA
HETATM    9  C   UNL     1      -4.974  -2.206 -33.749  1.00  0.00     0.087 A 
HETATM   10  C   UNL     1      -4.138  -3.157 -33.164  1.00  0.00     0.065 A 
HETATM   11  C   UNL     1      -5.789  -2.564 -34.822  1.00  0.00     0.038 A 
HETATM   12  C   UNL     1      -3.225  -2.721 -32.095  1.00  0.00     0.256 C 
HETATM   13  C   UNL     1      -4.127  -4.475 -33.627  1.00  0.00     0.020 A 
HETATM   14  O   UNL     1      -2.409  -3.468 -31.577  1.00  0.00    -0.267 OA
HETATM   15  N   UNL     1      -3.342  -1.407 -31.737  1.00  0.00    -0.326 N 
HETATM   16  H   UNL     1      -2.782  -1.136 -30.940  1.00  0.00     0.165 HD
HETATM   17  C   UNL     1      -4.957  -4.836 -34.688  1.00  0.00     0.001 A 
HETATM   18  C   UNL     1      -5.783  -3.882 -35.288  1.00  0.00     0.003 A 
ENDBRANCH   5   7
BRANCH   1  19
HETATM   19  O   UNL     1      -6.168   3.589 -30.140  1.00  0.00    -0.349 OA
BRANCH  19  20
HETATM   20  C   UNL     1      -7.320   3.869 -30.941  1.00  0.00     0.171 C 
HETATM   21  C   UNL     1      -8.567   3.682 -30.096  1.00  0.00     0.034 C 
ENDBRANCH  19  20
ENDBRANCH   1  19
BRANCH   2  22
HETATM   22  O   UNL     1      -4.031   4.897 -31.083  1.00  0.00    -0.344 OA
BRANCH  22  23
HETATM   23  C   UNL     1      -3.220   5.646 -31.989  1.00  0.00     0.214 C 
BRANCH  23  24
HETATM   24  C   UNL     1      -1.979   6.118 -31.269  1.00  0.00    -0.034 A 
HETATM   25  C   UNL     1      -0.708   5.938 -31.835  1.00  0.00     0.009 A 
HETATM   26  C   UNL     1       0.432   6.409 -31.180  1.00  0.00     0.001 A 
HETATM   27  C   UNL     1       0.314   7.070 -29.958  1.00  0.00     0.000 A 
HETATM   28  C   UNL     1      -0.943   7.261 -29.389  1.00  0.00     0.001 A 
HETATM   29  C   UNL     1      -2.083   6.790 -30.042  1.00  0.00     0.009 A 
ENDBRANCH  23  24
ENDBRANCH  22  23
ENDBRANCH   2  22
TORSDOF 6
ENDMDL
MODEL 7
REMARK VINA RESULT:      -8.0      3.593      8.766
REMARK  6 active torsions:
REMARK  status: ('A' for Active; 'I' for Inactive)
REMARK    1  A    between atoms: C_2  and  O_3 
REMARK    2  A    between atoms: O_3  and  C_4 
REMARK    3  A    between atoms: C_5  and  O_6 
REMARK    4  A    between atoms: O_6  and  C_7 
REMARK    5  A    between atoms: C_7  and  C_8 
REMARK    6  A    between atoms: C_16  and  C_17 
ROOT
HETATM    1  C   UNL     1      -5.151   1.163 -32.803  1.00  0.00     0.102 A 
HETATM    2  C   UNL     1      -4.626   2.412 -32.451  1.00  0.00     0.102 A 
HETATM    3  C   UNL     1      -5.495   3.486 -32.239  1.00  0.00     0.040 A 
HETATM    4  C   UNL     1      -6.880   3.304 -32.337  1.00  0.00     0.014 A 
HETATM    5  C   UNL     1      -7.416   2.047 -32.654  1.00  0.00    -0.007 A 
HETATM    6  C   UNL     1      -6.535   0.976 -32.870  1.00  0.00     0.051 A 
ENDROOT
BRANCH   5   7
HETATM    7  C   UNL     1      -8.915   1.836 -32.704  1.00  0.00     0.264 C 
HETATM    8  O   UNL     1      -9.449   2.495 -33.861  1.00  0.00    -0.321 OA
HETATM    9  C   UNL     1     -10.753   2.169 -34.118  1.00  0.00     0.087 A 
HETATM   10  C   UNL     1     -11.333   0.976 -33.686  1.00  0.00     0.065 A 
HETATM   11  C   UNL     1     -11.496   3.064 -34.886  1.00  0.00     0.038 A 
HETATM   12  C   UNL     1     -10.492   0.015 -32.956  1.00  0.00     0.256 C 
HETATM   13  C   UNL     1     -12.663   0.680 -33.995  1.00  0.00     0.020 A 
HETATM   14  O   UNL     1     -10.896  -1.083 -32.604  1.00  0.00    -0.267 OA
HETATM   15  N   UNL     1      -9.212   0.432 -32.719  1.00  0.00    -0.326 N 
HETATM   16  H   UNL     1      -8.667  -0.188 -32.135  1.00  0.00     0.165 HD
HETATM   17  C   UNL     1     -13.411   1.585 -34.748  1.00  0.00     0.001 A 
HETATM   18  C   UNL     1     -12.828   2.773 -35.197  1.00  0.00     0.003 A 
ENDBRANCH   5   7
BRANCH   1  19
HETATM   19  O   UNL     1      -4.287   0.112 -32.969  1.00  0.00    -0.349 OA
BRANCH  19  20
HETATM   20  C   UNL     1      -4.653  -1.058 -32.230  1.00  0.00     0.171 C 
HETATM   21  C   UNL     1      -3.529  -2.075 -32.328  1.00  0.00     0.034 C 
ENDBRANCH  19  20
ENDBRANCH   1  19
BRANCH   2  22
HETATM   22  O   UNL     1      -3.261   2.515 -32.387  1.00  0.00    -0.344 OA
BRANCH  22  23
HETATM   23  C   UNL     1      -2.760   3.522 -31.508  1.00  0.00     0.214 C 
BRANCH  23  24
HETATM   24  C   UNL     1      -2.145   4.634 -32.326  1.00  0.00    -0.034 A 
HETATM   25  C   UNL     1      -1.559   5.744 -31.702  1.00  0.00     0.009 A 
HETATM   26  C   UNL     1      -0.961   6.752 -32.464  1.00  0.00     0.001 A 
HETATM   27  C   UNL     1      -0.936   6.654 -33.854  1.00  0.00     0.000 A 
HETATM   28  C   UNL     1      -1.508   5.552 -34.485  1.00  0.00     0.001 A 
HETATM   29  C   UNL     1      -2.106   4.546 -33.726  1.00  0.00     0.009 A 
ENDBRANCH  23  24
ENDBRANCH  22  23
ENDBRANCH   2  22
TORSDOF 6
ENDMDL
MODEL 8
REMARK VINA RESULT:      -8.0      5.332      8.477
REMARK  6 active torsions:
REMARK  status: ('A' for Active; 'I' for Inactive)
REMARK    1  A    between atoms: C_2  and  O_3 
REMARK    2  A    between atoms: O_3  and  C_4 
REMARK    3  A    between atoms: C_5  and  O_6 
REMARK    4  A    between atoms: O_6  and  C_7 
REMARK    5  A    between atoms: C_7  and  C_8 
REMARK    6  A    between atoms: C_16  and  C_17 
ROOT
HETATM    1  C   UNL     1      -7.711   1.710 -33.353  1.00  0.00     0.102 A 
HETATM    2  C   UNL     1      -7.767   0.314 -33.441  1.00  0.00     0.102 A 
HETATM    3  C   UNL     1      -9.001  -0.331 -33.327  1.00  0.00     0.040 A 
HETATM    4  C   UNL     1     -10.176   0.415 -33.169  1.00  0.00     0.014 A 
HETATM    5  C   UNL     1     -10.133   1.816 -33.115  1.00  0.00    -0.007 A 
HETATM    6  C   UNL     1      -8.888   2.454 -33.226  1.00  0.00     0.051 A 
ENDROOT
BRANCH   5   7
HETATM    7  C   UNL     1     -11.408   2.625 -33.002  1.00  0.00     0.264 C 
HETATM    8  O   UNL     1     -12.533   1.736 -32.963  1.00  0.00    -0.321 OA
HETATM    9  C   UNL     1     -13.706   2.358 -32.629  1.00  0.00     0.087 A 
HETATM   10  C   UNL     1     -13.750   3.544 -31.897  1.00  0.00     0.065 A 
HETATM   11  C   UNL     1     -14.891   1.733 -33.010  1.00  0.00     0.038 A 
HETATM   12  C   UNL     1     -12.480   4.127 -31.433  1.00  0.00     0.256 C 
HETATM   13  C   UNL     1     -14.974   4.127 -31.562  1.00  0.00     0.020 A 
HETATM   14  O   UNL     1     -12.429   5.122 -30.726  1.00  0.00    -0.267 OA
HETATM   15  N   UNL     1     -11.359   3.458 -31.834  1.00  0.00    -0.326 N 
HETATM   16  H   UNL     1     -10.488   3.913 -31.595  1.00  0.00     0.165 HD
HETATM   17  C   UNL     1     -16.160   3.510 -31.960  1.00  0.00     0.001 A 
HETATM   18  C   UNL     1     -16.119   2.313 -32.679  1.00  0.00     0.003 A 
ENDBRANCH   5   7
BRANCH   1  19
HETATM   19  O   UNL     1      -6.497   2.329 -33.505  1.00  0.00    -0.349 OA
BRANCH  19  20
HETATM   20  C   UNL     1      -6.161   3.212 -32.431  1.00  0.00     0.171 C 
HETATM   21  C   UNL     1      -5.503   2.411 -31.321  1.00  0.00     0.034 C 
ENDBRANCH  19  20
ENDBRANCH   1  19
BRANCH   2  22
HETATM   22  O   UNL     1      -6.574  -0.346 -33.583  1.00  0.00    -0.344 OA
BRANCH  22  23
HETATM   23  C   UNL     1      -6.382  -1.007 -34.834  1.00  0.00     0.214 C 
BRANCH  23  24
HETATM   24  C   UNL     1      -5.708  -2.338 -34.593  1.00  0.00    -0.034 A 
HETATM   25  C   UNL     1      -4.536  -2.421 -33.828  1.00  0.00     0.009 A 
HETATM   26  C   UNL     1      -3.938  -3.659 -33.580  1.00  0.00     0.001 A 
HETATM   27  C   UNL     1      -4.509  -4.825 -34.086  1.00  0.00     0.000 A 
HETATM   28  C   UNL     1      -5.677  -4.756 -34.841  1.00  0.00     0.001 A 
HETATM   29  C   UNL     1      -6.275  -3.521 -35.092  1.00  0.00     0.009 A 
ENDBRANCH  23  24
ENDBRANCH  22  23
ENDBRANCH   2  22
TORSDOF 6
ENDMDL
MODEL 9
REMARK VINA RESULT:      -7.7      2.102      2.910
REMARK  6 active torsions:
REMARK  status: ('A' for Active; 'I' for Inactive)
REMARK    1  A    between atoms: C_2  and  O_3 
REMARK    2  A    between atoms: O_3  and  C_4 
REMARK    3  A    between atoms: C_5  and  O_6 
REMARK    4  A    between atoms: O_6  and  C_7 
REMARK    5  A    between atoms: C_7  and  C_8 
REMARK    6  A    between atoms: C_16  and  C_17 
ROOT
HETATM    1  C   UNL     1      -6.000   1.285 -31.674  1.00  0.00     0.102 A 
HETATM    2  C   UNL     1      -4.892   0.581 -32.161  1.00  0.00     0.102 A 
HETATM    3  C   UNL     1      -3.672   1.245 -32.314  1.00  0.00     0.040 A 
HETATM    4  C   UNL     1      -3.548   2.590 -31.943  1.00  0.00     0.014 A 
HETATM    5  C   UNL     1      -4.644   3.293 -31.421  1.00  0.00    -0.007 A 
HETATM    6  C   UNL     1      -5.867   2.619 -31.277  1.00  0.00     0.051 A 
ENDROOT
BRANCH   5   7
HETATM    7  C   UNL     1      -4.497   4.730 -30.968  1.00  0.00     0.264 C 
HETATM    8  O   UNL     1      -3.133   5.144 -31.136  1.00  0.00    -0.321 OA
HETATM    9  C   UNL     1      -2.950   6.490 -30.973  1.00  0.00     0.087 A 
HETATM   10  C   UNL     1      -3.971   7.420 -31.163  1.00  0.00     0.065 A 
HETATM   11  C   UNL     1      -1.666   6.925 -30.648  1.00  0.00     0.038 A 
HETATM   12  C   UNL     1      -5.291   6.930 -31.595  1.00  0.00     0.256 C 
HETATM   13  C   UNL     1      -3.727   8.786 -31.007  1.00  0.00     0.020 A 
HETATM   14  O   UNL     1      -6.221   7.679 -31.855  1.00  0.00    -0.267 OA
HETATM   15  N   UNL     1      -5.393   5.572 -31.706  1.00  0.00    -0.326 N 
HETATM   16  H   UNL     1      -6.324   5.235 -31.910  1.00  0.00     0.165 HD
HETATM   17  C   UNL     1      -2.446   9.220 -30.663  1.00  0.00     0.001 A 
HETATM   18  C   UNL     1      -1.417   8.291 -30.488  1.00  0.00     0.003 A 
ENDBRANCH   5   7
BRANCH   1  19
HETATM   19  O   UNL     1      -7.179   0.609 -31.494  1.00  0.00    -0.349 OA
BRANCH  19  20
HETATM   20  C   UNL     1      -8.322   1.291 -32.020  1.00  0.00     0.171 C 
HETATM   21  C   UNL     1      -8.548   0.843 -33.453  1.00  0.00     0.034 C 
ENDBRANCH  19  20
ENDBRANCH   1  19
BRANCH   2  22
HETATM   22  O   UNL     1      -5.095  -0.728 -32.513  1.00  0.00    -0.344 OA
BRANCH  22  23
HETATM   23  C   UNL     1      -5.413  -0.952 -33.887  1.00  0.00     0.214 C 
BRANCH  23  24
HETATM   24  C   UNL     1      -5.328  -2.433 -34.180  1.00  0.00    -0.034 A 
HETATM   25  C   UNL     1      -4.179  -3.165 -33.850  1.00  0.00     0.009 A 
HETATM   26  C   UNL     1      -4.121  -4.540 -34.091  1.00  0.00     0.001 A 
HETATM   27  C   UNL     1      -5.213  -5.196 -34.655  1.00  0.00     0.000 A 
HETATM   28  C   UNL     1      -6.363  -4.481 -34.981  1.00  0.00     0.001 A 
HETATM   29  C   UNL     1      -6.422  -3.108 -34.742  1.00  0.00     0.009 A 
ENDBRANCH  23  24
ENDBRANCH  22  23
ENDBRANCH   2  22
TORSDOF 6
ENDMDL
MODEL 10
REMARK VINA RESULT:      -7.7      3.643      8.141
REMARK  6 active torsions:
REMARK  status: ('A' for Active; 'I' for Inactive)
REMARK    1  A    between atoms: C_2  and  O_3 
REMARK    2  A    between atoms: O_3  and  C_4 
REMARK    3  A    between atoms: C_5  and  O_6 
REMARK    4  A    between atoms: O_6  and  C_7 
REMARK    5  A    between atoms: C_7  and  C_8 
REMARK    6  A    between atoms: C_16  and  C_17 
ROOT
HETATM    1  C   UNL     1      -7.448   3.291 -33.392  1.00  0.00     0.102 A 
HETATM    2  C   UNL     1      -8.416   3.531 -32.410  1.00  0.00     0.102 A 
HETATM    3  C   UNL     1      -8.786   2.498 -31.545  1.00  0.00     0.040 A 
HETATM    4  C   UNL     1      -8.164   1.247 -31.633  1.00  0.00     0.014 A 
HETATM    5  C   UNL     1      -7.168   1.007 -32.591  1.00  0.00    -0.007 A 
HETATM    6  C   UNL     1      -6.807   2.050 -33.459  1.00  0.00     0.051 A 
ENDROOT
BRANCH   5   7
HETATM    7  C   UNL     1      -6.455  -0.327 -32.650  1.00  0.00     0.264 C 
HETATM    8  O   UNL     1      -6.972  -1.094 -33.747  1.00  0.00    -0.321 OA
HETATM    9  C   UNL     1      -6.235  -2.214 -34.022  1.00  0.00     0.087 A 
HETATM   10  C   UNL     1      -4.887  -2.332 -33.685  1.00  0.00     0.065 A 
HETATM   11  C   UNL     1      -6.871  -3.244 -34.711  1.00  0.00     0.038 A 
HETATM   12  C   UNL     1      -4.225  -1.187 -33.040  1.00  0.00     0.256 C 
HETATM   13  C   UNL     1      -4.172  -3.488 -34.010  1.00  0.00     0.020 A 
HETATM   14  O   UNL     1      -3.032  -1.176 -32.776  1.00  0.00    -0.267 OA
HETATM   15  N   UNL     1      -5.040  -0.123 -32.777  1.00  0.00    -0.326 N 
HETATM   16  H   UNL     1      -4.605   0.622 -32.249  1.00  0.00     0.165 HD
HETATM   17  C   UNL     1      -4.815  -4.527 -34.683  1.00  0.00     0.001 A 
HETATM   18  C   UNL     1      -6.162  -4.404 -35.037  1.00  0.00     0.003 A 
ENDBRANCH   5   7
BRANCH   1  19
HETATM   19  O   UNL     1      -7.069   4.327 -34.207  1.00  0.00    -0.349 OA
BRANCH  19  20
HETATM   20  C   UNL     1      -5.657   4.557 -34.228  1.00  0.00     0.171 C 
HETATM   21  C   UNL     1      -5.329   5.699 -33.282  1.00  0.00     0.034 C 
ENDBRANCH  19  20
ENDBRANCH   1  19
BRANCH   2  22
HETATM   22  O   UNL     1      -8.988   4.777 -32.395  1.00  0.00    -0.344 OA
BRANCH  22  23
HETATM   23  C   UNL     1     -10.390   4.807 -32.126  1.00  0.00     0.214 C 
BRANCH  23  24
HETATM   24  C   UNL     1     -11.134   4.247 -33.316  1.00  0.00    -0.034 A 
HETATM   25  C   UNL     1     -10.843   4.686 -34.616  1.00  0.00     0.009 A 
HETATM   26  C   UNL     1     -11.511   4.138 -35.714  1.00  0.00     0.001 A 
HETATM   27  C   UNL     1     -12.468   3.143 -35.525  1.00  0.00     0.000 A 
HETATM   28  C   UNL     1     -12.761   2.695 -34.240  1.00  0.00     0.001 A 
HETATM   29  C   UNL     1     -12.096   3.242 -33.141  1.00  0.00     0.009 A 
ENDBRANCH  23  24
ENDBRANCH  22  23
ENDBRANCH   2  22
TORSDOF 6
ENDMDL
