MODEL 1
REMARK VINA RESULT:      -8.1      0.000      0.000
REMARK  3 active torsions:
REMARK  status: ('A' for Active; 'I' for Inactive)
REMARK    1  A    between atoms: N_6  and  C_7 
REMARK    2  A    between atoms: C_7  and  C_8 
REMARK    3  A    between atoms: N_10  and  C_11 
ROOT
HETATM    1  C   UNL     1      -5.706  -0.740 -33.071  1.00  0.00     0.073 A 
HETATM    2  C   UNL     1      -6.798  -1.104 -33.893  1.00  0.00     0.062 A 
HETATM    3 CL   UNL     1      -8.216  -0.123 -34.069  1.00  0.00    -0.082 Cl
HETATM    4  C   UNL     1      -6.764  -2.261 -34.688  1.00  0.00     0.026 A 
HETATM    5  C   UNL     1      -5.642  -3.082 -34.701  1.00  0.00     0.003 A 
HETATM    6  C   UNL     1      -4.538  -2.741 -33.929  1.00  0.00     0.025 A 
HETATM    7  C   UNL     1      -4.561  -1.585 -33.128  1.00  0.00     0.072 A 
HETATM    8  C   UNL     1      -3.372  -1.288 -32.369  1.00  0.00     0.102 C 
HETATM    9  N   UNL     1      -2.388  -1.011 -31.813  1.00  0.00    -0.191 NA
ENDROOT
BRANCH   1  10
HETATM   10  N   UNL     1      -5.689   0.366 -32.215  1.00  0.00    -0.378 N 
HETATM   11  C   UNL     1      -5.473   1.685 -32.813  1.00  0.00     0.129 C 
HETATM   12  C   UNL     1      -4.584   2.466 -31.830  1.00  0.00     0.032 C 
HETATM   13  C   UNL     1      -5.324   2.617 -30.489  1.00  0.00     0.009 C 
HETATM   14  C   UNL     1      -5.714   1.239 -29.936  1.00  0.00     0.020 C 
HETATM   15  C   UNL     1      -6.465   0.386 -30.969  1.00  0.00     0.123 C 
BRANCH  12  16
HETATM   16  C   UNL     1      -4.122   3.797 -32.444  1.00  0.00     0.278 C 
BRANCH  16  17
HETATM   17  N   UNL     1      -2.669   3.909 -32.702  1.00  0.00     0.092 N 
HETATM   18  C   UNL     1      -1.951   4.383 -31.498  1.00  0.00     0.300 C 
HETATM   19  C   UNL     1      -2.116   5.891 -31.185  1.00  0.00     0.264 C 
HETATM   20  N   UNL     1      -1.786   6.731 -32.408  1.00  0.00    -0.072 N 
HETATM   21  C   UNL     1      -1.962   8.197 -32.156  1.00  0.00     0.269 C 
HETATM   22  H   UNL     1      -0.793   6.571 -32.620  1.00  0.00     0.279 HD
HETATM   23  C   UNL     1      -2.567   6.271 -33.634  1.00  0.00     0.264 C 
HETATM   24  C   UNL     1      -2.318   4.766 -33.856  1.00  0.00     0.300 C 
ENDBRANCH  16  17
ENDBRANCH  12  16
ENDBRANCH   1  10
TORSDOF 3
ENDMDL
MODEL 2
REMARK VINA RESULT:      -7.7      0.868      1.024
REMARK  3 active torsions:
REMARK  status: ('A' for Active; 'I' for Inactive)
REMARK    1  A    between atoms: N_6  and  C_7 
REMARK    2  A    between atoms: C_7  and  C_8 
REMARK    3  A    between atoms: N_10  and  C_11 
ROOT
HETATM    1  C   UNL     1      -5.745  -0.459 -33.080  1.00  0.00     0.073 A 
HETATM    2  C   UNL     1      -6.819  -0.621 -33.986  1.00  0.00     0.062 A 
HETATM    3 CL   UNL     1      -8.171   0.461 -34.050  1.00  0.00    -0.082 Cl
HETATM    4  C   UNL     1      -6.815  -1.638 -34.953  1.00  0.00     0.026 A 
HETATM    5  C   UNL     1      -5.741  -2.515 -35.060  1.00  0.00     0.003 A 
HETATM    6  C   UNL     1      -4.654  -2.368 -34.207  1.00  0.00     0.025 A 
HETATM    7  C   UNL     1      -4.647  -1.354 -33.233  1.00  0.00     0.072 A 
HETATM    8  C   UNL     1      -3.477  -1.253 -32.397  1.00  0.00     0.102 C 
HETATM    9  N   UNL     1      -2.504  -1.129 -31.771  1.00  0.00    -0.191 NA
ENDROOT
BRANCH   1  10
HETATM   10  N   UNL     1      -5.703   0.495 -32.058  1.00  0.00    -0.378 N 
HETATM   11  C   UNL     1      -5.208   1.832 -32.397  1.00  0.00     0.129 C 
HETATM   12  C   UNL     1      -4.381   2.306 -31.189  1.00  0.00     0.032 C 
HETATM   13  C   UNL     1      -5.293   2.385 -29.952  1.00  0.00     0.009 C 
HETATM   14  C   UNL     1      -5.959   1.026 -29.691  1.00  0.00     0.020 C 
HETATM   15  C   UNL     1      -6.654   0.467 -30.940  1.00  0.00     0.123 C 
BRANCH  12  16
HETATM   16  C   UNL     1      -3.643   3.615 -31.508  1.00  0.00     0.278 C 
BRANCH  16  17
HETATM   17  N   UNL     1      -3.751   4.081 -32.909  1.00  0.00     0.092 N 
HETATM   18  C   UNL     1      -2.415   4.193 -33.536  1.00  0.00     0.300 C 
HETATM   19  C   UNL     1      -1.577   5.414 -33.086  1.00  0.00     0.264 C 
HETATM   20  N   UNL     1      -2.379   6.697 -33.232  1.00  0.00    -0.072 N 
HETATM   21  C   UNL     1      -1.613   7.902 -32.777  1.00  0.00     0.269 C 
HETATM   22  H   UNL     1      -2.574   6.814 -34.234  1.00  0.00     0.279 HD
HETATM   23  C   UNL     1      -3.733   6.595 -32.539  1.00  0.00     0.264 C 
HETATM   24  C   UNL     1      -4.481   5.358 -33.073  1.00  0.00     0.300 C 
ENDBRANCH  16  17
ENDBRANCH  12  16
ENDBRANCH   1  10
TORSDOF 3
ENDMDL
MODEL 3
REMARK VINA RESULT:      -7.6      1.426      2.349
REMARK  3 active torsions:
REMARK  status: ('A' for Active; 'I' for Inactive)
REMARK    1  A    between atoms: N_6  and  C_7 
REMARK    2  A    between atoms: C_7  and  C_8 
REMARK    3  A    between atoms: N_10  and  C_11 
ROOT
HETATM    1  C   UNL     1      -5.611  -0.830 -32.993  1.00  0.00     0.073 A 
HETATM    2  C   UNL     1      -4.514  -1.717 -33.101  1.00  0.00     0.062 A 
HETATM    3 CL   UNL     1      -3.104  -1.601 -32.101  1.00  0.00    -0.082 Cl
HETATM    4  C   UNL     1      -4.537  -2.808 -33.985  1.00  0.00     0.026 A 
HETATM    5  C   UNL     1      -5.652  -3.058 -34.776  1.00  0.00     0.003 A 
HETATM    6  C   UNL     1      -6.761  -2.227 -34.676  1.00  0.00     0.025 A 
HETATM    7  C   UNL     1      -6.749  -1.131 -33.795  1.00  0.00     0.072 A 
HETATM    8  C   UNL     1      -7.942  -0.324 -33.734  1.00  0.00     0.102 C 
HETATM    9  N   UNL     1      -8.930   0.283 -33.633  1.00  0.00    -0.191 NA
ENDROOT
BRANCH   1  10
HETATM   10  N   UNL     1      -5.639   0.304 -32.176  1.00  0.00    -0.378 N 
HETATM   11  C   UNL     1      -5.434   1.607 -32.813  1.00  0.00     0.129 C 
HETATM   12  C   UNL     1      -4.587   2.439 -31.834  1.00  0.00     0.032 C 
HETATM   13  C   UNL     1      -5.366   2.619 -30.519  1.00  0.00     0.009 C 
HETATM   14  C   UNL     1      -5.743   1.252 -29.930  1.00  0.00     0.020 C 
HETATM   15  C   UNL     1      -6.449   0.350 -30.952  1.00  0.00     0.123 C 
BRANCH  12  16
HETATM   16  C   UNL     1      -4.136   3.758 -32.481  1.00  0.00     0.278 C 
BRANCH  16  17
HETATM   17  N   UNL     1      -2.681   3.885 -32.719  1.00  0.00     0.092 N 
HETATM   18  C   UNL     1      -1.985   4.369 -31.506  1.00  0.00     0.300 C 
HETATM   19  C   UNL     1      -2.170   5.874 -31.197  1.00  0.00     0.264 C 
HETATM   20  N   UNL     1      -1.833   6.717 -32.417  1.00  0.00    -0.072 N 
HETATM   21  C   UNL     1      -2.029   8.182 -32.169  1.00  0.00     0.269 C 
HETATM   22  H   UNL     1      -0.835   6.568 -32.615  1.00  0.00     0.279 HD
HETATM   23  C   UNL     1      -2.592   6.247 -33.652  1.00  0.00     0.264 C 
HETATM   24  C   UNL     1      -2.323   4.745 -33.869  1.00  0.00     0.300 C 
ENDBRANCH  16  17
ENDBRANCH  12  16
ENDBRANCH   1  10
TORSDOF 3
ENDMDL
MODEL 4
REMARK VINA RESULT:      -7.5      3.122      8.311
REMARK  3 active torsions:
REMARK  status: ('A' for Active; 'I' for Inactive)
REMARK    1  A    between atoms: N_6  and  C_7 
REMARK    2  A    between atoms: C_7  and  C_8 
REMARK    3  A    between atoms: N_10  and  C_11 
ROOT
HETATM    1  C   UNL     1      -1.152   7.166 -30.792  1.00  0.00     0.073 A 
HETATM    2  C   UNL     1      -1.788   8.299 -30.231  1.00  0.00     0.062 A 
HETATM    3 CL   UNL     1      -3.260   8.964 -30.859  1.00  0.00    -0.082 Cl
HETATM    4  C   UNL     1      -1.298   8.914 -29.068  1.00  0.00     0.026 A 
HETATM    5  C   UNL     1      -0.173   8.415 -28.419  1.00  0.00     0.003 A 
HETATM    6  C   UNL     1       0.460   7.286 -28.924  1.00  0.00     0.025 A 
HETATM    7  C   UNL     1      -0.020   6.662 -30.089  1.00  0.00     0.072 A 
HETATM    8  C   UNL     1       0.679   5.486 -30.541  1.00  0.00     0.102 C 
HETATM    9  N   UNL     1       1.200   4.497 -30.865  1.00  0.00    -0.191 NA
ENDROOT
BRANCH   1  10
HETATM   10  N   UNL     1      -1.551   6.535 -31.974  1.00  0.00    -0.378 N 
HETATM   11  C   UNL     1      -2.721   5.655 -31.914  1.00  0.00     0.129 C 
HETATM   12  C   UNL     1      -2.413   4.463 -32.836  1.00  0.00     0.032 C 
HETATM   13  C   UNL     1      -2.218   4.972 -34.275  1.00  0.00     0.009 C 
HETATM   14  C   UNL     1      -1.107   6.032 -34.320  1.00  0.00     0.020 C 
HETATM   15  C   UNL     1      -1.322   7.148 -33.289  1.00  0.00     0.123 C 
BRANCH  12  16
HETATM   16  C   UNL     1      -3.486   3.371 -32.699  1.00  0.00     0.278 C 
BRANCH  16  17
HETATM   17  N   UNL     1      -3.578   2.734 -31.365  1.00  0.00     0.092 N 
HETATM   18  C   UNL     1      -3.377   1.271 -31.461  1.00  0.00     0.300 C 
HETATM   19  C   UNL     1      -4.575   0.478 -32.037  1.00  0.00     0.264 C 
HETATM   20  N   UNL     1      -5.855   0.825 -31.293  1.00  0.00    -0.072 N 
HETATM   21  C   UNL     1      -7.046   0.100 -31.840  1.00  0.00     0.269 C 
HETATM   22  H   UNL     1      -5.726   0.519 -30.320  1.00  0.00     0.279 HD
HETATM   23  C   UNL     1      -6.084   2.331 -31.243  1.00  0.00     0.264 C 
HETATM   24  C   UNL     1      -4.839   3.012 -30.642  1.00  0.00     0.300 C 
ENDBRANCH  16  17
ENDBRANCH  12  16
ENDBRANCH   1  10
TORSDOF 3
ENDMDL
MODEL 5
REMARK VINA RESULT:      -6.9      2.745      6.847
REMARK  3 active torsions:
REMARK  status: ('A' for Active; 'I' for Inactive)
REMARK    1  A    between atoms: N_6  and  C_7 
REMARK    2  A    between atoms: C_7  and  C_8 
REMARK    3  A    between atoms: N_10  and  C_11 
ROOT
HETATM    1  C   UNL     1      -3.152   5.198 -32.556  1.00  0.00     0.073 A 
HETATM    2  C   UNL     1      -1.748   5.329 -32.432  1.00  0.00     0.062 A 
HETATM    3 CL   UNL     1      -0.918   5.196 -30.917  1.00  0.00    -0.082 Cl
HETATM    4  C   UNL     1      -0.925   5.500 -33.556  1.00  0.00     0.026 A 
HETATM    5  C   UNL     1      -1.468   5.531 -34.836  1.00  0.00     0.003 A 
HETATM    6  C   UNL     1      -2.838   5.375 -35.000  1.00  0.00     0.025 A 
HETATM    7  C   UNL     1      -3.673   5.205 -33.882  1.00  0.00     0.072 A 
HETATM    8  C   UNL     1      -5.082   5.032 -34.133  1.00  0.00     0.102 C 
HETATM    9  N   UNL     1      -6.208   4.822 -34.341  1.00  0.00    -0.191 NA
ENDROOT
BRANCH   1  10
HETATM   10  N   UNL     1      -4.037   5.077 -31.481  1.00  0.00    -0.378 N 
HETATM   11  C   UNL     1      -4.221   3.747 -30.897  1.00  0.00     0.129 C 
HETATM   12  C   UNL     1      -5.714   3.634 -30.539  1.00  0.00     0.032 C 
HETATM   13  C   UNL     1      -6.067   4.712 -29.500  1.00  0.00     0.009 C 
HETATM   14  C   UNL     1      -5.712   6.107 -30.035  1.00  0.00     0.020 C 
HETATM   15  C   UNL     1      -4.266   6.185 -30.545  1.00  0.00     0.123 C 
BRANCH  12  16
HETATM   16  C   UNL     1      -6.067   2.203 -30.102  1.00  0.00     0.278 C 
BRANCH  16  17
HETATM   17  N   UNL     1      -7.074   1.513 -30.941  1.00  0.00     0.092 N 
HETATM   18  C   UNL     1      -6.982   0.045 -30.779  1.00  0.00     0.300 C 
HETATM   19  C   UNL     1      -5.780  -0.622 -31.491  1.00  0.00     0.264 C 
HETATM   20  N   UNL     1      -5.727  -0.210 -32.953  1.00  0.00    -0.072 N 
HETATM   21  C   UNL     1      -4.558  -0.811 -33.672  1.00  0.00     0.269 C 
HETATM   22  H   UNL     1      -6.582  -0.572 -33.395  1.00  0.00     0.279 HD
HETATM   23  C   UNL     1      -5.769   1.306 -33.112  1.00  0.00     0.264 C 
HETATM   24  C   UNL     1      -7.008   1.856 -32.379  1.00  0.00     0.300 C 
ENDBRANCH  16  17
ENDBRANCH  12  16
ENDBRANCH   1  10
TORSDOF 3
ENDMDL
MODEL 6
REMARK VINA RESULT:      -6.6      2.849      4.070
REMARK  3 active torsions:
REMARK  status: ('A' for Active; 'I' for Inactive)
REMARK    1  A    between atoms: N_6  and  C_7 
REMARK    2  A    between atoms: C_7  and  C_8 
REMARK    3  A    between atoms: N_10  and  C_11 
ROOT
HETATM    1  C   UNL     1      -8.667   1.723 -32.665  1.00  0.00     0.073 A 
HETATM    2  C   UNL     1      -9.696   2.395 -31.964  1.00  0.00     0.062 A 
HETATM    3 CL   UNL     1      -9.441   3.190 -30.446  1.00  0.00    -0.082 Cl
HETATM    4  C   UNL     1     -10.986   2.524 -32.503  1.00  0.00     0.026 A 
HETATM    5  C   UNL     1     -11.289   2.005 -33.757  1.00  0.00     0.003 A 
HETATM    6  C   UNL     1     -10.296   1.365 -34.488  1.00  0.00     0.025 A 
HETATM    7  C   UNL     1      -9.000   1.228 -33.959  1.00  0.00     0.072 A 
HETATM    8  C   UNL     1      -8.019   0.569 -34.783  1.00  0.00     0.102 C 
HETATM    9  N   UNL     1      -7.212   0.099 -35.478  1.00  0.00    -0.191 NA
ENDROOT
BRANCH   1  10
HETATM   10  N   UNL     1      -7.376   1.510 -32.171  1.00  0.00    -0.378 N 
HETATM   11  C   UNL     1      -6.474   2.662 -32.107  1.00  0.00     0.129 C 
HETATM   12  C   UNL     1      -5.079   2.140 -32.494  1.00  0.00     0.032 C 
HETATM   13  C   UNL     1      -4.637   1.075 -31.475  1.00  0.00     0.009 C 
HETATM   14  C   UNL     1      -5.671  -0.057 -31.403  1.00  0.00     0.020 C 
HETATM   15  C   UNL     1      -7.096   0.466 -31.177  1.00  0.00     0.123 C 
BRANCH  12  16
HETATM   16  C   UNL     1      -4.084   3.301 -32.658  1.00  0.00     0.278 C 
BRANCH  16  17
HETATM   17  N   UNL     1      -4.690   4.624 -32.929  1.00  0.00     0.092 N 
HETATM   18  C   UNL     1      -4.427   5.054 -34.320  1.00  0.00     0.300 C 
HETATM   19  C   UNL     1      -2.984   5.543 -34.596  1.00  0.00     0.264 C 
HETATM   20  N   UNL     1      -2.577   6.607 -33.589  1.00  0.00    -0.072 N 
HETATM   21  C   UNL     1      -1.174   7.086 -33.803  1.00  0.00     0.269 C 
HETATM   22  H   UNL     1      -3.203   7.409 -33.734  1.00  0.00     0.279 HD
HETATM   23  C   UNL     1      -2.802   6.139 -32.156  1.00  0.00     0.264 C 
HETATM   24  C   UNL     1      -4.268   5.691 -31.994  1.00  0.00     0.300 C 
ENDBRANCH  16  17
ENDBRANCH  12  16
ENDBRANCH   1  10
TORSDOF 3
ENDMDL
MODEL 7
REMARK VINA RESULT:      -6.5      3.528      7.726
REMARK  3 active torsions:
REMARK  status: ('A' for Active; 'I' for Inactive)
REMARK    1  A    between atoms: N_6  and  C_7 
REMARK    2  A    between atoms: C_7  and  C_8 
REMARK    3  A    between atoms: N_10  and  C_11 
ROOT
HETATM    1  C   UNL     1      -3.084   5.726 -32.426  1.00  0.00     0.073 A 
HETATM    2  C   UNL     1      -2.143   6.243 -33.347  1.00  0.00     0.062 A 
HETATM    3 CL   UNL     1      -1.693   5.417 -34.801  1.00  0.00    -0.082 Cl
HETATM    4  C   UNL     1      -1.567   7.511 -33.172  1.00  0.00     0.026 A 
HETATM    5  C   UNL     1      -1.918   8.309 -32.088  1.00  0.00     0.003 A 
HETATM    6  C   UNL     1      -2.862   7.848 -31.179  1.00  0.00     0.025 A 
HETATM    7  C   UNL     1      -3.445   6.579 -31.343  1.00  0.00     0.072 A 
HETATM    8  C   UNL     1      -4.429   6.176 -30.369  1.00  0.00     0.102 C 
HETATM    9  N   UNL     1      -5.273   5.883 -29.624  1.00  0.00    -0.191 NA
ENDROOT
BRANCH   1  10
HETATM   10  N   UNL     1      -3.659   4.454 -32.506  1.00  0.00    -0.378 N 
HETATM   11  C   UNL     1      -4.716   4.246 -33.499  1.00  0.00     0.129 C 
HETATM   12  C   UNL     1      -5.753   3.321 -32.839  1.00  0.00     0.032 C 
HETATM   13  C   UNL     1      -5.088   1.976 -32.498  1.00  0.00     0.009 C 
HETATM   14  C   UNL     1      -3.865   2.199 -31.596  1.00  0.00     0.020 C 
HETATM   15  C   UNL     1      -2.898   3.244 -32.170  1.00  0.00     0.123 C 
BRANCH  12  16
HETATM   16  C   UNL     1      -7.011   3.193 -33.714  1.00  0.00     0.278 C 
BRANCH  16  17
HETATM   17  N   UNL     1      -8.281   3.586 -33.063  1.00  0.00     0.092 N 
HETATM   18  C   UNL     1      -8.424   2.932 -31.743  1.00  0.00     0.300 C 
HETATM   19  C   UNL     1      -8.793   1.430 -31.789  1.00  0.00     0.264 C 
HETATM   20  N   UNL     1     -10.013   1.203 -32.667  1.00  0.00    -0.072 N 
HETATM   21  C   UNL     1     -10.385  -0.244 -32.763  1.00  0.00     0.269 C 
HETATM   22  H   UNL     1     -10.797   1.696 -32.220  1.00  0.00     0.279 HD
HETATM   23  C   UNL     1      -9.838   1.834 -34.044  1.00  0.00     0.264 C 
HETATM   24  C   UNL     1      -9.490   3.326 -33.876  1.00  0.00     0.300 C 
ENDBRANCH  16  17
ENDBRANCH  12  16
ENDBRANCH   1  10
TORSDOF 3
ENDMDL
MODEL 8
REMARK VINA RESULT:      -6.4     15.922     18.044
REMARK  3 active torsions:
REMARK  status: ('A' for Active; 'I' for Inactive)
REMARK    1  A    between atoms: N_6  and  C_7 
REMARK    2  A    between atoms: C_7  and  C_8 
REMARK    3  A    between atoms: N_10  and  C_11 
ROOT
HETATM    1  C   UNL     1      -3.146 -14.516 -41.160  1.00  0.00     0.073 A 
HETATM    2  C   UNL     1      -2.519 -15.486 -41.977  1.00  0.00     0.062 A 
HETATM    3 CL   UNL     1      -1.207 -16.477 -41.430  1.00  0.00    -0.082 Cl
HETATM    4  C   UNL     1      -2.982 -15.762 -43.274  1.00  0.00     0.026 A 
HETATM    5  C   UNL     1      -4.086 -15.094 -43.792  1.00  0.00     0.003 A 
HETATM    6  C   UNL     1      -4.746 -14.156 -43.007  1.00  0.00     0.025 A 
HETATM    7  C   UNL     1      -4.291 -13.870 -41.708  1.00  0.00     0.072 A 
HETATM    8  C   UNL     1      -5.038 -12.899 -40.949  1.00  0.00     0.102 C 
HETATM    9  N   UNL     1      -5.681 -12.167 -40.312  1.00  0.00    -0.191 NA
ENDROOT
BRANCH   1  10
HETATM   10  N   UNL     1      -2.710 -14.151 -39.882  1.00  0.00    -0.378 N 
HETATM   11  C   UNL     1      -3.278 -14.870 -38.739  1.00  0.00     0.129 C 
HETATM   12  C   UNL     1      -3.471 -13.827 -37.624  1.00  0.00     0.032 C 
HETATM   13  C   UNL     1      -2.102 -13.238 -37.241  1.00  0.00     0.009 C 
HETATM   14  C   UNL     1      -1.415 -12.635 -38.475  1.00  0.00     0.020 C 
HETATM   15  C   UNL     1      -1.361 -13.619 -39.652  1.00  0.00     0.123 C 
BRANCH  12  16
HETATM   16  C   UNL     1      -4.249 -14.425 -36.441  1.00  0.00     0.278 C 
BRANCH  16  17
HETATM   17  N   UNL     1      -5.380 -13.608 -35.947  1.00  0.00     0.092 N 
HETATM   18  C   UNL     1      -5.185 -13.235 -34.528  1.00  0.00     0.300 C 
HETATM   19  C   UNL     1      -5.428 -14.374 -33.509  1.00  0.00     0.264 C 
HETATM   20  N   UNL     1      -6.783 -15.023 -33.741  1.00  0.00    -0.072 N 
HETATM   21  C   UNL     1      -7.044 -16.152 -32.793  1.00  0.00     0.269 C 
HETATM   22  H   UNL     1      -7.493 -14.300 -33.565  1.00  0.00     0.279 HD
HETATM   23  C   UNL     1      -6.958 -15.452 -35.194  1.00  0.00     0.264 C 
HETATM   24  C   UNL     1      -6.708 -14.240 -36.113  1.00  0.00     0.300 C 
ENDBRANCH  16  17
ENDBRANCH  12  16
ENDBRANCH   1  10
TORSDOF 3
ENDMDL
MODEL 9
REMARK VINA RESULT:      -6.4      2.875      7.824
REMARK  3 active torsions:
REMARK  status: ('A' for Active; 'I' for Inactive)
REMARK    1  A    between atoms: N_6  and  C_7 
REMARK    2  A    between atoms: C_7  and  C_8 
REMARK    3  A    between atoms: N_10  and  C_11 
ROOT
HETATM    1  C   UNL     1      -2.277   6.279 -31.086  1.00  0.00     0.073 A 
HETATM    2  C   UNL     1      -1.987   6.794 -29.801  1.00  0.00     0.062 A 
HETATM    3 CL   UNL     1      -3.157   6.866 -28.526  1.00  0.00    -0.082 Cl
HETATM    4  C   UNL     1      -0.692   7.212 -29.454  1.00  0.00     0.026 A 
HETATM    5  C   UNL     1       0.354   7.117 -30.366  1.00  0.00     0.003 A 
HETATM    6  C   UNL     1       0.113   6.588 -31.627  1.00  0.00     0.025 A 
HETATM    7  C   UNL     1      -1.180   6.168 -31.987  1.00  0.00     0.072 A 
HETATM    8  C   UNL     1      -1.348   5.613 -33.307  1.00  0.00     0.102 C 
HETATM    9  N   UNL     1      -1.467   5.102 -34.346  1.00  0.00    -0.191 NA
ENDROOT
BRANCH   1  10
HETATM   10  N   UNL     1      -3.550   5.893 -31.519  1.00  0.00    -0.378 N 
HETATM   11  C   UNL     1      -3.964   4.511 -31.268  1.00  0.00     0.129 C 
HETATM   12  C   UNL     1      -4.760   4.065 -32.507  1.00  0.00     0.032 C 
HETATM   13  C   UNL     1      -6.001   4.961 -32.661  1.00  0.00     0.009 C 
HETATM   14  C   UNL     1      -5.587   6.437 -32.748  1.00  0.00     0.020 C 
HETATM   15  C   UNL     1      -4.659   6.853 -31.597  1.00  0.00     0.123 C 
BRANCH  12  16
HETATM   16  C   UNL     1      -5.076   2.562 -32.446  1.00  0.00     0.278 C 
BRANCH  16  17
HETATM   17  N   UNL     1      -6.514   2.213 -32.486  1.00  0.00     0.092 N 
HETATM   18  C   UNL     1      -6.811   1.087 -31.572  1.00  0.00     0.300 C 
HETATM   19  C   UNL     1      -6.353  -0.305 -32.071  1.00  0.00     0.264 C 
HETATM   20  N   UNL     1      -6.869  -0.567 -33.477  1.00  0.00    -0.072 N 
HETATM   21  C   UNL     1      -6.421  -1.893 -34.010  1.00  0.00     0.269 C 
HETATM   22  H   UNL     1      -7.894  -0.586 -33.419  1.00  0.00     0.279 HD
HETATM   23  C   UNL     1      -6.514   0.572 -34.427  1.00  0.00     0.264 C 
HETATM   24  C   UNL     1      -7.029   1.900 -33.838  1.00  0.00     0.300 C 
ENDBRANCH  16  17
ENDBRANCH  12  16
ENDBRANCH   1  10
TORSDOF 3
ENDMDL
MODEL 10
REMARK VINA RESULT:      -6.2      2.171      3.512
REMARK  3 active torsions:
REMARK  status: ('A' for Active; 'I' for Inactive)
REMARK    1  A    between atoms: N_6  and  C_7 
REMARK    2  A    between atoms: C_7  and  C_8 
REMARK    3  A    between atoms: N_10  and  C_11 
ROOT
HETATM    1  C   UNL     1      -7.348   1.315 -32.707  1.00  0.00     0.073 A 
HETATM    2  C   UNL     1      -7.730   0.689 -33.917  1.00  0.00     0.062 A 
HETATM    3 CL   UNL     1      -6.690  -0.382 -34.795  1.00  0.00    -0.082 Cl
HETATM    4  C   UNL     1      -9.022   0.841 -34.444  1.00  0.00     0.026 A 
HETATM    5  C   UNL     1      -9.976   1.605 -33.781  1.00  0.00     0.003 A 
HETATM    6  C   UNL     1      -9.647   2.210 -32.574  1.00  0.00     0.025 A 
HETATM    7  C   UNL     1      -8.355   2.067 -32.037  1.00  0.00     0.072 A 
HETATM    8  C   UNL     1      -8.094   2.710 -30.773  1.00  0.00     0.102 C 
HETATM    9  N   UNL     1      -7.906   3.169 -29.721  1.00  0.00    -0.191 NA
ENDROOT
BRANCH   1  10
HETATM   10  N   UNL     1      -6.067   1.253 -32.149  1.00  0.00    -0.378 N 
HETATM   11  C   UNL     1      -5.338   2.512 -31.977  1.00  0.00     0.129 C 
HETATM   12  C   UNL     1      -3.866   2.208 -32.308  1.00  0.00     0.032 C 
HETATM   13  C   UNL     1      -3.332   1.157 -31.318  1.00  0.00     0.009 C 
HETATM   14  C   UNL     1      -4.201  -0.108 -31.362  1.00  0.00     0.020 C 
HETATM   15  C   UNL     1      -5.694   0.203 -31.193  1.00  0.00     0.123 C 
BRANCH  12  16
HETATM   16  C   UNL     1      -3.036   3.500 -32.357  1.00  0.00     0.278 C 
BRANCH  16  17
HETATM   17  N   UNL     1      -3.244   4.344 -33.556  1.00  0.00     0.092 N 
HETATM   18  C   UNL     1      -1.956   4.855 -34.076  1.00  0.00     0.300 C 
HETATM   19  C   UNL     1      -1.322   6.001 -33.252  1.00  0.00     0.264 C 
HETATM   20  N   UNL     1      -2.325   7.121 -33.030  1.00  0.00    -0.072 N 
HETATM   21  C   UNL     1      -1.759   8.239 -32.209  1.00  0.00     0.269 C 
HETATM   22  H   UNL     1      -2.555   7.503 -33.956  1.00  0.00     0.279 HD
HETATM   23  C   UNL     1      -3.632   6.597 -32.445  1.00  0.00     0.264 C 
HETATM   24  C   UNL     1      -4.177   5.476 -33.351  1.00  0.00     0.300 C 
ENDBRANCH  16  17
ENDBRANCH  12  16
ENDBRANCH   1  10
TORSDOF 3
ENDMDL
