MODEL 1
REMARK VINA RESULT:      -8.3      0.000      0.000
REMARK  6 active torsions:
REMARK  status: ('A' for Active; 'I' for Inactive)
REMARK    1  A    between atoms: C_8  and  N_9 
REMARK       I    between atoms: N_9  and  C_10 
REMARK    2  A    between atoms: C_10  and  C_11 
REMARK    3  A    between atoms: C_11  and  N_12 
REMARK    4  A    between atoms: N_12  and  C_13 
REMARK    5  A    between atoms: C_13  and  C_14 
REMARK    6  A    between atoms: C_15  and  C_16 
ROOT
HETATM    1  N   UNL     1      -3.698   1.442 -32.514  1.00  0.00     0.100 N 
HETATM    2  H   UNL     1      -2.978   0.717 -32.587  1.00  0.00     0.317 HD
ENDROOT
BRANCH   1   3
HETATM    3  C   UNL     1      -3.332   2.286 -31.359  1.00  0.00     0.372 C 
BRANCH   3   4
HETATM    4  C   UNL     1      -3.335   3.786 -31.700  1.00  0.00     0.250 C 
HETATM    5  N   UNL     1      -2.316   4.115 -32.571  1.00  0.00    -0.322 N 
HETATM    6  H   UNL     1      -1.681   3.375 -32.844  1.00  0.00     0.169 HD
HETATM    7  O   UNL     1      -4.161   4.548 -31.207  1.00  0.00    -0.271 OA
BRANCH   5   8
HETATM    8  C   UNL     1      -2.034   5.358 -33.114  1.00  0.00     0.085 A 
HETATM    9  C   UNL     1      -2.682   5.806 -34.252  1.00  0.00     0.052 A 
HETATM   10  C   UNL     1      -3.712   5.197 -35.126  1.00  0.00     0.072 C 
HETATM   11  N   UNL     1      -2.171   7.045 -34.509  1.00  0.00    -0.280 N 
HETATM   12  H   UNL     1      -2.404   7.674 -35.271  1.00  0.00     0.189 HD
HETATM   13  N   UNL     1      -1.255   7.445 -33.626  1.00  0.00    -0.177 NA
HETATM   14  C   UNL     1      -1.154   6.423 -32.762  1.00  0.00     0.079 A 
HETATM   15  C   UNL     1      -0.204   6.563 -31.630  1.00  0.00     0.075 C 
ENDBRANCH   5   8
ENDBRANCH   3   4
ENDBRANCH   1   3
BRANCH   1  16
HETATM   16  C   UNL     1      -4.995   0.771 -32.370  1.00  0.00     0.250 C 
HETATM   17  C   UNL     1      -5.280   0.477 -30.892  1.00  0.00     0.048 C 
BRANCH  16  18
HETATM   18  C   UNL     1      -5.140  -0.497 -33.206  1.00  0.00    -0.011 A 
HETATM   19  C   UNL     1      -6.112  -0.699 -34.217  1.00  0.00     0.056 A 
HETATM   20  C   UNL     1      -6.126  -1.936 -34.902  1.00  0.00     0.017 A 
HETATM   21  C   UNL     1      -5.199  -2.940 -34.623  1.00  0.00     0.001 A 
HETATM   22  C   UNL     1      -4.237  -2.733 -33.646  1.00  0.00     0.001 A 
HETATM   23  C   UNL     1      -4.208  -1.528 -32.948  1.00  0.00     0.010 A 
BRANCH  19  24
HETATM   24  C   UNL     1      -7.189   0.310 -34.585  1.00  0.00     0.418 C 
HETATM   25  F   UNL     1      -6.731   1.514 -35.015  1.00  0.00    -0.166 F 
HETATM   26  F   UNL     1      -7.978  -0.137 -35.613  1.00  0.00    -0.166 F 
HETATM   27  F   UNL     1      -8.064   0.548 -33.566  1.00  0.00    -0.166 F 
ENDBRANCH  19  24
ENDBRANCH  16  18
ENDBRANCH   1  16
TORSDOF 6
ENDMDL
MODEL 2
REMARK VINA RESULT:      -8.2      0.401      1.684
REMARK  6 active torsions:
REMARK  status: ('A' for Active; 'I' for Inactive)
REMARK    1  A    between atoms: C_8  and  N_9 
REMARK       I    between atoms: N_9  and  C_10 
REMARK    2  A    between atoms: C_10  and  C_11 
REMARK    3  A    between atoms: C_11  and  N_12 
REMARK    4  A    between atoms: N_12  and  C_13 
REMARK    5  A    between atoms: C_13  and  C_14 
REMARK    6  A    between atoms: C_15  and  C_16 
ROOT
HETATM    1  N   UNL     1      -3.674   1.121 -32.431  1.00  0.00     0.100 N 
HETATM    2  H   UNL     1      -3.070   0.299 -32.330  1.00  0.00     0.317 HD
ENDROOT
BRANCH   1   3
HETATM    3  C   UNL     1      -3.434   1.970 -31.247  1.00  0.00     0.372 C 
BRANCH   3   4
HETATM    4  C   UNL     1      -3.367   3.466 -31.597  1.00  0.00     0.250 C 
HETATM    5  N   UNL     1      -2.382   3.730 -32.528  1.00  0.00    -0.322 N 
HETATM    6  H   UNL     1      -1.810   2.953 -32.832  1.00  0.00     0.169 HD
HETATM    7  O   UNL     1      -4.116   4.277 -31.062  1.00  0.00    -0.271 OA
BRANCH   5   8
HETATM    8  C   UNL     1      -2.059   4.953 -33.094  1.00  0.00     0.085 A 
HETATM    9  C   UNL     1      -1.050   5.740 -32.570  1.00  0.00     0.052 A 
HETATM   10  C   UNL     1      -0.140   5.567 -31.413  1.00  0.00     0.072 C 
HETATM   11  N   UNL     1      -1.001   6.856 -33.354  1.00  0.00    -0.280 N 
HETATM   12  H   UNL     1      -0.386   7.659 -33.265  1.00  0.00     0.189 HD
HETATM   13  N   UNL     1      -1.886   6.854 -34.352  1.00  0.00    -0.177 NA
HETATM   14  C   UNL     1      -2.548   5.695 -34.210  1.00  0.00     0.079 A 
HETATM   15  C   UNL     1      -3.615   5.381 -35.192  1.00  0.00     0.075 C 
ENDBRANCH   5   8
ENDBRANCH   3   4
ENDBRANCH   1   3
BRANCH   1  16
HETATM   16  C   UNL     1      -5.057   0.646 -32.550  1.00  0.00     0.250 C 
HETATM   17  C   UNL     1      -5.684   0.484 -31.160  1.00  0.00     0.048 C 
BRANCH  16  18
HETATM   18  C   UNL     1      -5.211  -0.638 -33.360  1.00  0.00    -0.011 A 
HETATM   19  C   UNL     1      -6.204  -0.864 -34.345  1.00  0.00     0.056 A 
HETATM   20  C   UNL     1      -6.224  -2.113 -35.008  1.00  0.00     0.017 A 
HETATM   21  C   UNL     1      -5.283  -3.105 -34.732  1.00  0.00     0.001 A 
HETATM   22  C   UNL     1      -4.302  -2.875 -33.780  1.00  0.00     0.001 A 
HETATM   23  C   UNL     1      -4.266  -1.657 -33.104  1.00  0.00     0.010 A 
BRANCH  19  24
HETATM   24  C   UNL     1      -7.296   0.131 -34.707  1.00  0.00     0.418 C 
HETATM   25  F   UNL     1      -6.857   1.324 -35.186  1.00  0.00    -0.166 F 
HETATM   26  F   UNL     1      -8.116  -0.348 -35.696  1.00  0.00    -0.166 F 
HETATM   27  F   UNL     1      -8.138   0.396 -33.667  1.00  0.00    -0.166 F 
ENDBRANCH  19  24
ENDBRANCH  16  18
ENDBRANCH   1  16
TORSDOF 6
ENDMDL
MODEL 3
REMARK VINA RESULT:      -8.2      5.446      7.436
REMARK  6 active torsions:
REMARK  status: ('A' for Active; 'I' for Inactive)
REMARK    1  A    between atoms: C_8  and  N_9 
REMARK       I    between atoms: N_9  and  C_10 
REMARK    2  A    between atoms: C_10  and  C_11 
REMARK    3  A    between atoms: C_11  and  N_12 
REMARK    4  A    between atoms: N_12  and  C_13 
REMARK    5  A    between atoms: C_13  and  C_14 
REMARK    6  A    between atoms: C_15  and  C_16 
ROOT
HETATM    1  N   UNL     1      -8.109  -0.432 -33.188  1.00  0.00     0.100 N 
HETATM    2  H   UNL     1      -8.874  -0.386 -33.868  1.00  0.00     0.317 HD
ENDROOT
BRANCH   1   3
HETATM    3  C   UNL     1      -8.288   0.712 -32.272  1.00  0.00     0.372 C 
BRANCH   3   4
HETATM    4  C   UNL     1      -9.594   1.480 -32.537  1.00  0.00     0.250 C 
HETATM    5  N   UNL     1     -10.262   0.989 -33.641  1.00  0.00    -0.322 N 
HETATM    6  H   UNL     1      -9.818   0.241 -34.158  1.00  0.00     0.169 HD
HETATM    7  O   UNL     1      -9.935   2.419 -31.824  1.00  0.00    -0.271 OA
BRANCH   5   8
HETATM    8  C   UNL     1     -11.476   1.414 -34.154  1.00  0.00     0.085 A 
HETATM    9  C   UNL     1     -11.589   2.619 -34.825  1.00  0.00     0.052 A 
HETATM   10  C   UNL     1     -10.608   3.681 -35.151  1.00  0.00     0.072 C 
HETATM   11  N   UNL     1     -12.901   2.726 -35.185  1.00  0.00    -0.280 N 
HETATM   12  H   UNL     1     -13.354   3.483 -35.687  1.00  0.00     0.189 HD
HETATM   13  N   UNL     1     -13.647   1.684 -34.817  1.00  0.00    -0.177 NA
HETATM   14  C   UNL     1     -12.793   0.868 -34.179  1.00  0.00     0.079 A 
HETATM   15  C   UNL     1     -13.324  -0.411 -33.645  1.00  0.00     0.075 C 
ENDBRANCH   5   8
ENDBRANCH   3   4
ENDBRANCH   1   3
BRANCH   1  16
HETATM   16  C   UNL     1      -6.846  -0.403 -33.934  1.00  0.00     0.250 C 
HETATM   17  C   UNL     1      -7.044   0.291 -35.287  1.00  0.00     0.048 C 
BRANCH  16  18
HETATM   18  C   UNL     1      -6.198  -1.772 -34.124  1.00  0.00    -0.011 A 
HETATM   19  C   UNL     1      -4.931  -2.149 -33.616  1.00  0.00     0.056 A 
HETATM   20  C   UNL     1      -4.460  -3.456 -33.884  1.00  0.00     0.017 A 
HETATM   21  C   UNL     1      -5.219  -4.376 -34.607  1.00  0.00     0.001 A 
HETATM   22  C   UNL     1      -6.467  -4.010 -35.087  1.00  0.00     0.001 A 
HETATM   23  C   UNL     1      -6.950  -2.725 -34.848  1.00  0.00     0.010 A 
BRANCH  19  24
HETATM   24  C   UNL     1      -4.005  -1.223 -32.843  1.00  0.00     0.418 C 
HETATM   25  F   UNL     1      -3.499  -0.184 -33.556  1.00  0.00    -0.166 F 
HETATM   26  F   UNL     1      -4.644  -0.628 -31.787  1.00  0.00    -0.166 F 
HETATM   27  F   UNL     1      -2.952  -1.878 -32.276  1.00  0.00    -0.166 F 
ENDBRANCH  19  24
ENDBRANCH  16  18
ENDBRANCH   1  16
TORSDOF 6
ENDMDL
MODEL 4
REMARK VINA RESULT:      -8.1      1.221      2.342
REMARK  6 active torsions:
REMARK  status: ('A' for Active; 'I' for Inactive)
REMARK    1  A    between atoms: C_8  and  N_9 
REMARK       I    between atoms: N_9  and  C_10 
REMARK    2  A    between atoms: C_10  and  C_11 
REMARK    3  A    between atoms: C_11  and  N_12 
REMARK    4  A    between atoms: N_12  and  C_13 
REMARK    5  A    between atoms: C_13  and  C_14 
REMARK    6  A    between atoms: C_15  and  C_16 
ROOT
HETATM    1  N   UNL     1      -3.871   1.141 -32.397  1.00  0.00     0.100 N 
HETATM    2  H   UNL     1      -3.119   1.105 -33.093  1.00  0.00     0.317 HD
ENDROOT
BRANCH   1   3
HETATM    3  C   UNL     1      -3.397   2.020 -31.309  1.00  0.00     0.372 C 
BRANCH   3   4
HETATM    4  C   UNL     1      -3.402   3.505 -31.707  1.00  0.00     0.250 C 
HETATM    5  N   UNL     1      -2.321   3.824 -32.506  1.00  0.00    -0.322 N 
HETATM    6  H   UNL     1      -1.652   3.089 -32.697  1.00  0.00     0.169 HD
HETATM    7  O   UNL     1      -4.279   4.266 -31.314  1.00  0.00    -0.271 OA
BRANCH   5   8
HETATM    8  C   UNL     1      -2.020   5.052 -33.072  1.00  0.00     0.085 A 
HETATM    9  C   UNL     1      -1.034   5.864 -32.539  1.00  0.00     0.052 A 
HETATM   10  C   UNL     1      -0.133   5.714 -31.372  1.00  0.00     0.072 C 
HETATM   11  N   UNL     1      -1.002   6.979 -33.325  1.00  0.00    -0.280 N 
HETATM   12  H   UNL     1      -0.407   7.796 -33.232  1.00  0.00     0.189 HD
HETATM   13  N   UNL     1      -1.876   6.953 -34.333  1.00  0.00    -0.177 NA
HETATM   14  C   UNL     1      -2.513   5.780 -34.194  1.00  0.00     0.079 A 
HETATM   15  C   UNL     1      -3.562   5.439 -35.187  1.00  0.00     0.075 C 
ENDBRANCH   5   8
ENDBRANCH   3   4
ENDBRANCH   1   3
BRANCH   1  16
HETATM   16  C   UNL     1      -4.148  -0.235 -31.969  1.00  0.00     0.250 C 
HETATM   17  C   UNL     1      -2.836  -0.989 -31.718  1.00  0.00     0.048 C 
BRANCH  16  18
HETATM   18  C   UNL     1      -5.042  -1.020 -32.925  1.00  0.00    -0.011 A 
HETATM   19  C   UNL     1      -6.445  -0.864 -33.040  1.00  0.00     0.056 A 
HETATM   20  C   UNL     1      -7.140  -1.673 -33.969  1.00  0.00     0.017 A 
HETATM   21  C   UNL     1      -6.476  -2.593 -34.782  1.00  0.00     0.001 A 
HETATM   22  C   UNL     1      -5.100  -2.730 -34.681  1.00  0.00     0.001 A 
HETATM   23  C   UNL     1      -4.393  -1.954 -33.765  1.00  0.00     0.010 A 
BRANCH  19  24
HETATM   24  C   UNL     1      -7.276   0.081 -32.187  1.00  0.00     0.418 C 
HETATM   25  F   UNL     1      -8.620  -0.022 -32.350  1.00  0.00    -0.166 F 
HETATM   26  F   UNL     1      -7.082  -0.134 -30.847  1.00  0.00    -0.166 F 
HETATM   27  F   UNL     1      -6.944   1.392 -32.370  1.00  0.00    -0.166 F 
ENDBRANCH  19  24
ENDBRANCH  16  18
ENDBRANCH   1  16
TORSDOF 6
ENDMDL
MODEL 5
REMARK VINA RESULT:      -8.1      5.400      7.318
REMARK  6 active torsions:
REMARK  status: ('A' for Active; 'I' for Inactive)
REMARK    1  A    between atoms: C_8  and  N_9 
REMARK       I    between atoms: N_9  and  C_10 
REMARK    2  A    between atoms: C_10  and  C_11 
REMARK    3  A    between atoms: C_11  and  N_12 
REMARK    4  A    between atoms: N_12  and  C_13 
REMARK    5  A    between atoms: C_13  and  C_14 
REMARK    6  A    between atoms: C_15  and  C_16 
ROOT
HETATM    1  N   UNL     1      -8.259  -0.566 -33.352  1.00  0.00     0.100 N 
HETATM    2  H   UNL     1      -8.968  -0.375 -34.066  1.00  0.00     0.317 HD
ENDROOT
BRANCH   1   3
HETATM    3  C   UNL     1      -8.519   0.366 -32.238  1.00  0.00     0.372 C 
BRANCH   3   4
HETATM    4  C   UNL     1      -9.583   1.420 -32.587  1.00  0.00     0.250 C 
HETATM    5  N   UNL     1     -10.398   1.002 -33.621  1.00  0.00    -0.322 N 
HETATM    6  H   UNL     1     -10.188   0.107 -34.045  1.00  0.00     0.169 HD
HETATM    7  O   UNL     1      -9.636   2.492 -31.992  1.00  0.00    -0.271 OA
BRANCH   5   8
HETATM    8  C   UNL     1     -11.475   1.674 -34.175  1.00  0.00     0.085 A 
HETATM    9  C   UNL     1     -12.746   1.129 -34.158  1.00  0.00     0.052 A 
HETATM   10  C   UNL     1     -13.282  -0.150 -33.635  1.00  0.00     0.072 C 
HETATM   11  N   UNL     1     -13.552   2.037 -34.780  1.00  0.00    -0.280 N 
HETATM   12  H   UNL     1     -14.549   1.973 -34.959  1.00  0.00     0.189 HD
HETATM   13  N   UNL     1     -12.912   3.134 -35.189  1.00  0.00    -0.177 NA
HETATM   14  C   UNL     1     -11.635   2.931 -34.830  1.00  0.00     0.079 A 
HETATM   15  C   UNL     1     -10.649   3.995 -35.142  1.00  0.00     0.075 C 
ENDBRANCH   5   8
ENDBRANCH   3   4
ENDBRANCH   1   3
BRANCH   1  16
HETATM   16  C   UNL     1      -6.941  -0.395 -33.974  1.00  0.00     0.250 C 
HETATM   17  C   UNL     1      -7.083   0.294 -35.337  1.00  0.00     0.048 C 
BRANCH  16  18
HETATM   18  C   UNL     1      -6.138  -1.685 -34.108  1.00  0.00    -0.011 A 
HETATM   19  C   UNL     1      -4.900  -1.943 -33.470  1.00  0.00     0.056 A 
HETATM   20  C   UNL     1      -4.269  -3.188 -33.699  1.00  0.00     0.017 A 
HETATM   21  C   UNL     1      -4.847  -4.164 -34.510  1.00  0.00     0.001 A 
HETATM   22  C   UNL     1      -6.067  -3.917 -35.119  1.00  0.00     0.001 A 
HETATM   23  C   UNL     1      -6.705  -2.694 -34.920  1.00  0.00     0.010 A 
BRANCH  19  24
HETATM   24  C   UNL     1      -4.164  -0.944 -32.590  1.00  0.00     0.418 C 
HETATM   25  F   UNL     1      -4.860  -0.500 -31.512  1.00  0.00    -0.166 F 
HETATM   26  F   UNL     1      -3.020  -1.479 -32.056  1.00  0.00    -0.166 F 
HETATM   27  F   UNL     1      -3.735   0.153 -33.278  1.00  0.00    -0.166 F 
ENDBRANCH  19  24
ENDBRANCH  16  18
ENDBRANCH   1  16
TORSDOF 6
ENDMDL
MODEL 6
REMARK VINA RESULT:      -7.9      1.221      1.663
REMARK  6 active torsions:
REMARK  status: ('A' for Active; 'I' for Inactive)
REMARK    1  A    between atoms: C_8  and  N_9 
REMARK       I    between atoms: N_9  and  C_10 
REMARK    2  A    between atoms: C_10  and  C_11 
REMARK    3  A    between atoms: C_11  and  N_12 
REMARK    4  A    between atoms: N_12  and  C_13 
REMARK    5  A    between atoms: C_13  and  C_14 
REMARK    6  A    between atoms: C_15  and  C_16 
ROOT
HETATM    1  N   UNL     1      -5.008   2.030 -32.566  1.00  0.00     0.100 N 
HETATM    2  H   UNL     1      -4.102   1.739 -32.949  1.00  0.00     0.317 HD
ENDROOT
BRANCH   1   3
HETATM    3  C   UNL     1      -4.720   3.013 -31.504  1.00  0.00     0.372 C 
BRANCH   3   4
HETATM    4  C   UNL     1      -3.471   3.858 -31.803  1.00  0.00     0.250 C 
HETATM    5  N   UNL     1      -3.792   5.038 -32.445  1.00  0.00    -0.322 N 
HETATM    6  H   UNL     1      -4.766   5.190 -32.676  1.00  0.00     0.169 HD
HETATM    7  O   UNL     1      -2.349   3.464 -31.498  1.00  0.00    -0.271 OA
BRANCH   5   8
HETATM    8  C   UNL     1      -2.931   6.049 -32.839  1.00  0.00     0.085 A 
HETATM    9  C   UNL     1      -2.893   7.259 -32.168  1.00  0.00     0.052 A 
HETATM   10  C   UNL     1      -3.647   7.786 -31.006  1.00  0.00     0.072 C 
HETATM   11  N   UNL     1      -1.954   8.013 -32.810  1.00  0.00    -0.280 N 
HETATM   12  H   UNL     1      -1.661   8.962 -32.601  1.00  0.00     0.189 HD
HETATM   13  N   UNL     1      -1.369   7.389 -33.834  1.00  0.00    -0.177 NA
HETATM   14  C   UNL     1      -1.956   6.182 -33.871  1.00  0.00     0.079 A 
HETATM   15  C   UNL     1      -1.511   5.226 -34.914  1.00  0.00     0.075 C 
ENDBRANCH   5   8
ENDBRANCH   3   4
ENDBRANCH   1   3
BRANCH   1  16
HETATM   16  C   UNL     1      -5.698   0.826 -32.090  1.00  0.00     0.250 C 
HETATM   17  C   UNL     1      -5.235   0.474 -30.671  1.00  0.00     0.048 C 
BRANCH  16  18
HETATM   18  C   UNL     1      -5.560  -0.382 -33.013  1.00  0.00    -0.011 A 
HETATM   19  C   UNL     1      -6.402  -0.663 -34.116  1.00  0.00     0.056 A 
HETATM   20  C   UNL     1      -6.153  -1.830 -34.875  1.00  0.00     0.017 A 
HETATM   21  C   UNL     1      -5.092  -2.686 -34.577  1.00  0.00     0.001 A 
HETATM   22  C   UNL     1      -4.258  -2.399 -33.508  1.00  0.00     0.001 A 
HETATM   23  C   UNL     1      -4.488  -1.262 -32.736  1.00  0.00     0.010 A 
BRANCH  19  24
HETATM   24  C   UNL     1      -7.604   0.179 -34.515  1.00  0.00     0.418 C 
HETATM   25  F   UNL     1      -7.337   1.488 -34.762  1.00  0.00    -0.166 F 
HETATM   26  F   UNL     1      -8.182  -0.271 -35.674  1.00  0.00    -0.166 F 
HETATM   27  F   UNL     1      -8.611   0.136 -33.596  1.00  0.00    -0.166 F 
ENDBRANCH  19  24
ENDBRANCH  16  18
ENDBRANCH   1  16
TORSDOF 6
ENDMDL
MODEL 7
REMARK VINA RESULT:      -7.8      4.736      7.439
REMARK  6 active torsions:
REMARK  status: ('A' for Active; 'I' for Inactive)
REMARK    1  A    between atoms: C_8  and  N_9 
REMARK       I    between atoms: N_9  and  C_10 
REMARK    2  A    between atoms: C_10  and  C_11 
REMARK    3  A    between atoms: C_11  and  N_12 
REMARK    4  A    between atoms: N_12  and  C_13 
REMARK    5  A    between atoms: C_13  and  C_14 
REMARK    6  A    between atoms: C_15  and  C_16 
ROOT
HETATM    1  N   UNL     1      -7.089   1.451 -33.336  1.00  0.00     0.100 N 
HETATM    2  H   UNL     1      -7.331   2.216 -32.698  1.00  0.00     0.317 HD
ENDROOT
BRANCH   1   3
HETATM    3  C   UNL     1      -8.093   1.469 -34.418  1.00  0.00     0.372 C 
BRANCH   3   4
HETATM    4  C   UNL     1      -9.466   1.970 -33.940  1.00  0.00     0.250 C 
HETATM    5  N   UNL     1     -10.492   1.476 -34.722  1.00  0.00    -0.322 N 
HETATM    6  H   UNL     1     -10.236   0.899 -35.513  1.00  0.00     0.169 HD
HETATM    7  O   UNL     1      -9.567   2.732 -32.983  1.00  0.00    -0.271 OA
BRANCH   5   8
HETATM    8  C   UNL     1     -11.852   1.691 -34.569  1.00  0.00     0.085 A 
HETATM    9  C   UNL     1     -12.433   2.892 -34.935  1.00  0.00     0.052 A 
HETATM   10  C   UNL     1     -11.878   4.142 -35.506  1.00  0.00     0.072 C 
HETATM   11  N   UNL     1     -13.762   2.766 -34.651  1.00  0.00    -0.280 N 
HETATM   12  H   UNL     1     -14.499   3.453 -34.780  1.00  0.00     0.189 HD
HETATM   13  N   UNL     1     -14.095   1.579 -34.143  1.00  0.00    -0.177 NA
HETATM   14  C   UNL     1     -12.937   0.903 -34.082  1.00  0.00     0.079 A 
HETATM   15  C   UNL     1     -12.970  -0.485 -33.559  1.00  0.00     0.075 C 
ENDBRANCH   5   8
ENDBRANCH   3   4
ENDBRANCH   1   3
BRANCH   1  16
HETATM   16  C   UNL     1      -7.077   0.208 -32.557  1.00  0.00     0.250 C 
HETATM   17  C   UNL     1      -7.625   0.460 -31.147  1.00  0.00     0.048 C 
BRANCH  16  18
HETATM   18  C   UNL     1      -5.715  -0.475 -32.488  1.00  0.00    -0.011 A 
HETATM   19  C   UNL     1      -5.273  -1.499 -33.362  1.00  0.00     0.056 A 
HETATM   20  C   UNL     1      -3.982  -2.043 -33.165  1.00  0.00     0.017 A 
HETATM   21  C   UNL     1      -3.137  -1.580 -32.157  1.00  0.00     0.001 A 
HETATM   22  C   UNL     1      -3.564  -0.566 -31.315  1.00  0.00     0.001 A 
HETATM   23  C   UNL     1      -4.836  -0.020 -31.478  1.00  0.00     0.010 A 
BRANCH  19  24
HETATM   24  C   UNL     1      -6.117  -2.102 -34.474  1.00  0.00     0.418 C 
HETATM   25  F   UNL     1      -7.291  -2.654 -34.074  1.00  0.00    -0.166 F 
HETATM   26  F   UNL     1      -6.485  -1.162 -35.402  1.00  0.00    -0.166 F 
HETATM   27  F   UNL     1      -5.448  -3.046 -35.196  1.00  0.00    -0.166 F 
ENDBRANCH  19  24
ENDBRANCH  16  18
ENDBRANCH   1  16
TORSDOF 6
ENDMDL
MODEL 8
REMARK VINA RESULT:      -7.8      3.164      4.183
REMARK  6 active torsions:
REMARK  status: ('A' for Active; 'I' for Inactive)
REMARK    1  A    between atoms: C_8  and  N_9 
REMARK       I    between atoms: N_9  and  C_10 
REMARK    2  A    between atoms: C_10  and  C_11 
REMARK    3  A    between atoms: C_11  and  N_12 
REMARK    4  A    between atoms: N_12  and  C_13 
REMARK    5  A    between atoms: C_13  and  C_14 
REMARK    6  A    between atoms: C_15  and  C_16 
ROOT
HETATM    1  N   UNL     1      -7.214  -0.263 -32.768  1.00  0.00     0.100 N 
HETATM    2  H   UNL     1      -7.995  -0.925 -32.834  1.00  0.00     0.317 HD
ENDROOT
BRANCH   1   3
HETATM    3  C   UNL     1      -7.810   1.084 -32.674  1.00  0.00     0.372 C 
BRANCH   3   4
HETATM    4  C   UNL     1      -7.048   2.000 -31.701  1.00  0.00     0.250 C 
HETATM    5  N   UNL     1      -6.163   2.827 -32.364  1.00  0.00    -0.322 N 
HETATM    6  H   UNL     1      -6.085   2.715 -33.367  1.00  0.00     0.169 HD
HETATM    7  O   UNL     1      -7.237   1.939 -30.491  1.00  0.00    -0.271 OA
BRANCH   5   8
HETATM    8  C   UNL     1      -5.337   3.795 -31.817  1.00  0.00     0.085 A 
HETATM    9  C   UNL     1      -4.065   3.482 -31.370  1.00  0.00     0.052 A 
HETATM   10  C   UNL     1      -3.300   2.214 -31.328  1.00  0.00     0.072 C 
HETATM   11  N   UNL     1      -3.538   4.649 -30.896  1.00  0.00    -0.280 N 
HETATM   12  H   UNL     1      -2.623   4.801 -30.483  1.00  0.00     0.189 HD
HETATM   13  N   UNL     1      -4.356   5.696 -31.010  1.00  0.00    -0.177 NA
HETATM   14  C   UNL     1      -5.467   5.194 -31.571  1.00  0.00     0.079 A 
HETATM   15  C   UNL     1      -6.589   6.127 -31.844  1.00  0.00     0.075 C 
ENDBRANCH   5   8
ENDBRANCH   3   4
ENDBRANCH   1   3
BRANCH   1  16
HETATM   16  C   UNL     1      -6.366  -0.456 -33.949  1.00  0.00     0.250 C 
HETATM   17  C   UNL     1      -7.112  -0.021 -35.216  1.00  0.00     0.048 C 
BRANCH  16  18
HETATM   18  C   UNL     1      -5.824  -1.873 -34.107  1.00  0.00    -0.011 A 
HETATM   19  C   UNL     1      -4.626  -2.356 -33.523  1.00  0.00     0.056 A 
HETATM   20  C   UNL     1      -4.249  -3.697 -33.769  1.00  0.00     0.017 A 
HETATM   21  C   UNL     1      -5.035  -4.550 -34.544  1.00  0.00     0.001 A 
HETATM   22  C   UNL     1      -6.216  -4.081 -35.099  1.00  0.00     0.001 A 
HETATM   23  C   UNL     1      -6.605  -2.760 -34.883  1.00  0.00     0.010 A 
BRANCH  19  24
HETATM   24  C   UNL     1      -3.678  -1.511 -32.688  1.00  0.00     0.418 C 
HETATM   25  F   UNL     1      -3.115  -0.460 -33.337  1.00  0.00    -0.166 F 
HETATM   26  F   UNL     1      -4.312  -0.943 -31.612  1.00  0.00    -0.166 F 
HETATM   27  F   UNL     1      -2.664  -2.239 -32.137  1.00  0.00    -0.166 F 
ENDBRANCH  19  24
ENDBRANCH  16  18
ENDBRANCH   1  16
TORSDOF 6
ENDMDL
MODEL 9
REMARK VINA RESULT:      -7.6      2.103      2.926
REMARK  6 active torsions:
REMARK  status: ('A' for Active; 'I' for Inactive)
REMARK    1  A    between atoms: C_8  and  N_9 
REMARK       I    between atoms: N_9  and  C_10 
REMARK    2  A    between atoms: C_10  and  C_11 
REMARK    3  A    between atoms: C_11  and  N_12 
REMARK    4  A    between atoms: N_12  and  C_13 
REMARK    5  A    between atoms: C_13  and  C_14 
REMARK    6  A    between atoms: C_15  and  C_16 
ROOT
HETATM    1  N   UNL     1      -7.057   2.166 -32.830  1.00  0.00     0.100 N 
HETATM    2  H   UNL     1      -7.999   2.569 -32.856  1.00  0.00     0.317 HD
ENDROOT
BRANCH   1   3
HETATM    3  C   UNL     1      -6.369   2.619 -34.055  1.00  0.00     0.372 C 
BRANCH   3   4
HETATM    4  C   UNL     1      -5.662   3.972 -33.868  1.00  0.00     0.250 C 
HETATM    5  N   UNL     1      -4.445   3.829 -33.231  1.00  0.00    -0.322 N 
HETATM    6  H   UNL     1      -4.183   2.898 -32.932  1.00  0.00     0.169 HD
HETATM    7  O   UNL     1      -6.180   5.018 -34.245  1.00  0.00    -0.271 OA
BRANCH   5   8
HETATM    8  C   UNL     1      -3.528   4.821 -32.925  1.00  0.00     0.085 A 
HETATM    9  C   UNL     1      -3.591   5.510 -31.726  1.00  0.00     0.052 A 
HETATM   10  C   UNL     1      -4.517   5.432 -30.572  1.00  0.00     0.072 C 
HETATM   11  N   UNL     1      -2.559   6.402 -31.753  1.00  0.00    -0.280 N 
HETATM   12  H   UNL     1      -2.298   7.082 -31.045  1.00  0.00     0.189 HD
HETATM   13  N   UNL     1      -1.822   6.342 -32.863  1.00  0.00    -0.177 NA
HETATM   14  C   UNL     1      -2.401   5.379 -33.597  1.00  0.00     0.079 A 
HETATM   15  C   UNL     1      -1.799   5.056 -34.915  1.00  0.00     0.075 C 
ENDBRANCH   5   8
ENDBRANCH   3   4
ENDBRANCH   1   3
BRANCH   1  16
HETATM   16  C   UNL     1      -7.200   0.709 -32.734  1.00  0.00     0.250 C 
HETATM   17  C   UNL     1      -8.188   0.343 -31.620  1.00  0.00     0.048 C 
BRANCH  16  18
HETATM   18  C   UNL     1      -5.883  -0.039 -32.548  1.00  0.00    -0.011 A 
HETATM   19  C   UNL     1      -5.417  -1.086 -33.381  1.00  0.00     0.056 A 
HETATM   20  C   UNL     1      -4.175  -1.690 -33.074  1.00  0.00     0.017 A 
HETATM   21  C   UNL     1      -3.398  -1.264 -31.996  1.00  0.00     0.001 A 
HETATM   22  C   UNL     1      -3.848  -0.227 -31.194  1.00  0.00     0.001 A 
HETATM   23  C   UNL     1      -5.073   0.378 -31.466  1.00  0.00     0.010 A 
BRANCH  19  24
HETATM   24  C   UNL     1      -6.190  -1.652 -34.561  1.00  0.00     0.418 C 
HETATM   25  F   UNL     1      -6.599  -0.737 -35.477  1.00  0.00    -0.166 F 
HETATM   26  F   UNL     1      -5.438  -2.542 -35.286  1.00  0.00    -0.166 F 
HETATM   27  F   UNL     1      -7.288  -2.367 -34.183  1.00  0.00    -0.166 F 
ENDBRANCH  19  24
ENDBRANCH  16  18
ENDBRANCH   1  16
TORSDOF 6
ENDMDL
MODEL 10
REMARK VINA RESULT:      -7.5      1.985      3.174
REMARK  6 active torsions:
REMARK  status: ('A' for Active; 'I' for Inactive)
REMARK    1  A    between atoms: C_8  and  N_9 
REMARK       I    between atoms: N_9  and  C_10 
REMARK    2  A    between atoms: C_10  and  C_11 
REMARK    3  A    between atoms: C_11  and  N_12 
REMARK    4  A    between atoms: N_12  and  C_13 
REMARK    5  A    between atoms: C_13  and  C_14 
REMARK    6  A    between atoms: C_15  and  C_16 
ROOT
HETATM    1  N   UNL     1      -4.453   0.107 -31.302  1.00  0.00     0.100 N 
HETATM    2  H   UNL     1      -5.283   0.708 -31.315  1.00  0.00     0.317 HD
ENDROOT
BRANCH   1   3
HETATM    3  C   UNL     1      -3.287   1.000 -31.149  1.00  0.00     0.372 C 
BRANCH   3   4
HETATM    4  C   UNL     1      -3.641   2.478 -31.383  1.00  0.00     0.250 C 
HETATM    5  N   UNL     1      -2.940   3.009 -32.448  1.00  0.00    -0.322 N 
HETATM    6  H   UNL     1      -2.269   2.408 -32.909  1.00  0.00     0.169 HD
HETATM    7  O   UNL     1      -4.444   3.061 -30.663  1.00  0.00    -0.271 OA
BRANCH   5   8
HETATM    8  C   UNL     1      -3.025   4.293 -32.961  1.00  0.00     0.085 A 
HETATM    9  C   UNL     1      -2.024   5.222 -32.738  1.00  0.00     0.052 A 
HETATM   10  C   UNL     1      -0.747   5.161 -31.988  1.00  0.00     0.072 C 
HETATM   11  N   UNL     1      -2.425   6.363 -33.371  1.00  0.00    -0.280 N 
HETATM   12  H   UNL     1      -1.945   7.257 -33.417  1.00  0.00     0.189 HD
HETATM   13  N   UNL     1      -3.596   6.249 -33.999  1.00  0.00    -0.177 NA
HETATM   14  C   UNL     1      -3.984   4.986 -33.758  1.00  0.00     0.079 A 
HETATM   15  C   UNL     1      -5.271   4.533 -34.340  1.00  0.00     0.075 C 
ENDBRANCH   5   8
ENDBRANCH   3   4
ENDBRANCH   1   3
BRANCH   1  16
HETATM   16  C   UNL     1      -4.445  -0.670 -32.547  1.00  0.00     0.250 C 
HETATM   17  C   UNL     1      -3.107  -0.495 -33.275  1.00  0.00     0.048 C 
BRANCH  16  18
HETATM   18  C   UNL     1      -5.609  -0.363 -33.484  1.00  0.00    -0.011 A 
HETATM   19  C   UNL     1      -6.224  -1.299 -34.353  1.00  0.00     0.056 A 
HETATM   20  C   UNL     1      -7.290  -0.861 -35.171  1.00  0.00     0.017 A 
HETATM   21  C   UNL     1      -7.760   0.452 -35.123  1.00  0.00     0.001 A 
HETATM   22  C   UNL     1      -7.170   1.361 -34.259  1.00  0.00     0.001 A 
HETATM   23  C   UNL     1      -6.109   0.959 -33.451  1.00  0.00     0.010 A 
BRANCH  19  24
HETATM   24  C   UNL     1      -5.777  -2.744 -34.511  1.00  0.00     0.418 C 
HETATM   25  F   UNL     1      -6.781  -3.656 -34.575  1.00  0.00    -0.166 F 
HETATM   26  F   UNL     1      -5.071  -2.937 -35.670  1.00  0.00    -0.166 F 
HETATM   27  F   UNL     1      -4.925  -3.147 -33.525  1.00  0.00    -0.166 F 
ENDBRANCH  19  24
ENDBRANCH  16  18
ENDBRANCH   1  16
TORSDOF 6
ENDMDL
