MODEL 1
REMARK VINA RESULT:      -9.8      0.000      0.000
REMARK  6 active torsions:
REMARK  status: ('A' for Active; 'I' for Inactive)
REMARK    1  A    between atoms: C_6  and  C_7 
REMARK    2  A    between atoms: C_7  and  N_8 
REMARK    3  A    between atoms: C_12  and  C_13 
REMARK    4  A    between atoms: C_13  and  C_14 
REMARK    5  A    between atoms: N_23  and  C_24 
REMARK    6  A    between atoms: C_24  and  C_25 
ROOT
HETATM    1  C   UNL     1      -6.789   1.698 -32.358  1.00  0.00     0.164 C 
HETATM    2  N   UNL     1      -7.191   2.695 -33.343  1.00  0.00    -0.319 N 
HETATM    3  C   UNL     1      -6.298   3.732 -33.451  1.00  0.00     0.326 C 
HETATM    4  O   UNL     1      -6.334   4.577 -34.326  1.00  0.00    -0.247 OA
HETATM    5  N   UNL     1      -5.403   3.632 -32.437  1.00  0.00    -0.265 N 
HETATM    6  C   UNL     1      -5.592   2.462 -31.759  1.00  0.00     0.263 C 
HETATM    7  O   UNL     1      -4.921   2.070 -30.809  1.00  0.00    -0.270 OA
HETATM    8  H   UNL     1      -7.769   2.456 -34.143  1.00  0.00     0.166 HD
ENDROOT
BRANCH   1   9
HETATM    9  C   UNL     1      -7.980   1.455 -31.360  1.00  0.00     0.033 C 
HETATM   10  C   UNL     1      -8.998   0.377 -31.786  1.00  0.00     0.036 C 
HETATM   11  C   UNL     1     -10.065   0.841 -32.773  1.00  0.00     0.235 C 
HETATM   12  N   UNL     1     -10.725   2.118 -32.318  1.00  0.00    -0.067 N 
HETATM   13  H   UNL     1     -11.309   1.878 -31.508  1.00  0.00     0.280 HD
HETATM   14  C   UNL     1      -9.778   3.211 -31.902  1.00  0.00     0.235 C 
HETATM   15  C   UNL     1      -8.761   2.699 -30.900  1.00  0.00     0.036 C 
BRANCH  12  16
HETATM   16  C   UNL     1     -11.672   2.657 -33.386  1.00  0.00     0.273 C 
BRANCH  16  17
HETATM   17  C   UNL     1     -13.128   2.614 -33.000  1.00  0.00    -0.027 A 
HETATM   18  C   UNL     1     -13.978   1.544 -33.355  1.00  0.00    -0.054 A 
HETATM   19  C   UNL     1     -15.332   1.590 -32.979  1.00  0.00     0.014 A 
HETATM   20  C   UNL     1     -13.503   0.361 -34.156  1.00  0.00     0.049 C 
HETATM   21  C   UNL     1     -15.856   2.676 -32.269  1.00  0.00    -0.061 A 
HETATM   22  C   UNL     1     -17.309   2.724 -31.895  1.00  0.00     0.048 C 
HETATM   23  C   UNL     1     -15.009   3.726 -31.915  1.00  0.00     0.007 A 
HETATM   24  C   UNL     1     -13.661   3.697 -32.276  1.00  0.00     0.010 A 
ENDBRANCH  16  17
ENDBRANCH  12  16
ENDBRANCH   1   9
BRANCH   1  25
HETATM   25  C   UNL     1      -6.392   0.425 -33.106  1.00  0.00     0.072 A 
HETATM   26  N   UNL     1      -5.537  -0.395 -32.432  1.00  0.00    -0.262 NA
HETATM   27  C   UNL     1      -5.155  -1.547 -33.028  1.00  0.00     0.117 A 
HETATM   28  C   UNL     1      -5.567  -1.927 -34.291  1.00  0.00     0.019 A 
HETATM   29  C   UNL     1      -6.423  -1.082 -34.981  1.00  0.00     0.003 A 
HETATM   30  C   UNL     1      -6.844   0.107 -34.387  1.00  0.00     0.030 A 
ENDBRANCH   1  25
BRANCH   5  31
HETATM   31  C   UNL     1      -4.394   4.625 -32.114  1.00  0.00     0.168 C 
BRANCH  31  32
HETATM   32  C   UNL     1      -2.985   4.255 -32.613  1.00  0.00     0.140 C 
HETATM   33  O   UNL     1      -1.967   4.656 -31.662  1.00  0.00    -0.384 OA
HETATM   34  C   UNL     1      -0.854   5.156 -32.422  1.00  0.00     0.168 C 
HETATM   35  C   UNL     1      -1.457   5.780 -33.655  1.00  0.00     0.029 C 
HETATM   36  C   UNL     1      -2.598   4.844 -33.968  1.00  0.00     0.036 C 
ENDBRANCH  31  32
ENDBRANCH   5  31
TORSDOF 6
ENDMDL
MODEL 2
REMARK VINA RESULT:      -9.3      0.337      1.249
REMARK  6 active torsions:
REMARK  status: ('A' for Active; 'I' for Inactive)
REMARK    1  A    between atoms: C_6  and  C_7 
REMARK    2  A    between atoms: C_7  and  N_8 
REMARK    3  A    between atoms: C_12  and  C_13 
REMARK    4  A    between atoms: C_13  and  C_14 
REMARK    5  A    between atoms: N_23  and  C_24 
REMARK    6  A    between atoms: C_24  and  C_25 
ROOT
HETATM    1  C   UNL     1      -6.766   1.754 -32.395  1.00  0.00     0.164 C 
HETATM    2  N   UNL     1      -7.164   2.757 -33.376  1.00  0.00    -0.319 N 
HETATM    3  C   UNL     1      -6.266   3.789 -33.481  1.00  0.00     0.326 C 
HETATM    4  O   UNL     1      -6.297   4.638 -34.353  1.00  0.00    -0.247 OA
HETATM    5  N   UNL     1      -5.370   3.680 -32.468  1.00  0.00    -0.265 N 
HETATM    6  C   UNL     1      -5.565   2.509 -31.795  1.00  0.00     0.263 C 
HETATM    7  O   UNL     1      -4.896   2.109 -30.846  1.00  0.00    -0.270 OA
HETATM    8  H   UNL     1      -7.744   2.525 -34.177  1.00  0.00     0.166 HD
ENDROOT
BRANCH   1   9
HETATM    9  C   UNL     1      -7.958   1.513 -31.398  1.00  0.00     0.033 C 
HETATM   10  C   UNL     1      -9.010   0.480 -31.850  1.00  0.00     0.036 C 
HETATM   11  C   UNL     1     -10.068   1.005 -32.814  1.00  0.00     0.235 C 
HETATM   12  N   UNL     1     -10.689   2.286 -32.315  1.00  0.00    -0.067 N 
HETATM   13  H   UNL     1     -11.274   2.037 -31.509  1.00  0.00     0.280 HD
HETATM   14  C   UNL     1      -9.707   3.337 -31.871  1.00  0.00     0.235 C 
HETATM   15  C   UNL     1      -8.701   2.764 -30.893  1.00  0.00     0.036 C 
BRANCH  12  16
HETATM   16  C   UNL     1     -11.626   2.885 -33.359  1.00  0.00     0.273 C 
BRANCH  16  17
HETATM   17  C   UNL     1     -13.081   2.868 -32.967  1.00  0.00    -0.027 A 
HETATM   18  C   UNL     1     -13.696   3.937 -32.280  1.00  0.00    -0.054 A 
HETATM   19  C   UNL     1     -15.054   3.834 -31.927  1.00  0.00     0.014 A 
HETATM   20  C   UNL     1     -12.949   5.179 -31.872  1.00  0.00     0.049 C 
HETATM   21  C   UNL     1     -15.804   2.694 -32.234  1.00  0.00    -0.061 A 
HETATM   22  C   UNL     1     -17.246   2.587 -31.831  1.00  0.00     0.048 C 
HETATM   23  C   UNL     1     -15.191   1.645 -32.920  1.00  0.00     0.007 A 
HETATM   24  C   UNL     1     -13.846   1.729 -33.282  1.00  0.00     0.010 A 
ENDBRANCH  16  17
ENDBRANCH  12  16
ENDBRANCH   1   9
BRANCH   1  25
HETATM   25  C   UNL     1      -6.378   0.482 -33.149  1.00  0.00     0.072 A 
HETATM   26  N   UNL     1      -5.536  -0.351 -32.474  1.00  0.00    -0.262 NA
HETATM   27  C   UNL     1      -5.161  -1.504 -33.075  1.00  0.00     0.117 A 
HETATM   28  C   UNL     1      -5.568  -1.872 -34.343  1.00  0.00     0.019 A 
HETATM   29  C   UNL     1      -6.411  -1.013 -35.033  1.00  0.00     0.003 A 
HETATM   30  C   UNL     1      -6.824   0.177 -34.435  1.00  0.00     0.030 A 
ENDBRANCH   1  25
BRANCH   5  31
HETATM   31  C   UNL     1      -4.355   4.667 -32.142  1.00  0.00     0.168 C 
BRANCH  31  32
HETATM   32  C   UNL     1      -2.961   4.322 -32.698  1.00  0.00     0.140 C 
HETATM   33  O   UNL     1      -1.951   4.376 -31.660  1.00  0.00    -0.384 OA
HETATM   34  C   UNL     1      -0.776   4.961 -32.246  1.00  0.00     0.168 C 
HETATM   35  C   UNL     1      -1.284   5.931 -33.283  1.00  0.00     0.029 C 
HETATM   36  C   UNL     1      -2.481   5.206 -33.846  1.00  0.00     0.036 C 
ENDBRANCH  31  32
ENDBRANCH   5  31
TORSDOF 6
ENDMDL
MODEL 3
REMARK VINA RESULT:      -9.2      1.862      4.943
REMARK  6 active torsions:
REMARK  status: ('A' for Active; 'I' for Inactive)
REMARK    1  A    between atoms: C_6  and  C_7 
REMARK    2  A    between atoms: C_7  and  N_8 
REMARK    3  A    between atoms: C_12  and  C_13 
REMARK    4  A    between atoms: C_13  and  C_14 
REMARK    5  A    between atoms: N_23  and  C_24 
REMARK    6  A    between atoms: C_24  and  C_25 
ROOT
HETATM    1  C   UNL     1      -6.179   1.721 -32.419  1.00  0.00     0.164 C 
HETATM    2  N   UNL     1      -5.110   0.915 -31.843  1.00  0.00    -0.319 N 
HETATM    3  C   UNL     1      -4.703  -0.104 -32.667  1.00  0.00     0.326 C 
HETATM    4  O   UNL     1      -3.714  -0.786 -32.475  1.00  0.00    -0.247 OA
HETATM    5  N   UNL     1      -5.580  -0.194 -33.698  1.00  0.00    -0.265 N 
HETATM    6  C   UNL     1      -6.463   0.845 -33.654  1.00  0.00     0.263 C 
HETATM    7  O   UNL     1      -7.359   1.058 -34.466  1.00  0.00    -0.270 OA
HETATM    8  H   UNL     1      -4.453   1.297 -31.169  1.00  0.00     0.166 HD
ENDROOT
BRANCH   1   9
HETATM    9  C   UNL     1      -7.364   1.812 -31.389  1.00  0.00     0.033 C 
HETATM   10  C   UNL     1      -8.278   0.571 -31.312  1.00  0.00     0.036 C 
HETATM   11  C   UNL     1      -9.360   0.489 -32.382  1.00  0.00     0.235 C 
HETATM   12  N   UNL     1     -10.137   1.777 -32.487  1.00  0.00    -0.067 N 
HETATM   13  H   UNL     1     -10.714   1.845 -31.641  1.00  0.00     0.280 HD
HETATM   14  C   UNL     1      -9.296   3.022 -32.579  1.00  0.00     0.235 C 
HETATM   15  C   UNL     1      -8.260   3.062 -31.474  1.00  0.00     0.036 C 
BRANCH  12  16
HETATM   16  C   UNL     1     -11.105   1.740 -33.665  1.00  0.00     0.273 C 
BRANCH  16  17
HETATM   17  C   UNL     1     -12.551   1.925 -33.284  1.00  0.00    -0.027 A 
HETATM   18  C   UNL     1     -13.497   0.879 -33.355  1.00  0.00    -0.054 A 
HETATM   19  C   UNL     1     -14.835   1.139 -33.006  1.00  0.00     0.014 A 
HETATM   20  C   UNL     1     -13.143  -0.506 -33.828  1.00  0.00     0.049 C 
HETATM   21  C   UNL     1     -15.248   2.411 -32.597  1.00  0.00    -0.061 A 
HETATM   22  C   UNL     1     -16.683   2.680 -32.250  1.00  0.00     0.048 C 
HETATM   23  C   UNL     1     -14.307   3.437 -32.522  1.00  0.00     0.007 A 
HETATM   24  C   UNL     1     -12.974   3.199 -32.861  1.00  0.00     0.010 A 
ENDBRANCH  16  17
ENDBRANCH  12  16
ENDBRANCH   1   9
BRANCH   1  25
HETATM   25  C   UNL     1      -5.604   3.096 -32.760  1.00  0.00     0.072 A 
HETATM   26  N   UNL     1      -4.860   3.669 -31.772  1.00  0.00    -0.262 NA
HETATM   27  C   UNL     1      -4.308   4.881 -32.010  1.00  0.00     0.117 A 
HETATM   28  C   UNL     1      -4.475   5.578 -33.191  1.00  0.00     0.019 A 
HETATM   29  C   UNL     1      -5.246   4.999 -34.187  1.00  0.00     0.003 A 
HETATM   30  C   UNL     1      -5.819   3.746 -33.976  1.00  0.00     0.030 A 
ENDBRANCH   1  25
BRANCH   5  31
HETATM   31  C   UNL     1      -5.584  -1.246 -34.700  1.00  0.00     0.168 C 
BRANCH  31  32
HETATM   32  C   UNL     1      -5.819  -2.651 -34.115  1.00  0.00     0.140 C 
HETATM   33  O   UNL     1      -4.671  -3.510 -34.333  1.00  0.00    -0.384 OA
HETATM   34  C   UNL     1      -5.178  -4.815 -34.658  1.00  0.00     0.168 C 
HETATM   35  C   UNL     1      -6.475  -4.573 -35.389  1.00  0.00     0.029 C 
HETATM   36  C   UNL     1      -7.044  -3.385 -34.654  1.00  0.00     0.036 C 
ENDBRANCH  31  32
ENDBRANCH   5  31
TORSDOF 6
ENDMDL
MODEL 4
REMARK VINA RESULT:      -9.0      3.136      8.774
REMARK  6 active torsions:
REMARK  status: ('A' for Active; 'I' for Inactive)
REMARK    1  A    between atoms: C_6  and  C_7 
REMARK    2  A    between atoms: C_7  and  N_8 
REMARK    3  A    between atoms: C_12  and  C_13 
REMARK    4  A    between atoms: C_13  and  C_14 
REMARK    5  A    between atoms: N_23  and  C_24 
REMARK    6  A    between atoms: C_24  and  C_25 
ROOT
HETATM    1  C   UNL     1      -9.372   3.865 -31.764  1.00  0.00     0.164 C 
HETATM    2  N   UNL     1      -9.297   3.654 -33.205  1.00  0.00    -0.319 N 
HETATM    3  C   UNL     1     -10.517   3.758 -33.826  1.00  0.00     0.326 C 
HETATM    4  O   UNL     1     -10.669   3.799 -35.032  1.00  0.00    -0.247 OA
HETATM    5  N   UNL     1     -11.478   3.811 -32.871  1.00  0.00    -0.265 N 
HETATM    6  C   UNL     1     -10.907   3.904 -31.635  1.00  0.00     0.263 C 
HETATM    7  O   UNL     1     -11.513   3.997 -30.571  1.00  0.00    -0.270 OA
HETATM    8  H   UNL     1      -8.455   3.858 -33.734  1.00  0.00     0.166 HD
ENDROOT
BRANCH   1   9
HETATM    9  C   UNL     1      -8.680   2.656 -31.034  1.00  0.00     0.033 C 
HETATM   10  C   UNL     1      -7.140   2.710 -30.964  1.00  0.00     0.036 C 
HETATM   11  C   UNL     1      -6.413   2.227 -32.214  1.00  0.00     0.235 C 
HETATM   12  N   UNL     1      -6.927   0.886 -32.673  1.00  0.00    -0.067 N 
HETATM   13  H   UNL     1      -6.604   0.194 -31.988  1.00  0.00     0.280 HD
HETATM   14  C   UNL     1      -8.425   0.780 -32.773  1.00  0.00     0.235 C 
HETATM   15  C   UNL     1      -9.090   1.244 -31.492  1.00  0.00     0.036 C 
BRANCH  12  16
HETATM   16  C   UNL     1      -6.308   0.490 -34.010  1.00  0.00     0.273 C 
BRANCH  16  17
HETATM   17  C   UNL     1      -5.873  -0.951 -34.087  1.00  0.00    -0.027 A 
HETATM   18  C   UNL     1      -4.612  -1.391 -33.629  1.00  0.00    -0.054 A 
HETATM   19  C   UNL     1      -4.270  -2.749 -33.759  1.00  0.00     0.014 A 
HETATM   20  C   UNL     1      -3.592  -0.456 -33.035  1.00  0.00     0.049 C 
HETATM   21  C   UNL     1      -5.149  -3.670 -34.339  1.00  0.00    -0.061 A 
HETATM   22  C   UNL     1      -4.763  -5.112 -34.494  1.00  0.00     0.048 C 
HETATM   23  C   UNL     1      -6.396  -3.230 -34.782  1.00  0.00     0.007 A 
HETATM   24  C   UNL     1      -6.755  -1.887 -34.659  1.00  0.00     0.010 A 
ENDBRANCH  16  17
ENDBRANCH  12  16
ENDBRANCH   1   9
BRANCH   1  25
HETATM   25  C   UNL     1      -8.695   5.198 -31.444  1.00  0.00     0.072 A 
HETATM   26  N   UNL     1      -7.988   5.745 -32.474  1.00  0.00    -0.262 NA
HETATM   27  C   UNL     1      -7.374   6.932 -32.267  1.00  0.00     0.117 A 
HETATM   28  C   UNL     1      -7.406   7.609 -31.063  1.00  0.00     0.019 A 
HETATM   29  C   UNL     1      -8.111   7.040 -30.013  1.00  0.00     0.003 A 
HETATM   30  C   UNL     1      -8.765   5.823 -30.199  1.00  0.00     0.030 A 
ENDBRANCH   1  25
BRANCH   5  31
HETATM   31  C   UNL     1     -12.908   3.767 -33.123  1.00  0.00     0.168 C 
BRANCH  31  32
HETATM   32  C   UNL     1     -13.532   2.378 -32.892  1.00  0.00     0.140 C 
HETATM   33  O   UNL     1     -13.871   1.738 -34.147  1.00  0.00    -0.384 OA
HETATM   34  C   UNL     1     -15.126   1.065 -33.950  1.00  0.00     0.168 C 
HETATM   35  C   UNL     1     -15.881   1.905 -32.951  1.00  0.00     0.029 C 
HETATM   36  C   UNL     1     -14.785   2.364 -32.021  1.00  0.00     0.036 C 
ENDBRANCH  31  32
ENDBRANCH   5  31
TORSDOF 6
ENDMDL
MODEL 5
REMARK VINA RESULT:      -9.0      3.527      6.573
REMARK  6 active torsions:
REMARK  status: ('A' for Active; 'I' for Inactive)
REMARK    1  A    between atoms: C_6  and  C_7 
REMARK    2  A    between atoms: C_7  and  N_8 
REMARK    3  A    between atoms: C_12  and  C_13 
REMARK    4  A    between atoms: C_13  and  C_14 
REMARK    5  A    between atoms: N_23  and  C_24 
REMARK    6  A    between atoms: C_24  and  C_25 
ROOT
HETATM    1  C   UNL     1      -5.542   4.891 -31.753  1.00  0.00     0.164 C 
HETATM    2  N   UNL     1      -5.051   3.552 -31.454  1.00  0.00    -0.319 N 
HETATM    3  C   UNL     1      -3.738   3.370 -31.811  1.00  0.00     0.326 C 
HETATM    4  O   UNL     1      -3.072   2.402 -31.497  1.00  0.00    -0.247 OA
HETATM    5  N   UNL     1      -3.345   4.439 -32.548  1.00  0.00    -0.265 N 
HETATM    6  C   UNL     1      -4.321   5.392 -32.548  1.00  0.00     0.263 C 
HETATM    7  O   UNL     1      -4.253   6.486 -33.101  1.00  0.00    -0.270 OA
HETATM    8  H   UNL     1      -5.439   2.993 -30.700  1.00  0.00     0.166 HD
ENDROOT
BRANCH   1   9
HETATM    9  C   UNL     1      -6.870   4.775 -32.588  1.00  0.00     0.033 C 
HETATM   10  C   UNL     1      -8.156   4.544 -31.769  1.00  0.00     0.036 C 
HETATM   11  C   UNL     1      -8.419   3.099 -31.360  1.00  0.00     0.235 C 
HETATM   12  N   UNL     1      -8.299   2.158 -32.533  1.00  0.00    -0.067 N 
HETATM   13  H   UNL     1      -9.110   2.333 -33.137  1.00  0.00     0.280 HD
HETATM   14  C   UNL     1      -7.054   2.330 -33.362  1.00  0.00     0.235 C 
HETATM   15  C   UNL     1      -6.863   3.780 -33.762  1.00  0.00     0.036 C 
BRANCH  12  16
HETATM   16  C   UNL     1      -8.402   0.704 -32.084  1.00  0.00     0.273 C 
BRANCH  16  17
HETATM   17  C   UNL     1      -7.348  -0.201 -32.667  1.00  0.00    -0.027 A 
HETATM   18  C   UNL     1      -6.118  -0.451 -32.020  1.00  0.00    -0.054 A 
HETATM   19  C   UNL     1      -5.174  -1.288 -32.643  1.00  0.00     0.014 A 
HETATM   20  C   UNL     1      -5.752   0.172 -30.699  1.00  0.00     0.049 C 
HETATM   21  C   UNL     1      -5.425  -1.871 -33.889  1.00  0.00    -0.061 A 
HETATM   22  C   UNL     1      -4.400  -2.744 -34.553  1.00  0.00     0.048 C 
HETATM   23  C   UNL     1      -6.645  -1.625 -34.519  1.00  0.00     0.007 A 
HETATM   24  C   UNL     1      -7.596  -0.800 -33.916  1.00  0.00     0.010 A 
ENDBRANCH  16  17
ENDBRANCH  12  16
ENDBRANCH   1   9
BRANCH   1  25
HETATM   25  C   UNL     1      -5.755   5.624 -30.428  1.00  0.00     0.072 A 
HETATM   26  N   UNL     1      -5.970   6.965 -30.541  1.00  0.00    -0.262 NA
HETATM   27  C   UNL     1      -6.181   7.676 -29.409  1.00  0.00     0.117 A 
HETATM   28  C   UNL     1      -6.169   7.119 -28.144  1.00  0.00     0.019 A 
HETATM   29  C   UNL     1      -5.933   5.757 -28.033  1.00  0.00     0.003 A 
HETATM   30  C   UNL     1      -5.724   4.996 -29.182  1.00  0.00     0.030 A 
ENDBRANCH   1  25
BRANCH   5  31
HETATM   31  C   UNL     1      -2.074   4.552 -33.241  1.00  0.00     0.168 C 
BRANCH  31  32
HETATM   32  C   UNL     1      -0.997   5.300 -32.433  1.00  0.00     0.140 C 
HETATM   33  O   UNL     1      -1.283   5.263 -31.013  1.00  0.00    -0.384 OA
HETATM   34  C   UNL     1      -0.942   6.553 -30.481  1.00  0.00     0.168 C 
HETATM   35  C   UNL     1      -1.221   7.534 -31.593  1.00  0.00     0.029 C 
HETATM   36  C   UNL     1      -0.794   6.764 -32.818  1.00  0.00     0.036 C 
ENDBRANCH  31  32
ENDBRANCH   5  31
TORSDOF 6
ENDMDL
MODEL 6
REMARK VINA RESULT:      -9.0      1.456      2.005
REMARK  6 active torsions:
REMARK  status: ('A' for Active; 'I' for Inactive)
REMARK    1  A    between atoms: C_6  and  C_7 
REMARK    2  A    between atoms: C_7  and  N_8 
REMARK    3  A    between atoms: C_12  and  C_13 
REMARK    4  A    between atoms: C_13  and  C_14 
REMARK    5  A    between atoms: N_23  and  C_24 
REMARK    6  A    between atoms: C_24  and  C_25 
ROOT
HETATM    1  C   UNL     1      -5.872   2.466 -32.616  1.00  0.00     0.164 C 
HETATM    2  N   UNL     1      -6.188   3.563 -33.523  1.00  0.00    -0.319 N 
HETATM    3  C   UNL     1      -5.080   4.278 -33.905  1.00  0.00     0.326 C 
HETATM    4  O   UNL     1      -5.078   5.115 -34.788  1.00  0.00    -0.247 OA
HETATM    5  N   UNL     1      -4.032   3.882 -33.142  1.00  0.00    -0.265 N 
HETATM    6  C   UNL     1      -4.389   2.810 -32.376  1.00  0.00     0.263 C 
HETATM    7  O   UNL     1      -3.652   2.206 -31.602  1.00  0.00    -0.270 OA
HETATM    8  H   UNL     1      -6.994   3.535 -34.140  1.00  0.00     0.166 HD
ENDROOT
BRANCH   1   9
HETATM    9  C   UNL     1      -6.788   2.575 -31.343  1.00  0.00     0.033 C 
HETATM   10  C   UNL     1      -8.088   1.745 -31.382  1.00  0.00     0.036 C 
HETATM   11  C   UNL     1      -9.249   2.385 -32.135  1.00  0.00     0.235 C 
HETATM   12  N   UNL     1      -9.480   3.809 -31.693  1.00  0.00    -0.067 N 
HETATM   13  H   UNL     1      -9.872   3.765 -30.746  1.00  0.00     0.280 HD
HETATM   14  C   UNL     1      -8.247   4.670 -31.649  1.00  0.00     0.235 C 
HETATM   15  C   UNL     1      -7.140   3.995 -30.863  1.00  0.00     0.036 C 
BRANCH  12  16
HETATM   16  C   UNL     1     -10.533   4.489 -32.563  1.00  0.00     0.273 C 
BRANCH  16  17
HETATM   17  C   UNL     1     -11.903   3.868 -32.475  1.00  0.00    -0.027 A 
HETATM   18  C   UNL     1     -12.462   3.106 -33.524  1.00  0.00    -0.054 A 
HETATM   19  C   UNL     1     -13.759   2.581 -33.375  1.00  0.00     0.014 A 
HETATM   20  C   UNL     1     -11.742   2.859 -34.823  1.00  0.00     0.049 C 
HETATM   21  C   UNL     1     -14.507   2.803 -32.214  1.00  0.00    -0.061 A 
HETATM   22  C   UNL     1     -15.898   2.256 -32.076  1.00  0.00     0.048 C 
HETATM   23  C   UNL     1     -13.945   3.549 -31.178  1.00  0.00     0.007 A 
HETATM   24  C   UNL     1     -12.659   4.077 -31.306  1.00  0.00     0.010 A 
ENDBRANCH  16  17
ENDBRANCH  12  16
ENDBRANCH   1   9
BRANCH   1  25
HETATM   25  C   UNL     1      -6.084   1.153 -33.370  1.00  0.00     0.072 A 
HETATM   26  N   UNL     1      -6.772   1.267 -34.541  1.00  0.00    -0.262 NA
HETATM   27  C   UNL     1      -6.984   0.146 -35.269  1.00  0.00     0.117 A 
HETATM   28  C   UNL     1      -6.560  -1.110 -34.878  1.00  0.00     0.019 A 
HETATM   29  C   UNL     1      -5.875  -1.224 -33.677  1.00  0.00     0.003 A 
HETATM   30  C   UNL     1      -5.631  -0.085 -32.912  1.00  0.00     0.030 A 
ENDBRANCH   1  25
BRANCH   5  31
HETATM   31  C   UNL     1      -2.722   4.508 -33.133  1.00  0.00     0.168 C 
BRANCH  31  32
HETATM   32  C   UNL     1      -2.638   5.746 -32.220  1.00  0.00     0.140 C 
HETATM   33  O   UNL     1      -2.482   6.961 -32.994  1.00  0.00    -0.384 OA
HETATM   34  C   UNL     1      -1.555   7.798 -32.282  1.00  0.00     0.168 C 
HETATM   35  C   UNL     1      -0.605   6.850 -31.594  1.00  0.00     0.029 C 
HETATM   36  C   UNL     1      -1.515   5.717 -31.187  1.00  0.00     0.036 C 
ENDBRANCH  31  32
ENDBRANCH   5  31
TORSDOF 6
ENDMDL
MODEL 7
REMARK VINA RESULT:      -8.7      2.112      3.187
REMARK  6 active torsions:
REMARK  status: ('A' for Active; 'I' for Inactive)
REMARK    1  A    between atoms: C_6  and  C_7 
REMARK    2  A    between atoms: C_7  and  N_8 
REMARK    3  A    between atoms: C_12  and  C_13 
REMARK    4  A    between atoms: C_13  and  C_14 
REMARK    5  A    between atoms: N_23  and  C_24 
REMARK    6  A    between atoms: C_24  and  C_25 
ROOT
HETATM    1  C   UNL     1      -5.364   2.159 -32.296  1.00  0.00     0.164 C 
HETATM    2  N   UNL     1      -5.801   3.359 -32.998  1.00  0.00    -0.319 N 
HETATM    3  C   UNL     1      -4.756   4.125 -33.452  1.00  0.00     0.326 C 
HETATM    4  O   UNL     1      -4.879   5.067 -34.212  1.00  0.00    -0.247 OA
HETATM    5  N   UNL     1      -3.609   3.643 -32.914  1.00  0.00    -0.265 N 
HETATM    6  C   UNL     1      -3.858   2.480 -32.244  1.00  0.00     0.263 C 
HETATM    7  O   UNL     1      -3.018   1.789 -31.674  1.00  0.00    -0.270 OA
HETATM    8  H   UNL     1      -6.692   3.403 -33.483  1.00  0.00     0.166 HD
ENDROOT
BRANCH   1   9
HETATM    9  C   UNL     1      -6.073   2.099 -30.894  1.00  0.00     0.033 C 
HETATM   10  C   UNL     1      -7.486   1.481 -30.885  1.00  0.00     0.036 C 
HETATM   11  C   UNL     1      -8.613   2.424 -31.291  1.00  0.00     0.235 C 
HETATM   12  N   UNL     1      -8.545   3.729 -30.538  1.00  0.00    -0.067 N 
HETATM   13  H   UNL     1      -8.810   3.525 -29.568  1.00  0.00     0.280 HD
HETATM   14  C   UNL     1      -7.190   4.385 -30.524  1.00  0.00     0.235 C 
HETATM   15  C   UNL     1      -6.117   3.408 -30.085  1.00  0.00     0.036 C 
BRANCH  12  16
HETATM   16  C   UNL     1      -9.575   4.722 -31.066  1.00  0.00     0.273 C 
BRANCH  16  17
HETATM   17  C   UNL     1     -10.246   4.296 -32.347  1.00  0.00    -0.027 A 
HETATM   18  C   UNL     1      -9.738   4.632 -33.620  1.00  0.00    -0.054 A 
HETATM   19  C   UNL     1     -10.437   4.218 -34.769  1.00  0.00     0.014 A 
HETATM   20  C   UNL     1      -8.489   5.453 -33.807  1.00  0.00     0.049 C 
HETATM   21  C   UNL     1     -11.626   3.488 -34.675  1.00  0.00    -0.061 A 
HETATM   22  C   UNL     1     -12.375   3.072 -35.908  1.00  0.00     0.048 C 
HETATM   23  C   UNL     1     -12.118   3.152 -33.414  1.00  0.00     0.007 A 
HETATM   24  C   UNL     1     -11.438   3.551 -32.262  1.00  0.00     0.010 A 
ENDBRANCH  16  17
ENDBRANCH  12  16
ENDBRANCH   1   9
BRANCH   1  25
HETATM   25  C   UNL     1      -5.704   0.950 -33.168  1.00  0.00     0.072 A 
HETATM   26  N   UNL     1      -6.501   1.221 -34.240  1.00  0.00    -0.262 NA
HETATM   27  C   UNL     1      -6.832   0.200 -35.064  1.00  0.00     0.117 A 
HETATM   28  C   UNL     1      -6.423  -1.105 -34.866  1.00  0.00     0.019 A 
HETATM   29  C   UNL     1      -5.625  -1.379 -33.764  1.00  0.00     0.003 A 
HETATM   30  C   UNL     1      -5.258  -0.346 -32.904  1.00  0.00     0.030 A 
ENDBRANCH   1  25
BRANCH   5  31
HETATM   31  C   UNL     1      -2.305   4.273 -33.028  1.00  0.00     0.168 C 
BRANCH  31  32
HETATM   32  C   UNL     1      -1.943   5.159 -31.821  1.00  0.00     0.140 C 
HETATM   33  O   UNL     1      -2.486   6.494 -31.966  1.00  0.00    -0.384 OA
HETATM   34  C   UNL     1      -1.492   7.409 -31.475  1.00  0.00     0.168 C 
HETATM   35  C   UNL     1      -0.164   6.765 -31.786  1.00  0.00     0.029 C 
HETATM   36  C   UNL     1      -0.449   5.303 -31.544  1.00  0.00     0.036 C 
ENDBRANCH  31  32
ENDBRANCH   5  31
TORSDOF 6
ENDMDL
MODEL 8
REMARK VINA RESULT:      -8.7      2.517      5.869
REMARK  6 active torsions:
REMARK  status: ('A' for Active; 'I' for Inactive)
REMARK    1  A    between atoms: C_6  and  C_7 
REMARK    2  A    between atoms: C_7  and  N_8 
REMARK    3  A    between atoms: C_12  and  C_13 
REMARK    4  A    between atoms: C_13  and  C_14 
REMARK    5  A    between atoms: N_23  and  C_24 
REMARK    6  A    between atoms: C_24  and  C_25 
ROOT
HETATM    1  C   UNL     1      -4.793   4.152 -32.206  1.00  0.00     0.164 C 
HETATM    2  N   UNL     1      -5.741   3.659 -33.197  1.00  0.00    -0.319 N 
HETATM    3  C   UNL     1      -6.839   4.469 -33.339  1.00  0.00     0.326 C 
HETATM    4  O   UNL     1      -7.664   4.354 -34.226  1.00  0.00    -0.247 OA
HETATM    5  N   UNL     1      -6.823   5.388 -32.341  1.00  0.00    -0.265 N 
HETATM    6  C   UNL     1      -5.654   5.299 -31.642  1.00  0.00     0.263 C 
HETATM    7  O   UNL     1      -5.329   6.015 -30.699  1.00  0.00    -0.270 OA
HETATM    8  H   UNL     1      -5.447   3.085 -33.982  1.00  0.00     0.166 HD
ENDROOT
BRANCH   1   9
HETATM    9  C   UNL     1      -4.479   3.001 -31.181  1.00  0.00     0.033 C 
HETATM   10  C   UNL     1      -3.620   1.841 -31.724  1.00  0.00     0.036 C 
HETATM   11  C   UNL     1      -4.378   0.780 -32.513  1.00  0.00     0.235 C 
HETATM   12  N   UNL     1      -5.600   0.301 -31.770  1.00  0.00    -0.067 N 
HETATM   13  H   UNL     1      -5.264  -0.259 -30.977  1.00  0.00     0.280 HD
HETATM   14  C   UNL     1      -6.484   1.392 -31.228  1.00  0.00     0.235 C 
HETATM   15  C   UNL     1      -5.679   2.398 -30.429  1.00  0.00     0.036 C 
BRANCH  12  16
HETATM   16  C   UNL     1      -6.436  -0.637 -32.634  1.00  0.00     0.273 C 
BRANCH  16  17
HETATM   17  C   UNL     1      -7.757  -0.060 -33.074  1.00  0.00    -0.027 A 
HETATM   18  C   UNL     1      -7.924   0.600 -34.311  1.00  0.00    -0.054 A 
HETATM   19  C   UNL     1      -9.184   1.135 -34.638  1.00  0.00     0.014 A 
HETATM   20  C   UNL     1      -6.796   0.792 -35.290  1.00  0.00     0.049 C 
HETATM   21  C   UNL     1     -10.270   1.033 -33.763  1.00  0.00    -0.061 A 
HETATM   22  C   UNL     1     -11.602   1.628 -34.114  1.00  0.00     0.048 C 
HETATM   23  C   UNL     1     -10.099   0.372 -32.546  1.00  0.00     0.007 A 
HETATM   24  C   UNL     1      -8.858  -0.167 -32.204  1.00  0.00     0.010 A 
ENDBRANCH  16  17
ENDBRANCH  12  16
ENDBRANCH   1   9
BRANCH   1  25
HETATM   25  C   UNL     1      -3.541   4.628 -32.942  1.00  0.00     0.072 A 
HETATM   26  N   UNL     1      -3.703   4.829 -34.281  1.00  0.00    -0.262 NA
HETATM   27  C   UNL     1      -2.640   5.265 -34.994  1.00  0.00     0.117 A 
HETATM   28  C   UNL     1      -1.394   5.497 -34.444  1.00  0.00     0.019 A 
HETATM   29  C   UNL     1      -1.229   5.275 -33.085  1.00  0.00     0.003 A 
HETATM   30  C   UNL     1      -2.310   4.837 -32.321  1.00  0.00     0.030 A 
ENDBRANCH   1  25
BRANCH   5  31
HETATM   31  C   UNL     1      -7.894   6.326 -32.053  1.00  0.00     0.168 C 
BRANCH  31  32
HETATM   32  C   UNL     1      -8.961   5.765 -31.094  1.00  0.00     0.140 C 
HETATM   33  O   UNL     1      -8.517   4.532 -30.475  1.00  0.00    -0.384 OA
HETATM   34  C   UNL     1      -9.656   3.658 -30.414  1.00  0.00     0.168 C 
HETATM   35  C   UNL     1     -10.488   3.996 -31.626  1.00  0.00     0.029 C 
HETATM   36  C   UNL     1     -10.324   5.493 -31.723  1.00  0.00     0.036 C 
ENDBRANCH  31  32
ENDBRANCH   5  31
TORSDOF 6
ENDMDL
MODEL 9
REMARK VINA RESULT:      -8.7     16.667     19.664
REMARK  6 active torsions:
REMARK  status: ('A' for Active; 'I' for Inactive)
REMARK    1  A    between atoms: C_6  and  C_7 
REMARK    2  A    between atoms: C_7  and  N_8 
REMARK    3  A    between atoms: C_12  and  C_13 
REMARK    4  A    between atoms: C_13  and  C_14 
REMARK    5  A    between atoms: N_23  and  C_24 
REMARK    6  A    between atoms: C_24  and  C_25 
ROOT
HETATM    1  C   UNL     1      -7.251 -13.696 -38.767  1.00  0.00     0.164 C 
HETATM    2  N   UNL     1      -6.671 -14.963 -39.195  1.00  0.00    -0.319 N 
HETATM    3  C   UNL     1      -6.578 -15.880 -38.178  1.00  0.00     0.326 C 
HETATM    4  O   UNL     1      -6.297 -17.053 -38.339  1.00  0.00    -0.247 OA
HETATM    5  N   UNL     1      -6.855 -15.251 -37.009  1.00  0.00    -0.265 N 
HETATM    6  C   UNL     1      -7.284 -13.978 -37.252  1.00  0.00     0.263 C 
HETATM    7  O   UNL     1      -7.638 -13.167 -36.401  1.00  0.00    -0.270 OA
HETATM    8  H   UNL     1      -6.750 -15.294 -40.152  1.00  0.00     0.166 HD
ENDROOT
BRANCH   1   9
HETATM    9  C   UNL     1      -6.294 -12.524 -39.197  1.00  0.00     0.033 C 
HETATM   10  C   UNL     1      -6.135 -12.315 -40.717  1.00  0.00     0.036 C 
HETATM   11  C   UNL     1      -5.132 -13.237 -41.401  1.00  0.00     0.235 C 
HETATM   12  N   UNL     1      -3.810 -13.257 -40.675  1.00  0.00    -0.067 N 
HETATM   13  H   UNL     1      -3.369 -12.345 -40.838  1.00  0.00     0.280 HD
HETATM   14  C   UNL     1      -3.904 -13.471 -39.188  1.00  0.00     0.235 C 
HETATM   15  C   UNL     1      -4.892 -12.507 -38.561  1.00  0.00     0.036 C 
BRANCH  12  16
HETATM   16  C   UNL     1      -2.871 -14.301 -41.271  1.00  0.00     0.273 C 
BRANCH  16  17
HETATM   17  C   UNL     1      -1.759 -14.731 -40.350  1.00  0.00    -0.027 A 
HETATM   18  C   UNL     1      -1.736 -15.997 -39.724  1.00  0.00    -0.054 A 
HETATM   19  C   UNL     1      -0.674 -16.313 -38.857  1.00  0.00     0.014 A 
HETATM   20  C   UNL     1      -2.825 -17.018 -39.914  1.00  0.00     0.049 C 
HETATM   21  C   UNL     1       0.353 -15.400 -38.597  1.00  0.00    -0.061 A 
HETATM   22  C   UNL     1       1.468 -15.742 -37.652  1.00  0.00     0.048 C 
HETATM   23  C   UNL     1       0.328 -14.155 -39.226  1.00  0.00     0.007 A 
HETATM   24  C   UNL     1      -0.715 -13.823 -40.092  1.00  0.00     0.010 A 
ENDBRANCH  16  17
ENDBRANCH  12  16
ENDBRANCH   1   9
BRANCH   1  25
HETATM   25  C   UNL     1      -8.637 -13.571 -39.399  1.00  0.00     0.072 A 
HETATM   26  N   UNL     1      -9.138 -14.728 -39.918  1.00  0.00    -0.262 NA
HETATM   27  C   UNL     1     -10.368 -14.696 -40.481  1.00  0.00     0.117 A 
HETATM   28  C   UNL     1     -11.134 -13.550 -40.577  1.00  0.00     0.019 A 
HETATM   29  C   UNL     1     -10.614 -12.371 -40.062  1.00  0.00     0.003 A 
HETATM   30  C   UNL     1      -9.354 -12.376 -39.465  1.00  0.00     0.030 A 
ENDBRANCH   1  25
BRANCH   5  31
HETATM   31  C   UNL     1      -6.711 -15.841 -35.690  1.00  0.00     0.168 C 
BRANCH  31  32
HETATM   32  C   UNL     1      -5.304 -15.667 -35.088  1.00  0.00     0.140 C 
HETATM   33  O   UNL     1      -4.759 -14.359 -35.394  1.00  0.00    -0.384 OA
HETATM   34  C   UNL     1      -3.362 -14.541 -35.678  1.00  0.00     0.168 C 
HETATM   35  C   UNL     1      -3.254 -15.908 -36.307  1.00  0.00     0.029 C 
HETATM   36  C   UNL     1      -4.274 -16.703 -35.529  1.00  0.00     0.036 C 
ENDBRANCH  31  32
ENDBRANCH   5  31
TORSDOF 6
ENDMDL
MODEL 10
REMARK VINA RESULT:      -8.7      3.220      7.940
REMARK  6 active torsions:
REMARK  status: ('A' for Active; 'I' for Inactive)
REMARK    1  A    between atoms: C_6  and  C_7 
REMARK    2  A    between atoms: C_7  and  N_8 
REMARK    3  A    between atoms: C_12  and  C_13 
REMARK    4  A    between atoms: C_13  and  C_14 
REMARK    5  A    between atoms: N_23  and  C_24 
REMARK    6  A    between atoms: C_24  and  C_25 
ROOT
HETATM    1  C   UNL     1      -8.570   4.587 -31.040  1.00  0.00     0.164 C 
HETATM    2  N   UNL     1      -8.047   4.705 -32.396  1.00  0.00    -0.319 N 
HETATM    3  C   UNL     1      -8.998   5.094 -33.305  1.00  0.00     0.326 C 
HETATM    4  O   UNL     1      -8.755   5.429 -34.449  1.00  0.00    -0.247 OA
HETATM    5  N   UNL     1     -10.212   5.041 -32.702  1.00  0.00    -0.265 N 
HETATM    6  C   UNL     1     -10.063   4.779 -31.371  1.00  0.00     0.263 C 
HETATM    7  O   UNL     1     -10.973   4.697 -30.551  1.00  0.00    -0.270 OA
HETATM    8  H   UNL     1      -7.072   4.923 -32.578  1.00  0.00     0.166 HD
ENDROOT
BRANCH   1   9
HETATM    9  C   UNL     1      -8.199   3.169 -30.470  1.00  0.00     0.033 C 
HETATM   10  C   UNL     1      -6.700   2.930 -30.195  1.00  0.00     0.036 C 
HETATM   11  C   UNL     1      -5.868   2.537 -31.410  1.00  0.00     0.235 C 
HETATM   12  N   UNL     1      -6.505   1.406 -32.179  1.00  0.00    -0.067 N 
HETATM   13  H   UNL     1      -6.406   0.563 -31.601  1.00  0.00     0.280 HD
HETATM   14  C   UNL     1      -7.967   1.591 -32.487  1.00  0.00     0.235 C 
HETATM   15  C   UNL     1      -8.746   1.951 -31.237  1.00  0.00     0.036 C 
BRANCH  12  16
HETATM   16  C   UNL     1      -5.752   1.131 -33.476  1.00  0.00     0.273 C 
BRANCH  16  17
HETATM   17  C   UNL     1      -5.695  -0.325 -33.861  1.00  0.00    -0.027 A 
HETATM   18  C   UNL     1      -6.634  -0.919 -34.732  1.00  0.00    -0.054 A 
HETATM   19  C   UNL     1      -6.528  -2.292 -35.023  1.00  0.00     0.014 A 
HETATM   20  C   UNL     1      -7.777  -0.151 -35.341  1.00  0.00     0.049 C 
HETATM   21  C   UNL     1      -5.518  -3.080 -34.462  1.00  0.00    -0.061 A 
HETATM   22  C   UNL     1      -5.429  -4.548 -34.762  1.00  0.00     0.048 C 
HETATM   23  C   UNL     1      -4.589  -2.485 -33.609  1.00  0.00     0.007 A 
HETATM   24  C   UNL     1      -4.675  -1.124 -33.310  1.00  0.00     0.010 A 
ENDBRANCH  16  17
ENDBRANCH  12  16
ENDBRANCH   1   9
BRANCH   1  25
HETATM   25  C   UNL     1      -7.976   5.720 -30.203  1.00  0.00     0.072 A 
HETATM   26  N   UNL     1      -7.114   6.537 -30.871  1.00  0.00    -0.262 NA
HETATM   27  C   UNL     1      -6.561   7.571 -30.196  1.00  0.00     0.117 A 
HETATM   28  C   UNL     1      -6.805   7.829 -28.861  1.00  0.00     0.019 A 
HETATM   29  C   UNL     1      -7.670   6.985 -28.180  1.00  0.00     0.003 A 
HETATM   30  C   UNL     1      -8.265   5.918 -28.852  1.00  0.00     0.030 A 
ENDBRANCH   1  25
BRANCH   5  31
HETATM   31  C   UNL     1     -11.486   5.228 -33.373  1.00  0.00     0.168 C 
BRANCH  31  32
HETATM   32  C   UNL     1     -12.101   3.919 -33.903  1.00  0.00     0.140 C 
HETATM   33  O   UNL     1     -12.066   2.876 -32.898  1.00  0.00    -0.384 OA
HETATM   34  C   UNL     1     -11.741   1.650 -33.574  1.00  0.00     0.168 C 
HETATM   35  C   UNL     1     -10.844   2.049 -34.720  1.00  0.00     0.029 C 
HETATM   36  C   UNL     1     -11.449   3.358 -35.164  1.00  0.00     0.036 C 
ENDBRANCH  31  32
ENDBRANCH   5  31
TORSDOF 6
ENDMDL
