MODEL 1
REMARK VINA RESULT:     -10.2      0.000      0.000
REMARK  11 active torsions:
REMARK  status: ('A' for Active; 'I' for Inactive)
REMARK    1  A    between atoms: C_2  and  C_3 
REMARK    2  A    between atoms: C_3  and  C_4 
REMARK       I    between atoms: C_4  and  N_6 
REMARK    3  A    between atoms: N_6  and  C_7 
REMARK    4  A    between atoms: C_11  and  C_13 
REMARK    5  A    between atoms: C_15  and  N_16 
REMARK    6  A    between atoms: N_16  and  C_17 
REMARK    7  A    between atoms: C_29  and  O_30 
REMARK    8  A    between atoms: O_30  and  C_31 
REMARK    9  A    between atoms: C_31  and  C_32 
REMARK   10  A    between atoms: C_32  and  N_33 
REMARK   11  A    between atoms: C_41  and  O_42 
ROOT
HETATM    1  C   UNL     1      -4.343   4.160 -33.038  1.00  0.00     0.162 A 
HETATM    2  N   UNL     1      -4.258   2.900 -32.590  1.00  0.00    -0.215 NA
HETATM    3  C   UNL     1      -5.389   2.195 -32.468  1.00  0.00     0.122 A 
HETATM    4  C   UNL     1      -6.637   2.739 -32.801  1.00  0.00     0.036 A 
HETATM    5  C   UNL     1      -7.872   2.054 -32.668  1.00  0.00     0.057 A 
HETATM    6  C   UNL     1      -9.073   2.671 -33.012  1.00  0.00     0.103 A 
HETATM    7  C   UNL     1      -9.032   3.954 -33.563  1.00  0.00     0.103 A 
HETATM    8  C   UNL     1      -7.814   4.632 -33.674  1.00  0.00     0.072 A 
HETATM    9  C   UNL     1      -6.612   4.046 -33.302  1.00  0.00     0.075 A 
HETATM   10  N   UNL     1      -5.484   4.752 -33.426  1.00  0.00    -0.228 NA
ENDROOT
BRANCH   1  11
HETATM   11  C   UNL     1      -3.108   4.961 -33.014  1.00  0.00     0.014 A 
HETATM   12  C   UNL     1      -2.529   5.476 -34.184  1.00  0.00     0.015 A 
HETATM   13  C   UNL     1      -1.356   6.231 -34.130  1.00  0.00     0.003 A 
HETATM   14  C   UNL     1      -0.751   6.502 -32.901  1.00  0.00     0.029 A 
HETATM   15  C   UNL     1      -1.318   6.030 -31.714  1.00  0.00     0.035 A 
HETATM   16  C   UNL     1      -2.476   5.255 -31.786  1.00  0.00     0.044 A 
BRANCH  15  17
HETATM   17  N   UNL     1      -0.674   6.355 -30.500  1.00  0.00    -0.327 N 
HETATM   18  C   UNL     1       0.182   5.544 -29.769  1.00  0.00     0.222 C 
HETATM   19  O   UNL     1       0.454   4.372 -30.005  1.00  0.00    -0.273 OA
HETATM   20  H   UNL     1      -0.916   7.248 -30.091  1.00  0.00     0.169 HD
BRANCH  18  21
HETATM   21  C   UNL     1       0.764   6.277 -28.570  1.00  0.00     0.103 C 
BRANCH  21  22
HETATM   22  C   UNL     1       0.467   7.776 -28.616  1.00  0.00     0.005 C 
HETATM   23  C   UNL     1       1.501   8.579 -27.849  1.00  0.00     0.005 C 
ENDBRANCH  21  22
ENDBRANCH  18  21
ENDBRANCH  15  17
ENDBRANCH   1  11
BRANCH   3  24
HETATM   24  N   UNL     1      -5.322   0.892 -31.901  1.00  0.00    -0.243 NA
HETATM   25  H   UNL     1      -4.695   0.943 -31.103  1.00  0.00     0.135 HD
BRANCH  24  26
HETATM   26  C   UNL     1      -5.122  -0.318 -32.616  1.00  0.00     0.015 A 
HETATM   27  C   UNL     1      -3.966  -1.077 -32.368  1.00  0.00     0.026 A 
HETATM   28  C   UNL     1      -3.740  -2.316 -32.986  1.00  0.00     0.034 A 
HETATM   29  C   UNL     1      -4.736  -2.787 -33.842  1.00  0.00     0.061 A 
HETATM   30  N   UNL     1      -4.834  -3.930 -34.593  1.00  0.00    -0.278 N 
HETATM   31  C   UNL     1      -5.911  -2.088 -34.087  1.00  0.00     0.013 A 
HETATM   32  H   UNL     1      -4.153  -4.675 -34.675  1.00  0.00     0.189 HD
HETATM   33  N   UNL     1      -5.985  -4.040 -35.279  1.00  0.00    -0.186 NA
HETATM   34  C   UNL     1      -6.634  -2.912 -34.977  1.00  0.00     0.152 A 
HETATM   35  C   UNL     1      -6.116  -0.847 -33.459  1.00  0.00     0.039 A 
ENDBRANCH  24  26
ENDBRANCH   3  24
BRANCH   7  36
HETATM   36  O   UNL     1     -10.145   4.664 -33.937  1.00  0.00    -0.353 OA
HETATM   37  C   UNL     1     -10.214   4.892 -35.343  1.00  0.00     0.210 C 
ENDBRANCH   7  36
BRANCH   6  38
HETATM   38  O   UNL     1     -10.294   2.071 -32.857  1.00  0.00    -0.347 OA
BRANCH  38  39
HETATM   39  C   UNL     1     -10.657   1.142 -33.885  1.00  0.00     0.206 C 
BRANCH  39  40
HETATM   40  C   UNL     1     -12.069   0.630 -33.555  1.00  0.00     0.299 C 
BRANCH  40  41
HETATM   41  N   UNL     1     -13.128   1.111 -34.466  1.00  0.00     0.093 N 
HETATM   42  C   UNL     1     -13.053   2.559 -34.746  1.00  0.00     0.300 C 
HETATM   43  C   UNL     1     -13.486   3.475 -33.582  1.00  0.00     0.264 C 
HETATM   44  N   UNL     1     -14.873   3.084 -33.096  1.00  0.00    -0.072 N 
HETATM   45  H   UNL     1     -15.515   3.238 -33.885  1.00  0.00     0.279 HD
HETATM   46  C   UNL     1     -15.337   3.949 -31.964  1.00  0.00     0.269 C 
HETATM   47  C   UNL     1     -14.951   1.603 -32.757  1.00  0.00     0.264 C 
HETATM   48  C   UNL     1     -14.471   0.759 -33.956  1.00  0.00     0.300 C 
ENDBRANCH  40  41
ENDBRANCH  39  40
ENDBRANCH  38  39
ENDBRANCH   6  38
TORSDOF 11
ENDMDL
MODEL 2
REMARK VINA RESULT:      -9.7      2.330      9.757
REMARK  11 active torsions:
REMARK  status: ('A' for Active; 'I' for Inactive)
REMARK    1  A    between atoms: C_2  and  C_3 
REMARK    2  A    between atoms: C_3  and  C_4 
REMARK       I    between atoms: C_4  and  N_6 
REMARK    3  A    between atoms: N_6  and  C_7 
REMARK    4  A    between atoms: C_11  and  C_13 
REMARK    5  A    between atoms: C_15  and  N_16 
REMARK    6  A    between atoms: N_16  and  C_17 
REMARK    7  A    between atoms: C_29  and  O_30 
REMARK    8  A    between atoms: O_30  and  C_31 
REMARK    9  A    between atoms: C_31  and  C_32 
REMARK   10  A    between atoms: C_32  and  N_33 
REMARK   11  A    between atoms: C_41  and  O_42 
ROOT
HETATM    1  C   UNL     1      -9.762   1.552 -32.855  1.00  0.00     0.162 A 
HETATM    2  N   UNL     1      -8.919   0.965 -33.716  1.00  0.00    -0.215 NA
HETATM    3  C   UNL     1      -7.607   1.181 -33.560  1.00  0.00     0.122 A 
HETATM    4  C   UNL     1      -7.109   1.989 -32.529  1.00  0.00     0.036 A 
HETATM    5  C   UNL     1      -5.735   2.278 -32.329  1.00  0.00     0.057 A 
HETATM    6  C   UNL     1      -5.321   3.102 -31.284  1.00  0.00     0.103 A 
HETATM    7  C   UNL     1      -6.282   3.578 -30.388  1.00  0.00     0.103 A 
HETATM    8  C   UNL     1      -7.637   3.305 -30.601  1.00  0.00     0.072 A 
HETATM    9  C   UNL     1      -8.070   2.517 -31.658  1.00  0.00     0.075 A 
HETATM   10  N   UNL     1      -9.379   2.303 -31.810  1.00  0.00    -0.228 NA
ENDROOT
BRANCH   1  11
HETATM   11  C   UNL     1     -11.201   1.426 -33.141  1.00  0.00     0.014 A 
HETATM   12  C   UNL     1     -11.784   0.205 -33.515  1.00  0.00     0.015 A 
HETATM   13  C   UNL     1     -13.152   0.117 -33.781  1.00  0.00     0.003 A 
HETATM   14  C   UNL     1     -13.966   1.246 -33.661  1.00  0.00     0.029 A 
HETATM   15  C   UNL     1     -13.422   2.470 -33.262  1.00  0.00     0.035 A 
HETATM   16  C   UNL     1     -12.049   2.549 -33.024  1.00  0.00     0.044 A 
BRANCH  15  17
HETATM   17  N   UNL     1     -14.298   3.570 -33.135  1.00  0.00    -0.327 N 
HETATM   18  C   UNL     1     -14.532   4.320 -31.992  1.00  0.00     0.222 C 
HETATM   19  O   UNL     1     -14.086   4.098 -30.871  1.00  0.00    -0.273 OA
HETATM   20  H   UNL     1     -14.860   3.790 -33.947  1.00  0.00     0.169 HD
BRANCH  18  21
HETATM   21  C   UNL     1     -15.460   5.493 -32.267  1.00  0.00     0.103 C 
BRANCH  21  22
HETATM   22  C   UNL     1     -16.417   5.750 -31.104  1.00  0.00     0.005 C 
HETATM   23  C   UNL     1     -17.869   5.608 -31.526  1.00  0.00     0.005 C 
ENDBRANCH  21  22
ENDBRANCH  18  21
ENDBRANCH  15  17
ENDBRANCH   1  11
BRANCH   3  24
HETATM   24  N   UNL     1      -6.710   0.645 -34.526  1.00  0.00    -0.243 NA
HETATM   25  H   UNL     1      -7.108   0.828 -35.443  1.00  0.00     0.135 HD
BRANCH  24  26
HETATM   26  C   UNL     1      -6.119  -0.646 -34.488  1.00  0.00     0.015 A 
HETATM   27  C   UNL     1      -4.904  -0.823 -33.807  1.00  0.00     0.026 A 
HETATM   28  C   UNL     1      -4.302  -2.083 -33.669  1.00  0.00     0.034 A 
HETATM   29  C   UNL     1      -4.984  -3.172 -34.213  1.00  0.00     0.061 A 
HETATM   30  N   UNL     1      -4.686  -4.509 -34.259  1.00  0.00    -0.278 N 
HETATM   31  C   UNL     1      -6.206  -3.049 -34.860  1.00  0.00     0.013 A 
HETATM   32  H   UNL     1      -3.861  -4.972 -33.895  1.00  0.00     0.189 HD
HETATM   33  N   UNL     1      -5.626  -5.262 -34.857  1.00  0.00    -0.186 NA
HETATM   34  C   UNL     1      -6.545  -4.368 -35.231  1.00  0.00     0.152 A 
HETATM   35  C   UNL     1      -6.790  -1.775 -34.990  1.00  0.00     0.039 A 
ENDBRANCH  24  26
ENDBRANCH   3  24
BRANCH   7  36
HETATM   36  O   UNL     1      -5.999   4.396 -29.324  1.00  0.00    -0.353 OA
HETATM   37  C   UNL     1      -7.136   5.124 -28.862  1.00  0.00     0.210 C 
ENDBRANCH   7  36
BRANCH   6  38
HETATM   38  O   UNL     1      -4.014   3.449 -31.077  1.00  0.00    -0.347 OA
BRANCH  38  39
HETATM   39  C   UNL     1      -3.107   3.076 -32.121  1.00  0.00     0.206 C 
BRANCH  39  40
HETATM   40  C   UNL     1      -2.849   4.334 -32.968  1.00  0.00     0.299 C 
BRANCH  40  41
HETATM   41  N   UNL     1      -1.476   4.872 -32.872  1.00  0.00     0.093 N 
HETATM   42  C   UNL     1      -1.078   5.232 -31.496  1.00  0.00     0.300 C 
HETATM   43  C   UNL     1      -1.736   6.510 -30.936  1.00  0.00     0.264 C 
HETATM   44  N   UNL     1      -1.514   7.673 -31.890  1.00  0.00    -0.072 N 
HETATM   45  H   UNL     1      -0.498   7.826 -31.936  1.00  0.00     0.279 HD
HETATM   46  C   UNL     1      -2.137   8.941 -31.387  1.00  0.00     0.269 C 
HETATM   47  C   UNL     1      -1.966   7.334 -33.303  1.00  0.00     0.264 C 
HETATM   48  C   UNL     1      -1.292   6.029 -33.774  1.00  0.00     0.300 C 
ENDBRANCH  40  41
ENDBRANCH  39  40
ENDBRANCH  38  39
ENDBRANCH   6  38
TORSDOF 11
ENDMDL
MODEL 3
REMARK VINA RESULT:      -9.5      2.684      8.869
REMARK  11 active torsions:
REMARK  status: ('A' for Active; 'I' for Inactive)
REMARK    1  A    between atoms: C_2  and  C_3 
REMARK    2  A    between atoms: C_3  and  C_4 
REMARK       I    between atoms: C_4  and  N_6 
REMARK    3  A    between atoms: N_6  and  C_7 
REMARK    4  A    between atoms: C_11  and  C_13 
REMARK    5  A    between atoms: C_15  and  N_16 
REMARK    6  A    between atoms: N_16  and  C_17 
REMARK    7  A    between atoms: C_29  and  O_30 
REMARK    8  A    between atoms: O_30  and  C_31 
REMARK    9  A    between atoms: C_31  and  C_32 
REMARK   10  A    between atoms: C_32  and  N_33 
REMARK   11  A    between atoms: C_41  and  O_42 
ROOT
HETATM    1  C   UNL     1      -9.540   1.301 -33.186  1.00  0.00     0.162 A 
HETATM    2  N   UNL     1      -8.746   0.567 -33.978  1.00  0.00    -0.215 NA
HETATM    3  C   UNL     1      -7.432   0.563 -33.725  1.00  0.00     0.122 A 
HETATM    4  C   UNL     1      -6.882   1.294 -32.662  1.00  0.00     0.036 A 
HETATM    5  C   UNL     1      -5.498   1.353 -32.361  1.00  0.00     0.057 A 
HETATM    6  C   UNL     1      -5.030   2.113 -31.291  1.00  0.00     0.103 A 
HETATM    7  C   UNL     1      -5.960   2.758 -30.472  1.00  0.00     0.103 A 
HETATM    8  C   UNL     1      -7.322   2.712 -30.785  1.00  0.00     0.072 A 
HETATM    9  C   UNL     1      -7.802   1.990 -31.869  1.00  0.00     0.075 A 
HETATM   10  N   UNL     1      -9.114   1.995 -32.118  1.00  0.00    -0.228 NA
ENDROOT
BRANCH   1  11
HETATM   11  C   UNL     1     -10.954   1.412 -33.579  1.00  0.00     0.014 A 
HETATM   12  C   UNL     1     -11.829   0.316 -33.540  1.00  0.00     0.015 A 
HETATM   13  C   UNL     1     -13.166   0.451 -33.921  1.00  0.00     0.003 A 
HETATM   14  C   UNL     1     -13.656   1.693 -34.330  1.00  0.00     0.029 A 
HETATM   15  C   UNL     1     -12.820   2.812 -34.351  1.00  0.00     0.035 A 
HETATM   16  C   UNL     1     -11.480   2.655 -33.993  1.00  0.00     0.044 A 
BRANCH  15  17
HETATM   17  N   UNL     1     -13.379   4.046 -34.752  1.00  0.00    -0.327 N 
HETATM   18  C   UNL     1     -13.318   5.249 -34.064  1.00  0.00     0.222 C 
HETATM   19  O   UNL     1     -12.847   5.426 -32.945  1.00  0.00    -0.273 OA
HETATM   20  H   UNL     1     -13.936   4.031 -35.596  1.00  0.00     0.169 HD
BRANCH  18  21
HETATM   21  C   UNL     1     -13.945   6.384 -34.859  1.00  0.00     0.103 C 
BRANCH  21  22
HETATM   22  C   UNL     1     -13.263   6.578 -36.213  1.00  0.00     0.005 C 
HETATM   23  C   UNL     1     -14.247   7.025 -37.280  1.00  0.00     0.005 C 
ENDBRANCH  21  22
ENDBRANCH  18  21
ENDBRANCH  15  17
ENDBRANCH   1  11
BRANCH   3  24
HETATM   24  N   UNL     1      -6.568  -0.132 -34.618  1.00  0.00    -0.243 NA
HETATM   25  H   UNL     1      -6.898   0.053 -35.561  1.00  0.00     0.135 HD
BRANCH  24  26
HETATM   26  C   UNL     1      -6.152  -1.483 -34.490  1.00  0.00     0.015 A 
HETATM   27  C   UNL     1      -6.922  -2.496 -35.086  1.00  0.00     0.026 A 
HETATM   28  C   UNL     1      -6.532  -3.843 -35.060  1.00  0.00     0.034 A 
HETATM   29  C   UNL     1      -5.318  -4.138 -34.440  1.00  0.00     0.061 A 
HETATM   30  N   UNL     1      -4.655  -5.321 -34.239  1.00  0.00    -0.278 N 
HETATM   31  C   UNL     1      -4.506  -3.165 -33.873  1.00  0.00     0.013 A 
HETATM   32  H   UNL     1      -4.954  -6.251 -34.510  1.00  0.00     0.189 HD
HETATM   33  N   UNL     1      -3.472  -5.190 -33.614  1.00  0.00    -0.186 NA
HETATM   34  C   UNL     1      -3.389  -3.877 -33.383  1.00  0.00     0.152 A 
HETATM   35  C   UNL     1      -4.918  -1.820 -33.907  1.00  0.00     0.039 A 
ENDBRANCH  24  26
ENDBRANCH   3  24
BRANCH   7  36
HETATM   36  O   UNL     1      -5.623   3.536 -29.394  1.00  0.00    -0.353 OA
HETATM   37  C   UNL     1      -6.313   4.784 -29.368  1.00  0.00     0.210 C 
ENDBRANCH   7  36
BRANCH   6  38
HETATM   38  O   UNL     1      -3.701   2.241 -30.988  1.00  0.00    -0.347 OA
BRANCH  38  39
HETATM   39  C   UNL     1      -2.939   3.049 -31.892  1.00  0.00     0.206 C 
BRANCH  39  40
HETATM   40  C   UNL     1      -3.222   4.518 -31.536  1.00  0.00     0.299 C 
BRANCH  40  41
HETATM   41  N   UNL     1      -3.343   5.423 -32.697  1.00  0.00     0.093 N 
HETATM   42  C   UNL     1      -3.554   6.837 -32.324  1.00  0.00     0.300 C 
HETATM   43  C   UNL     1      -4.959   7.168 -31.781  1.00  0.00     0.264 C 
HETATM   44  N   UNL     1      -6.023   6.697 -32.759  1.00  0.00    -0.072 N 
HETATM   45  H   UNL     1      -5.879   7.228 -33.629  1.00  0.00     0.279 HD
HETATM   46  C   UNL     1      -7.409   6.999 -32.273  1.00  0.00     0.269 C 
HETATM   47  C   UNL     1      -5.848   5.229 -33.114  1.00  0.00     0.264 C 
HETATM   48  C   UNL     1      -4.411   4.974 -33.616  1.00  0.00     0.300 C 
ENDBRANCH  40  41
ENDBRANCH  39  40
ENDBRANCH  38  39
ENDBRANCH   6  38
TORSDOF 11
ENDMDL
MODEL 4
REMARK VINA RESULT:      -9.3      2.200      9.789
REMARK  11 active torsions:
REMARK  status: ('A' for Active; 'I' for Inactive)
REMARK    1  A    between atoms: C_2  and  C_3 
REMARK    2  A    between atoms: C_3  and  C_4 
REMARK       I    between atoms: C_4  and  N_6 
REMARK    3  A    between atoms: N_6  and  C_7 
REMARK    4  A    between atoms: C_11  and  C_13 
REMARK    5  A    between atoms: C_15  and  N_16 
REMARK    6  A    between atoms: N_16  and  C_17 
REMARK    7  A    between atoms: C_29  and  O_30 
REMARK    8  A    between atoms: O_30  and  C_31 
REMARK    9  A    between atoms: C_31  and  C_32 
REMARK   10  A    between atoms: C_32  and  N_33 
REMARK   11  A    between atoms: C_41  and  O_42 
ROOT
HETATM    1  C   UNL     1      -9.027   2.467 -33.698  1.00  0.00     0.162 A 
HETATM    2  N   UNL     1      -8.532   1.387 -33.079  1.00  0.00    -0.215 NA
HETATM    3  C   UNL     1      -7.232   1.381 -32.763  1.00  0.00     0.122 A 
HETATM    4  C   UNL     1      -6.395   2.467 -33.057  1.00  0.00     0.036 A 
HETATM    5  C   UNL     1      -5.007   2.510 -32.774  1.00  0.00     0.057 A 
HETATM    6  C   UNL     1      -4.242   3.626 -33.109  1.00  0.00     0.103 A 
HETATM    7  C   UNL     1      -4.885   4.735 -33.662  1.00  0.00     0.103 A 
HETATM    8  C   UNL     1      -6.251   4.680 -33.956  1.00  0.00     0.072 A 
HETATM    9  C   UNL     1      -7.021   3.563 -33.664  1.00  0.00     0.075 A 
HETATM   10  N   UNL     1      -8.319   3.573 -33.979  1.00  0.00    -0.228 NA
ENDROOT
BRANCH   1  11
HETATM   11  C   UNL     1     -10.418   2.384 -34.173  1.00  0.00     0.014 A 
HETATM   12  C   UNL     1     -11.213   1.246 -33.964  1.00  0.00     0.015 A 
HETATM   13  C   UNL     1     -12.529   1.196 -34.427  1.00  0.00     0.003 A 
HETATM   14  C   UNL     1     -13.082   2.293 -35.092  1.00  0.00     0.029 A 
HETATM   15  C   UNL     1     -12.329   3.453 -35.290  1.00  0.00     0.035 A 
HETATM   16  C   UNL     1     -11.006   3.479 -34.844  1.00  0.00     0.044 A 
BRANCH  15  17
HETATM   17  N   UNL     1     -12.949   4.538 -35.948  1.00  0.00    -0.327 N 
HETATM   18  C   UNL     1     -13.237   5.783 -35.409  1.00  0.00     0.222 C 
HETATM   19  O   UNL     1     -13.086   6.124 -34.240  1.00  0.00    -0.273 OA
HETATM   20  H   UNL     1     -13.274   4.362 -36.890  1.00  0.00     0.169 HD
BRANCH  18  21
HETATM   21  C   UNL     1     -13.811   6.729 -36.452  1.00  0.00     0.103 C 
BRANCH  21  22
HETATM   22  C   UNL     1     -12.876   7.904 -36.735  1.00  0.00     0.005 C 
HETATM   23  C   UNL     1     -13.025   8.412 -38.158  1.00  0.00     0.005 C 
ENDBRANCH  21  22
ENDBRANCH  18  21
ENDBRANCH  15  17
ENDBRANCH   1  11
BRANCH   3  24
HETATM   24  N   UNL     1      -6.674   0.201 -32.196  1.00  0.00    -0.243 NA
HETATM   25  H   UNL     1      -6.025   0.493 -31.470  1.00  0.00     0.135 HD
BRANCH  24  26
HETATM   26  C   UNL     1      -6.151  -0.904 -32.918  1.00  0.00     0.015 A 
HETATM   27  C   UNL     1      -4.787  -1.217 -32.797  1.00  0.00     0.026 A 
HETATM   28  C   UNL     1      -4.219  -2.335 -33.425  1.00  0.00     0.034 A 
HETATM   29  C   UNL     1      -5.080  -3.154 -34.157  1.00  0.00     0.061 A 
HETATM   30  N   UNL     1      -4.861  -4.297 -34.881  1.00  0.00    -0.278 N 
HETATM   31  C   UNL     1      -6.441  -2.904 -34.271  1.00  0.00     0.013 A 
HETATM   32  H   UNL     1      -3.980  -4.773 -35.034  1.00  0.00     0.189 HD
HETATM   33  N   UNL     1      -5.972  -4.821 -35.430  1.00  0.00    -0.186 NA
HETATM   34  C   UNL     1      -6.930  -3.964 -35.065  1.00  0.00     0.152 A 
HETATM   35  C   UNL     1      -6.989  -1.775 -33.636  1.00  0.00     0.039 A 
ENDBRANCH  24  26
ENDBRANCH   3  24
BRANCH   7  36
HETATM   36  O   UNL     1      -4.241   5.888 -34.034  1.00  0.00    -0.353 OA
HETATM   37  C   UNL     1      -3.243   5.672 -35.030  1.00  0.00     0.210 C 
ENDBRANCH   7  36
BRANCH   6  38
HETATM   38  O   UNL     1      -2.891   3.697 -32.901  1.00  0.00    -0.347 OA
BRANCH  38  39
HETATM   39  C   UNL     1      -2.486   3.830 -31.533  1.00  0.00     0.206 C 
BRANCH  39  40
HETATM   40  C   UNL     1      -2.384   5.336 -31.236  1.00  0.00     0.299 C 
BRANCH  40  41
HETATM   41  N   UNL     1      -1.107   5.959 -31.639  1.00  0.00     0.093 N 
HETATM   42  C   UNL     1       0.084   5.202 -31.201  1.00  0.00     0.300 C 
HETATM   43  C   UNL     1       0.393   5.284 -29.692  1.00  0.00     0.264 C 
HETATM   44  N   UNL     1       0.480   6.737 -29.253  1.00  0.00    -0.072 N 
HETATM   45  H   UNL     1       1.267   7.154 -29.768  1.00  0.00     0.279 HD
HETATM   46  C   UNL     1       0.781   6.866 -27.790  1.00  0.00     0.269 C 
HETATM   47  C   UNL     1      -0.762   7.518 -29.654  1.00  0.00     0.264 C 
HETATM   48  C   UNL     1      -1.022   7.358 -31.167  1.00  0.00     0.300 C 
ENDBRANCH  40  41
ENDBRANCH  39  40
ENDBRANCH  38  39
ENDBRANCH   6  38
TORSDOF 11
ENDMDL
MODEL 5
REMARK VINA RESULT:      -9.1      2.376     10.149
REMARK  11 active torsions:
REMARK  status: ('A' for Active; 'I' for Inactive)
REMARK    1  A    between atoms: C_2  and  C_3 
REMARK    2  A    between atoms: C_3  and  C_4 
REMARK       I    between atoms: C_4  and  N_6 
REMARK    3  A    between atoms: N_6  and  C_7 
REMARK    4  A    between atoms: C_11  and  C_13 
REMARK    5  A    between atoms: C_15  and  N_16 
REMARK    6  A    between atoms: N_16  and  C_17 
REMARK    7  A    between atoms: C_29  and  O_30 
REMARK    8  A    between atoms: O_30  and  C_31 
REMARK    9  A    between atoms: C_31  and  C_32 
REMARK   10  A    between atoms: C_32  and  N_33 
REMARK   11  A    between atoms: C_41  and  O_42 
ROOT
HETATM    1  C   UNL     1     -10.434   2.115 -33.487  1.00  0.00     0.162 A 
HETATM    2  N   UNL     1      -9.476   1.370 -34.056  1.00  0.00    -0.215 NA
HETATM    3  C   UNL     1      -8.263   1.915 -34.213  1.00  0.00     0.122 A 
HETATM    4  C   UNL     1      -7.981   3.222 -33.794  1.00  0.00     0.036 A 
HETATM    5  C   UNL     1      -6.727   3.863 -33.957  1.00  0.00     0.057 A 
HETATM    6  C   UNL     1      -6.530   5.173 -33.521  1.00  0.00     0.103 A 
HETATM    7  C   UNL     1      -7.572   5.817 -32.851  1.00  0.00     0.103 A 
HETATM    8  C   UNL     1      -8.813   5.187 -32.710  1.00  0.00     0.072 A 
HETATM    9  C   UNL     1      -9.037   3.897 -33.170  1.00  0.00     0.075 A 
HETATM   10  N   UNL     1     -10.248   3.356 -33.011  1.00  0.00    -0.228 NA
ENDROOT
BRANCH   1  11
HETATM   11  C   UNL     1     -11.794   1.551 -33.469  1.00  0.00     0.014 A 
HETATM   12  C   UNL     1     -12.040   0.187 -33.694  1.00  0.00     0.015 A 
HETATM   13  C   UNL     1     -13.341  -0.319 -33.673  1.00  0.00     0.003 A 
HETATM   14  C   UNL     1     -14.420   0.528 -33.407  1.00  0.00     0.029 A 
HETATM   15  C   UNL     1     -14.207   1.885 -33.149  1.00  0.00     0.035 A 
HETATM   16  C   UNL     1     -12.903   2.381 -33.199  1.00  0.00     0.044 A 
BRANCH  15  17
HETATM   17  N   UNL     1     -15.334   2.687 -32.863  1.00  0.00    -0.327 N 
HETATM   18  C   UNL     1     -15.402   3.731 -31.953  1.00  0.00     0.222 C 
HETATM   19  O   UNL     1     -14.521   4.078 -31.174  1.00  0.00    -0.273 OA
HETATM   20  H   UNL     1     -16.196   2.426 -33.324  1.00  0.00     0.169 HD
BRANCH  18  21
HETATM   21  C   UNL     1     -16.753   4.429 -31.997  1.00  0.00     0.103 C 
BRANCH  21  22
HETATM   22  C   UNL     1     -17.912   3.440 -31.868  1.00  0.00     0.005 C 
HETATM   23  C   UNL     1     -18.850   3.514 -33.059  1.00  0.00     0.005 C 
ENDBRANCH  21  22
ENDBRANCH  18  21
ENDBRANCH  15  17
ENDBRANCH   1  11
BRANCH   3  24
HETATM   24  N   UNL     1      -7.267   1.170 -34.905  1.00  0.00    -0.243 NA
HETATM   25  H   UNL     1      -7.673   0.869 -35.786  1.00  0.00     0.135 HD
BRANCH  24  26
HETATM   26  C   UNL     1      -6.460   0.142 -34.350  1.00  0.00     0.015 A 
HETATM   27  C   UNL     1      -6.512  -1.146 -34.908  1.00  0.00     0.026 A 
HETATM   28  C   UNL     1      -5.692  -2.189 -34.455  1.00  0.00     0.034 A 
HETATM   29  C   UNL     1      -4.786  -1.886 -33.438  1.00  0.00     0.061 A 
HETATM   30  N   UNL     1      -3.861  -2.651 -32.777  1.00  0.00    -0.278 N 
HETATM   31  C   UNL     1      -4.673  -0.617 -32.884  1.00  0.00     0.013 A 
HETATM   32  H   UNL     1      -3.667  -3.637 -32.908  1.00  0.00     0.189 HD
HETATM   33  N   UNL     1      -3.142  -1.977 -31.863  1.00  0.00    -0.186 NA
HETATM   34  C   UNL     1      -3.646  -0.741 -31.923  1.00  0.00     0.152 A 
HETATM   35  C   UNL     1      -5.508   0.414 -33.351  1.00  0.00     0.039 A 
ENDBRANCH  24  26
ENDBRANCH   3  24
BRANCH   7  36
HETATM   36  O   UNL     1      -7.501   7.103 -32.378  1.00  0.00    -0.353 OA
HETATM   37  C   UNL     1      -8.771   7.752 -32.331  1.00  0.00     0.210 C 
ENDBRANCH   7  36
BRANCH   6  38
HETATM   38  O   UNL     1      -5.355   5.852 -33.697  1.00  0.00    -0.347 OA
BRANCH  38  39
HETATM   39  C   UNL     1      -4.170   5.049 -33.659  1.00  0.00     0.206 C 
BRANCH  39  40
HETATM   40  C   UNL     1      -3.059   5.848 -34.361  1.00  0.00     0.299 C 
BRANCH  40  41
HETATM   41  N   UNL     1      -1.707   5.652 -33.797  1.00  0.00     0.093 N 
HETATM   42  C   UNL     1      -1.700   4.881 -32.537  1.00  0.00     0.300 C 
HETATM   43  C   UNL     1      -2.225   5.639 -31.301  1.00  0.00     0.264 C 
HETATM   44  N   UNL     1      -1.481   6.955 -31.139  1.00  0.00    -0.072 N 
HETATM   45  H   UNL     1      -0.493   6.717 -30.976  1.00  0.00     0.279 HD
HETATM   46  C   UNL     1      -1.958   7.729 -29.947  1.00  0.00     0.269 C 
HETATM   47  C   UNL     1      -1.523   7.783 -32.414  1.00  0.00     0.264 C 
HETATM   48  C   UNL     1      -1.015   6.945 -33.606  1.00  0.00     0.300 C 
ENDBRANCH  40  41
ENDBRANCH  39  40
ENDBRANCH  38  39
ENDBRANCH   6  38
TORSDOF 11
ENDMDL
MODEL 6
REMARK VINA RESULT:      -9.0      1.978      9.831
REMARK  11 active torsions:
REMARK  status: ('A' for Active; 'I' for Inactive)
REMARK    1  A    between atoms: C_2  and  C_3 
REMARK    2  A    between atoms: C_3  and  C_4 
REMARK       I    between atoms: C_4  and  N_6 
REMARK    3  A    between atoms: N_6  and  C_7 
REMARK    4  A    between atoms: C_11  and  C_13 
REMARK    5  A    between atoms: C_15  and  N_16 
REMARK    6  A    between atoms: N_16  and  C_17 
REMARK    7  A    between atoms: C_29  and  O_30 
REMARK    8  A    between atoms: O_30  and  C_31 
REMARK    9  A    between atoms: C_31  and  C_32 
REMARK   10  A    between atoms: C_32  and  N_33 
REMARK   11  A    between atoms: C_41  and  O_42 
ROOT
HETATM    1  C   UNL     1      -9.207   2.481 -33.528  1.00  0.00     0.162 A 
HETATM    2  N   UNL     1      -8.694   1.390 -32.943  1.00  0.00    -0.215 NA
HETATM    3  C   UNL     1      -7.382   1.373 -32.678  1.00  0.00     0.122 A 
HETATM    4  C   UNL     1      -6.552   2.459 -32.989  1.00  0.00     0.036 A 
HETATM    5  C   UNL     1      -5.154   2.491 -32.758  1.00  0.00     0.057 A 
HETATM    6  C   UNL     1      -4.396   3.608 -33.107  1.00  0.00     0.103 A 
HETATM    7  C   UNL     1      -5.054   4.728 -33.619  1.00  0.00     0.103 A 
HETATM    8  C   UNL     1      -6.431   4.684 -33.862  1.00  0.00     0.072 A 
HETATM    9  C   UNL     1      -7.194   3.567 -33.555  1.00  0.00     0.075 A 
HETATM   10  N   UNL     1      -8.504   3.587 -33.820  1.00  0.00    -0.228 NA
ENDROOT
BRANCH   1  11
HETATM   11  C   UNL     1     -10.616   2.411 -33.949  1.00  0.00     0.014 A 
HETATM   12  C   UNL     1     -11.088   1.413 -34.815  1.00  0.00     0.015 A 
HETATM   13  C   UNL     1     -12.430   1.373 -35.199  1.00  0.00     0.003 A 
HETATM   14  C   UNL     1     -13.329   2.323 -34.707  1.00  0.00     0.029 A 
HETATM   15  C   UNL     1     -12.898   3.312 -33.820  1.00  0.00     0.035 A 
HETATM   16  C   UNL     1     -11.549   3.354 -33.466  1.00  0.00     0.044 A 
BRANCH  15  17
HETATM   17  N   UNL     1     -13.858   4.230 -33.339  1.00  0.00    -0.327 N 
HETATM   18  C   UNL     1     -14.676   4.073 -32.230  1.00  0.00     0.222 C 
HETATM   19  O   UNL     1     -14.770   3.071 -31.530  1.00  0.00    -0.273 OA
HETATM   20  H   UNL     1     -14.007   5.057 -33.902  1.00  0.00     0.169 HD
BRANCH  18  21
HETATM   21  C   UNL     1     -15.506   5.319 -31.962  1.00  0.00     0.103 C 
BRANCH  21  22
HETATM   22  C   UNL     1     -14.985   6.107 -30.760  1.00  0.00     0.005 C 
HETATM   23  C   UNL     1     -16.096   6.441 -29.781  1.00  0.00     0.005 C 
ENDBRANCH  21  22
ENDBRANCH  18  21
ENDBRANCH  15  17
ENDBRANCH   1  11
BRANCH   3  24
HETATM   24  N   UNL     1      -6.809   0.183 -32.148  1.00  0.00    -0.243 NA
HETATM   25  H   UNL     1      -6.167   0.460 -31.411  1.00  0.00     0.135 HD
BRANCH  24  26
HETATM   26  C   UNL     1      -6.268  -0.889 -32.905  1.00  0.00     0.015 A 
HETATM   27  C   UNL     1      -4.889  -1.149 -32.835  1.00  0.00     0.026 A 
HETATM   28  C   UNL     1      -4.299  -2.233 -33.501  1.00  0.00     0.034 A 
HETATM   29  C   UNL     1      -5.151  -3.075 -34.217  1.00  0.00     0.061 A 
HETATM   30  N   UNL     1      -4.913  -4.198 -34.966  1.00  0.00    -0.278 N 
HETATM   31  C   UNL     1      -6.525  -2.879 -34.281  1.00  0.00     0.013 A 
HETATM   32  H   UNL     1      -4.019  -4.636 -35.156  1.00  0.00     0.189 HD
HETATM   33  N   UNL     1      -6.019  -4.758 -35.485  1.00  0.00    -0.186 NA
HETATM   34  C   UNL     1      -6.998  -3.946 -35.075  1.00  0.00     0.152 A 
HETATM   35  C   UNL     1      -7.094  -1.783 -33.609  1.00  0.00     0.039 A 
ENDBRANCH  24  26
ENDBRANCH   3  24
BRANCH   7  36
HETATM   36  O   UNL     1      -4.419   5.883 -34.001  1.00  0.00    -0.353 OA
HETATM   37  C   UNL     1      -3.418   5.668 -34.994  1.00  0.00     0.210 C 
ENDBRANCH   7  36
BRANCH   6  38
HETATM   38  O   UNL     1      -3.038   3.670 -32.950  1.00  0.00    -0.347 OA
BRANCH  38  39
HETATM   39  C   UNL     1      -2.578   3.733 -31.595  1.00  0.00     0.206 C 
BRANCH  39  40
HETATM   40  C   UNL     1      -2.432   5.221 -31.235  1.00  0.00     0.299 C 
BRANCH  40  41
HETATM   41  N   UNL     1      -1.205   5.863 -31.750  1.00  0.00     0.093 N 
HETATM   42  C   UNL     1       0.039   5.226 -31.271  1.00  0.00     0.300 C 
HETATM   43  C   UNL     1       0.387   5.495 -29.792  1.00  0.00     0.264 C 
HETATM   44  N   UNL     1       0.401   6.992 -29.522  1.00  0.00    -0.072 N 
HETATM   45  H   UNL     1       1.148   7.389 -30.108  1.00  0.00     0.279 HD
HETATM   46  C   UNL     1       0.736   7.303 -28.095  1.00  0.00     0.269 C 
HETATM   47  C   UNL     1      -0.894   7.654 -29.965  1.00  0.00     0.264 C 
HETATM   48  C   UNL     1      -1.188   7.309 -31.440  1.00  0.00     0.300 C 
ENDBRANCH  40  41
ENDBRANCH  39  40
ENDBRANCH  38  39
ENDBRANCH   6  38
TORSDOF 11
ENDMDL
MODEL 7
REMARK VINA RESULT:      -9.0      2.639     10.001
REMARK  11 active torsions:
REMARK  status: ('A' for Active; 'I' for Inactive)
REMARK    1  A    between atoms: C_2  and  C_3 
REMARK    2  A    between atoms: C_3  and  C_4 
REMARK       I    between atoms: C_4  and  N_6 
REMARK    3  A    between atoms: N_6  and  C_7 
REMARK    4  A    between atoms: C_11  and  C_13 
REMARK    5  A    between atoms: C_15  and  N_16 
REMARK    6  A    between atoms: N_16  and  C_17 
REMARK    7  A    between atoms: C_29  and  O_30 
REMARK    8  A    between atoms: O_30  and  C_31 
REMARK    9  A    between atoms: C_31  and  C_32 
REMARK   10  A    between atoms: C_32  and  N_33 
REMARK   11  A    between atoms: C_41  and  O_42 
ROOT
HETATM    1  C   UNL     1      -9.730   2.654 -32.712  1.00  0.00     0.162 A 
HETATM    2  N   UNL     1      -8.631   2.216 -33.342  1.00  0.00    -0.215 NA
HETATM    3  C   UNL     1      -7.438   2.585 -32.860  1.00  0.00     0.122 A 
HETATM    4  C   UNL     1      -7.320   3.400 -31.726  1.00  0.00     0.036 A 
HETATM    5  C   UNL     1      -6.088   3.847 -31.185  1.00  0.00     0.057 A 
HETATM    6  C   UNL     1      -6.057   4.666 -30.057  1.00  0.00     0.103 A 
HETATM    7  C   UNL     1      -7.262   4.977 -29.424  1.00  0.00     0.103 A 
HETATM    8  C   UNL     1      -8.475   4.550 -29.973  1.00  0.00     0.072 A 
HETATM    9  C   UNL     1      -8.526   3.765 -31.116  1.00  0.00     0.075 A 
HETATM   10  N   UNL     1      -9.719   3.397 -31.594  1.00  0.00    -0.228 NA
ENDROOT
BRANCH   1  11
HETATM   11  C   UNL     1     -11.024   2.365 -33.351  1.00  0.00     0.014 A 
HETATM   12  C   UNL     1     -11.157   1.410 -34.371  1.00  0.00     0.015 A 
HETATM   13  C   UNL     1     -12.398   1.158 -34.960  1.00  0.00     0.003 A 
HETATM   14  C   UNL     1     -13.534   1.844 -34.524  1.00  0.00     0.029 A 
HETATM   15  C   UNL     1     -13.443   2.779 -33.490  1.00  0.00     0.035 A 
HETATM   16  C   UNL     1     -12.191   3.039 -32.929  1.00  0.00     0.044 A 
BRANCH  15  17
HETATM   17  N   UNL     1     -14.629   3.425 -33.077  1.00  0.00    -0.327 N 
HETATM   18  C   UNL     1     -15.567   2.943 -32.176  1.00  0.00     0.222 C 
HETATM   19  O   UNL     1     -15.573   1.834 -31.653  1.00  0.00    -0.273 OA
HETATM   20  H   UNL     1     -14.846   4.299 -33.538  1.00  0.00     0.169 HD
BRANCH  18  21
HETATM   21  C   UNL     1     -16.659   3.965 -31.900  1.00  0.00     0.103 C 
BRANCH  21  22
HETATM   22  C   UNL     1     -18.027   3.307 -31.723  1.00  0.00     0.005 C 
HETATM   23  C   UNL     1     -18.807   3.270 -33.026  1.00  0.00     0.005 C 
ENDBRANCH  21  22
ENDBRANCH  18  21
ENDBRANCH  15  17
ENDBRANCH   1  11
BRANCH   3  24
HETATM   24  N   UNL     1      -6.268   2.209 -33.578  1.00  0.00    -0.243 NA
HETATM   25  H   UNL     1      -6.356   2.588 -34.517  1.00  0.00     0.135 HD
BRANCH  24  26
HETATM   26  C   UNL     1      -5.695   0.911 -33.615  1.00  0.00     0.015 A 
HETATM   27  C   UNL     1      -4.585   0.629 -32.801  1.00  0.00     0.026 A 
HETATM   28  C   UNL     1      -4.015  -0.651 -32.735  1.00  0.00     0.034 A 
HETATM   29  C   UNL     1      -4.621  -1.654 -33.493  1.00  0.00     0.061 A 
HETATM   30  N   UNL     1      -4.325  -2.982 -33.657  1.00  0.00    -0.278 N 
HETATM   31  C   UNL     1      -5.742  -1.429 -34.280  1.00  0.00     0.013 A 
HETATM   32  H   UNL     1      -3.561  -3.502 -33.243  1.00  0.00     0.189 HD
HETATM   33  N   UNL     1      -5.178  -3.639 -34.463  1.00  0.00    -0.186 NA
HETATM   34  C   UNL     1      -6.033  -2.688 -34.849  1.00  0.00     0.152 A 
HETATM   35  C   UNL     1      -6.296  -0.137 -34.335  1.00  0.00     0.039 A 
ENDBRANCH  24  26
ENDBRANCH   3  24
BRANCH   7  36
HETATM   36  O   UNL     1      -7.360   5.774 -28.312  1.00  0.00    -0.353 OA
HETATM   37  C   UNL     1      -8.561   6.543 -28.280  1.00  0.00     0.210 C 
ENDBRANCH   7  36
BRANCH   6  38
HETATM   38  O   UNL     1      -4.898   5.162 -29.525  1.00  0.00    -0.347 OA
BRANCH  38  39
HETATM   39  C   UNL     1      -4.676   6.562 -29.733  1.00  0.00     0.206 C 
BRANCH  39  40
HETATM   40  C   UNL     1      -3.858   6.703 -31.028  1.00  0.00     0.299 C 
BRANCH  40  41
HETATM   41  N   UNL     1      -2.415   6.424 -30.881  1.00  0.00     0.093 N 
HETATM   42  C   UNL     1      -1.555   7.335 -31.663  1.00  0.00     0.300 C 
HETATM   43  C   UNL     1      -1.558   7.091 -33.187  1.00  0.00     0.264 C 
HETATM   44  N   UNL     1      -1.227   5.637 -33.485  1.00  0.00    -0.072 N 
HETATM   45  H   UNL     1      -0.274   5.474 -33.133  1.00  0.00     0.279 HD
HETATM   46  C   UNL     1      -1.217   5.352 -34.957  1.00  0.00     0.269 C 
HETATM   47  C   UNL     1      -2.139   4.687 -32.723  1.00  0.00     0.264 C 
HETATM   48  C   UNL     1      -2.106   5.018 -31.216  1.00  0.00     0.300 C 
ENDBRANCH  40  41
ENDBRANCH  39  40
ENDBRANCH  38  39
ENDBRANCH   6  38
TORSDOF 11
ENDMDL
MODEL 8
REMARK VINA RESULT:      -9.0      1.604      2.426
REMARK  11 active torsions:
REMARK  status: ('A' for Active; 'I' for Inactive)
REMARK    1  A    between atoms: C_2  and  C_3 
REMARK    2  A    between atoms: C_3  and  C_4 
REMARK       I    between atoms: C_4  and  N_6 
REMARK    3  A    between atoms: N_6  and  C_7 
REMARK    4  A    between atoms: C_11  and  C_13 
REMARK    5  A    between atoms: C_15  and  N_16 
REMARK    6  A    between atoms: N_16  and  C_17 
REMARK    7  A    between atoms: C_29  and  O_30 
REMARK    8  A    between atoms: O_30  and  C_31 
REMARK    9  A    between atoms: C_31  and  C_32 
REMARK   10  A    between atoms: C_32  and  N_33 
REMARK   11  A    between atoms: C_41  and  O_42 
ROOT
HETATM    1  C   UNL     1      -5.194   4.495 -33.647  1.00  0.00     0.162 A 
HETATM    2  N   UNL     1      -5.409   3.269 -34.145  1.00  0.00    -0.215 NA
HETATM    3  C   UNL     1      -6.653   2.778 -34.098  1.00  0.00     0.122 A 
HETATM    4  C   UNL     1      -7.716   3.513 -33.555  1.00  0.00     0.036 A 
HETATM    5  C   UNL     1      -9.048   3.038 -33.451  1.00  0.00     0.057 A 
HETATM    6  C   UNL     1     -10.048   3.828 -32.887  1.00  0.00     0.103 A 
HETATM    7  C   UNL     1      -9.729   5.129 -32.493  1.00  0.00     0.103 A 
HETATM    8  C   UNL     1      -8.410   5.585 -32.580  1.00  0.00     0.072 A 
HETATM    9  C   UNL     1      -7.394   4.798 -33.105  1.00  0.00     0.075 A 
HETATM   10  N   UNL     1      -6.154   5.292 -33.151  1.00  0.00    -0.228 NA
ENDROOT
BRANCH   1  11
HETATM   11  C   UNL     1      -3.795   4.946 -33.569  1.00  0.00     0.014 A 
HETATM   12  C   UNL     1      -3.021   5.185 -34.715  1.00  0.00     0.015 A 
HETATM   13  C   UNL     1      -1.695   5.611 -34.609  1.00  0.00     0.003 A 
HETATM   14  C   UNL     1      -1.125   5.825 -33.352  1.00  0.00     0.029 A 
HETATM   15  C   UNL     1      -1.877   5.626 -32.191  1.00  0.00     0.035 A 
HETATM   16  C   UNL     1      -3.192   5.175 -32.312  1.00  0.00     0.044 A 
BRANCH  15  17
HETATM   17  N   UNL     1      -1.254   5.882 -30.950  1.00  0.00    -0.327 N 
HETATM   18  C   UNL     1      -0.029   5.395 -30.518  1.00  0.00     0.222 C 
HETATM   19  O   UNL     1       0.681   4.585 -31.105  1.00  0.00    -0.273 OA
HETATM   20  H   UNL     1      -1.790   6.423 -30.283  1.00  0.00     0.169 HD
BRANCH  18  21
HETATM   21  C   UNL     1       0.362   5.972 -29.166  1.00  0.00     0.103 C 
BRANCH  21  22
HETATM   22  C   UNL     1       0.120   7.480 -29.096  1.00  0.00     0.005 C 
HETATM   23  C   UNL     1       1.172   8.180 -28.255  1.00  0.00     0.005 C 
ENDBRANCH  21  22
ENDBRANCH  18  21
ENDBRANCH  15  17
ENDBRANCH   1  11
BRANCH   3  24
HETATM   24  N   UNL     1      -6.874   1.441 -34.532  1.00  0.00    -0.243 NA
HETATM   25  H   UNL     1      -7.876   1.274 -34.495  1.00  0.00     0.135 HD
BRANCH  24  26
HETATM   26  C   UNL     1      -6.161   0.294 -34.093  1.00  0.00     0.015 A 
HETATM   27  C   UNL     1      -6.353  -0.927 -34.759  1.00  0.00     0.026 A 
HETATM   28  C   UNL     1      -5.629  -2.081 -34.424  1.00  0.00     0.034 A 
HETATM   29  C   UNL     1      -4.674  -1.958 -33.414  1.00  0.00     0.061 A 
HETATM   30  N   UNL     1      -3.815  -2.865 -32.851  1.00  0.00    -0.278 N 
HETATM   31  C   UNL     1      -4.424  -0.761 -32.756  1.00  0.00     0.013 A 
HETATM   32  H   UNL     1      -3.722  -3.849 -33.072  1.00  0.00     0.189 HD
HETATM   33  N   UNL     1      -3.012  -2.347 -31.904  1.00  0.00    -0.186 NA
HETATM   34  C   UNL     1      -3.393  -1.069 -31.841  1.00  0.00     0.152 A 
HETATM   35  C   UNL     1      -5.164   0.383 -33.105  1.00  0.00     0.039 A 
ENDBRANCH  24  26
ENDBRANCH   3  24
BRANCH   7  36
HETATM   36  O   UNL     1     -10.624   5.999 -31.924  1.00  0.00    -0.353 OA
HETATM   37  C   UNL     1     -10.451   6.134 -30.514  1.00  0.00     0.210 C 
ENDBRANCH   7  36
BRANCH   6  38
HETATM   38  O   UNL     1     -11.337   3.398 -32.721  1.00  0.00    -0.347 OA
BRANCH  38  39
HETATM   39  C   UNL     1     -12.164   3.469 -33.889  1.00  0.00     0.206 C 
BRANCH  39  40
HETATM   40  C   UNL     1     -13.535   4.004 -33.441  1.00  0.00     0.299 C 
BRANCH  40  41
HETATM   41  N   UNL     1     -13.958   3.568 -32.095  1.00  0.00     0.093 N 
HETATM   42  C   UNL     1     -14.640   2.259 -32.086  1.00  0.00     0.300 C 
HETATM   43  C   UNL     1     -16.074   2.262 -32.655  1.00  0.00     0.264 C 
HETATM   44  N   UNL     1     -16.913   3.319 -31.953  1.00  0.00    -0.072 N 
HETATM   45  H   UNL     1     -16.959   3.048 -30.962  1.00  0.00     0.279 HD
HETATM   46  C   UNL     1     -18.318   3.359 -32.474  1.00  0.00     0.269 C 
HETATM   47  C   UNL     1     -16.245   4.685 -31.998  1.00  0.00     0.264 C 
HETATM   48  C   UNL     1     -14.808   4.589 -31.445  1.00  0.00     0.300 C 
ENDBRANCH  40  41
ENDBRANCH  39  40
ENDBRANCH  38  39
ENDBRANCH   6  38
TORSDOF 11
ENDMDL
MODEL 9
REMARK VINA RESULT:      -8.9      3.746     10.983
REMARK  11 active torsions:
REMARK  status: ('A' for Active; 'I' for Inactive)
REMARK    1  A    between atoms: C_2  and  C_3 
REMARK    2  A    between atoms: C_3  and  C_4 
REMARK       I    between atoms: C_4  and  N_6 
REMARK    3  A    between atoms: N_6  and  C_7 
REMARK    4  A    between atoms: C_11  and  C_13 
REMARK    5  A    between atoms: C_15  and  N_16 
REMARK    6  A    between atoms: N_16  and  C_17 
REMARK    7  A    between atoms: C_29  and  O_30 
REMARK    8  A    between atoms: O_30  and  C_31 
REMARK    9  A    between atoms: C_31  and  C_32 
REMARK   10  A    between atoms: C_32  and  N_33 
REMARK   11  A    between atoms: C_41  and  O_42 
ROOT
HETATM    1  C   UNL     1      -6.113   3.732 -32.464  1.00  0.00     0.162 A 
HETATM    2  N   UNL     1      -6.673   4.588 -31.598  1.00  0.00    -0.215 NA
HETATM    3  C   UNL     1      -6.050   5.749 -31.366  1.00  0.00     0.122 A 
HETATM    4  C   UNL     1      -4.849   6.084 -32.005  1.00  0.00     0.036 A 
HETATM    5  C   UNL     1      -4.128   7.284 -31.781  1.00  0.00     0.057 A 
HETATM    6  C   UNL     1      -2.932   7.537 -32.452  1.00  0.00     0.103 A 
HETATM    7  C   UNL     1      -2.495   6.618 -33.407  1.00  0.00     0.103 A 
HETATM    8  C   UNL     1      -3.200   5.427 -33.610  1.00  0.00     0.072 A 
HETATM    9  C   UNL     1      -4.372   5.142 -32.925  1.00  0.00     0.075 A 
HETATM   10  N   UNL     1      -4.992   3.982 -33.159  1.00  0.00    -0.228 NA
ENDROOT
BRANCH   1  11
HETATM   11  C   UNL     1      -6.732   2.402 -32.582  1.00  0.00     0.014 A 
HETATM   12  C   UNL     1      -8.023   2.133 -32.100  1.00  0.00     0.015 A 
HETATM   13  C   UNL     1      -8.584   0.861 -32.225  1.00  0.00     0.003 A 
HETATM   14  C   UNL     1      -7.870  -0.163 -32.853  1.00  0.00     0.029 A 
HETATM   15  C   UNL     1      -6.595   0.079 -33.371  1.00  0.00     0.035 A 
HETATM   16  C   UNL     1      -6.037   1.349 -33.215  1.00  0.00     0.044 A 
BRANCH  15  17
HETATM   17  N   UNL     1      -5.932  -0.988 -34.016  1.00  0.00    -0.327 N 
HETATM   18  C   UNL     1      -4.894  -1.753 -33.504  1.00  0.00     0.222 C 
HETATM   19  O   UNL     1      -4.313  -1.574 -32.439  1.00  0.00    -0.273 OA
HETATM   20  H   UNL     1      -6.201  -1.167 -34.975  1.00  0.00     0.169 HD
BRANCH  18  21
HETATM   21  C   UNL     1      -4.508  -2.881 -34.449  1.00  0.00     0.103 C 
BRANCH  21  22
HETATM   22  C   UNL     1      -5.655  -3.263 -35.383  1.00  0.00     0.005 C 
HETATM   23  C   UNL     1      -6.414  -4.476 -34.876  1.00  0.00     0.005 C 
ENDBRANCH  21  22
ENDBRANCH  18  21
ENDBRANCH  15  17
ENDBRANCH   1  11
BRANCH   3  24
HETATM   24  N   UNL     1      -6.583   6.622 -30.375  1.00  0.00    -0.243 NA
HETATM   25  H   UNL     1      -6.768   7.513 -30.827  1.00  0.00     0.135 HD
BRANCH  24  26
HETATM   26  C   UNL     1      -6.057   6.822 -29.072  1.00  0.00     0.015 A 
HETATM   27  C   UNL     1      -5.591   5.715 -28.344  1.00  0.00     0.026 A 
HETATM   28  C   UNL     1      -4.995   5.849 -27.081  1.00  0.00     0.034 A 
HETATM   29  C   UNL     1      -4.852   7.145 -26.584  1.00  0.00     0.061 A 
HETATM   30  N   UNL     1      -4.328   7.623 -25.411  1.00  0.00    -0.278 N 
HETATM   31  C   UNL     1      -5.263   8.270 -27.286  1.00  0.00     0.013 A 
HETATM   32  H   UNL     1      -3.940   7.088 -24.643  1.00  0.00     0.189 HD
HETATM   33  N   UNL     1      -4.342   8.964 -25.309  1.00  0.00    -0.186 NA
HETATM   34  C   UNL     1      -4.921   9.354 -26.447  1.00  0.00     0.152 A 
HETATM   35  C   UNL     1      -5.861   8.113 -28.549  1.00  0.00     0.039 A 
ENDBRANCH  24  26
ENDBRANCH   3  24
BRANCH   7  36
HETATM   36  O   UNL     1      -1.336   6.754 -34.128  1.00  0.00    -0.353 OA
HETATM   37  C   UNL     1      -0.994   5.579 -34.861  1.00  0.00     0.210 C 
ENDBRANCH   7  36
BRANCH   6  38
HETATM   38  O   UNL     1      -2.176   8.657 -32.236  1.00  0.00    -0.347 OA
BRANCH  38  39
HETATM   39  C   UNL     1      -2.411   9.327 -30.992  1.00  0.00     0.206 C 
BRANCH  39  40
HETATM   40  C   UNL     1      -1.383   8.787 -29.984  1.00  0.00     0.299 C 
BRANCH  40  41
HETATM   41  N   UNL     1      -1.924   8.517 -28.636  1.00  0.00     0.093 N 
HETATM   42  C   UNL     1      -1.485   9.493 -27.618  1.00  0.00     0.300 C 
HETATM   43  C   UNL     1      -0.014   9.362 -27.174  1.00  0.00     0.264 C 
HETATM   44  N   UNL     1       0.271   7.938 -26.723  1.00  0.00    -0.072 N 
HETATM   45  H   UNL     1      -0.330   7.762 -25.906  1.00  0.00     0.279 HD
HETATM   46  C   UNL     1       1.693   7.762 -26.280  1.00  0.00     0.269 C 
HETATM   47  C   UNL     1      -0.129   6.923 -27.782  1.00  0.00     0.264 C 
HETATM   48  C   UNL     1      -1.600   7.143 -28.196  1.00  0.00     0.300 C 
ENDBRANCH  40  41
ENDBRANCH  39  40
ENDBRANCH  38  39
ENDBRANCH   6  38
TORSDOF 11
ENDMDL
MODEL 10
REMARK VINA RESULT:      -8.7      3.693     10.456
REMARK  11 active torsions:
REMARK  status: ('A' for Active; 'I' for Inactive)
REMARK    1  A    between atoms: C_2  and  C_3 
REMARK    2  A    between atoms: C_3  and  C_4 
REMARK       I    between atoms: C_4  and  N_6 
REMARK    3  A    between atoms: N_6  and  C_7 
REMARK    4  A    between atoms: C_11  and  C_13 
REMARK    5  A    between atoms: C_15  and  N_16 
REMARK    6  A    between atoms: N_16  and  C_17 
REMARK    7  A    between atoms: C_29  and  O_30 
REMARK    8  A    between atoms: O_30  and  C_31 
REMARK    9  A    between atoms: C_31  and  C_32 
REMARK   10  A    between atoms: C_32  and  N_33 
REMARK   11  A    between atoms: C_41  and  O_42 
ROOT
HETATM    1  C   UNL     1      -7.558   3.288 -30.714  1.00  0.00     0.162 A 
HETATM    2  N   UNL     1      -6.218   3.280 -30.737  1.00  0.00    -0.215 NA
HETATM    3  C   UNL     1      -5.570   4.251 -30.081  1.00  0.00     0.122 A 
HETATM    4  C   UNL     1      -6.255   5.252 -29.378  1.00  0.00     0.036 A 
HETATM    5  C   UNL     1      -5.628   6.320 -28.688  1.00  0.00     0.057 A 
HETATM    6  C   UNL     1      -6.383   7.283 -28.021  1.00  0.00     0.103 A 
HETATM    7  C   UNL     1      -7.771   7.133 -27.981  1.00  0.00     0.103 A 
HETATM    8  C   UNL     1      -8.386   6.089 -28.679  1.00  0.00     0.072 A 
HETATM    9  C   UNL     1      -7.651   5.142 -29.379  1.00  0.00     0.075 A 
HETATM   10  N   UNL     1      -8.300   4.174 -30.032  1.00  0.00    -0.228 NA
ENDROOT
BRANCH   1  11
HETATM   11  C   UNL     1      -8.244   2.306 -31.570  1.00  0.00     0.014 A 
HETATM   12  C   UNL     1      -9.605   2.419 -31.894  1.00  0.00     0.015 A 
HETATM   13  C   UNL     1     -10.229   1.470 -32.706  1.00  0.00     0.003 A 
HETATM   14  C   UNL     1      -9.497   0.400 -33.226  1.00  0.00     0.029 A 
HETATM   15  C   UNL     1      -8.134   0.275 -32.949  1.00  0.00     0.035 A 
HETATM   16  C   UNL     1      -7.530   1.216 -32.114  1.00  0.00     0.044 A 
BRANCH  15  17
HETATM   17  N   UNL     1      -7.441  -0.815 -33.521  1.00  0.00    -0.327 N 
HETATM   18  C   UNL     1      -6.785  -0.833 -34.743  1.00  0.00     0.222 C 
HETATM   19  O   UNL     1      -6.771   0.066 -35.577  1.00  0.00    -0.273 OA
HETATM   20  H   UNL     1      -7.487  -1.690 -33.015  1.00  0.00     0.169 HD
BRANCH  18  21
HETATM   21  C   UNL     1      -6.064  -2.153 -34.975  1.00  0.00     0.103 C 
BRANCH  21  22
HETATM   22  C   UNL     1      -6.938  -3.353 -34.611  1.00  0.00     0.005 C 
HETATM   23  C   UNL     1      -6.483  -4.616 -35.320  1.00  0.00     0.005 C 
ENDBRANCH  21  22
ENDBRANCH  18  21
ENDBRANCH  15  17
ENDBRANCH   1  11
BRANCH   3  24
HETATM   24  N   UNL     1      -4.151   4.310 -30.179  1.00  0.00    -0.243 NA
HETATM   25  H   UNL     1      -3.794   4.532 -29.254  1.00  0.00     0.135 HD
BRANCH  24  26
HETATM   26  C   UNL     1      -3.414   4.999 -31.178  1.00  0.00     0.015 A 
HETATM   27  C   UNL     1      -2.816   6.230 -30.861  1.00  0.00     0.026 A 
HETATM   28  C   UNL     1      -2.016   6.928 -31.777  1.00  0.00     0.034 A 
HETATM   29  C   UNL     1      -1.807   6.329 -33.020  1.00  0.00     0.061 A 
HETATM   30  N   UNL     1      -1.097   6.730 -34.122  1.00  0.00    -0.278 N 
HETATM   31  C   UNL     1      -2.346   5.096 -33.361  1.00  0.00     0.013 A 
HETATM   32  H   UNL     1      -0.577   7.591 -34.243  1.00  0.00     0.189 HD
HETATM   33  N   UNL     1      -1.111   5.847 -35.136  1.00  0.00    -0.186 NA
HETATM   34  C   UNL     1      -1.881   4.858 -34.673  1.00  0.00     0.152 A 
HETATM   35  C   UNL     1      -3.148   4.414 -32.429  1.00  0.00     0.039 A 
ENDBRANCH  24  26
ENDBRANCH   3  24
BRANCH   7  36
HETATM   36  O   UNL     1      -8.620   8.014 -27.360  1.00  0.00    -0.353 OA
HETATM   37  C   UNL     1      -9.087   9.046 -28.228  1.00  0.00     0.210 C 
ENDBRANCH   7  36
BRANCH   6  38
HETATM   38  O   UNL     1      -5.829   8.358 -27.381  1.00  0.00    -0.347 OA
BRANCH  38  39
HETATM   39  C   UNL     1      -4.630   8.873 -27.972  1.00  0.00     0.206 C 
BRANCH  39  40
HETATM   40  C   UNL     1      -3.644   9.155 -26.826  1.00  0.00     0.299 C 
BRANCH  40  41
HETATM   41  N   UNL     1      -2.506  10.024 -27.190  1.00  0.00     0.093 N 
HETATM   42  C   UNL     1      -1.847   9.635 -28.453  1.00  0.00     0.300 C 
HETATM   43  C   UNL     1      -0.988   8.356 -28.377  1.00  0.00     0.264 C 
HETATM   44  N   UNL     1       0.023   8.470 -27.247  1.00  0.00    -0.072 N 
HETATM   45  H   UNL     1       0.639   9.260 -27.483  1.00  0.00     0.279 HD
HETATM   46  C   UNL     1       0.883   7.248 -27.136  1.00  0.00     0.269 C 
HETATM   47  C   UNL     1      -0.648   8.822 -25.929  1.00  0.00     0.264 C 
HETATM   48  C   UNL     1      -1.513  10.089 -26.096  1.00  0.00     0.300 C 
ENDBRANCH  40  41
ENDBRANCH  39  40
ENDBRANCH  38  39
ENDBRANCH   6  38
TORSDOF 11
ENDMDL
