MODEL 1
REMARK VINA RESULT:      -9.4      0.000      0.000
REMARK  6 active torsions:
REMARK  status: ('A' for Active; 'I' for Inactive)
REMARK    1  A    between atoms: O_2  and  C_3 
REMARK    2  A    between atoms: C_6  and  C_7 
REMARK    3  A    between atoms: C_7  and  N_8 
REMARK       I    between atoms: N_8  and  C_9 
REMARK    4  A    between atoms: C_9  and  C_10 
REMARK    5  A    between atoms: C_10  and  S_11 
REMARK    6  A    between atoms: S_11  and  C_12 
ROOT
HETATM    1  C   UNL     1      -6.017   2.573 -33.387  1.00  0.00     0.198 A 
HETATM    2  N   UNL     1      -5.114   1.657 -32.868  1.00  0.00    -0.257 N 
HETATM    3  C   UNL     1      -5.481   0.477 -33.517  1.00  0.00     0.173 A 
HETATM    4  C   UNL     1      -4.749  -0.785 -33.250  1.00  0.00     0.053 A 
HETATM    5  C   UNL     1      -3.726  -0.692 -32.331  1.00  0.00     0.090 A 
HETATM    6  S   UNL     1      -2.969  -2.196 -32.090  1.00  0.00    -0.075 SA
HETATM    7  C   UNL     1      -4.009  -2.957 -33.212  1.00  0.00    -0.008 A 
HETATM    8  C   UNL     1      -4.921  -2.086 -33.785  1.00  0.00    -0.028 A 
HETATM    9  C   UNL     1      -5.932  -2.536 -34.794  1.00  0.00     0.041 C 
HETATM   10  C   UNL     1      -5.576  -3.913 -35.379  1.00  0.00     0.005 C 
HETATM   11  C   UNL     1      -5.140  -4.901 -34.288  1.00  0.00     0.005 C 
HETATM   12  C   UNL     1      -3.887  -4.413 -33.544  1.00  0.00     0.047 C 
HETATM   13  N   UNL     1      -3.383   0.465 -31.703  1.00  0.00    -0.336 N 
HETATM   14  C   UNL     1      -4.032   1.693 -31.926  1.00  0.00     0.106 A 
HETATM   15  C   UNL     1      -3.610   2.782 -31.260  1.00  0.00     0.064 C 
HETATM   16  N   UNL     1      -6.497   0.665 -34.322  1.00  0.00    -0.128 NA
HETATM   17  N   UNL     1      -6.837   1.987 -34.237  1.00  0.00    -0.122 NA
HETATM   18  H   UNL     1      -2.614   0.465 -31.038  1.00  0.00     0.168 HD
ENDROOT
BRANCH   1  19
HETATM   19  S   UNL     1      -6.099   4.262 -33.002  1.00  0.00    -0.080 SA
BRANCH  19  20
HETATM   20  C   UNL     1      -4.832   4.914 -34.132  1.00  0.00     0.185 C 
BRANCH  20  21
HETATM   21  C   UNL     1      -4.020   6.002 -33.454  1.00  0.00     0.227 C 
HETATM   22  N   UNL     1      -2.761   6.204 -33.978  1.00  0.00    -0.356 N 
HETATM   23  H   UNL     1      -2.595   5.897 -34.929  1.00  0.00     0.162 HD
HETATM   24  O   UNL     1      -4.433   6.606 -32.466  1.00  0.00    -0.273 OA
BRANCH  22  25
HETATM   25  C   UNL     1      -1.915   7.252 -33.452  1.00  0.00     0.161 C 
BRANCH  25  26
HETATM   26  C   UNL     1      -1.173   6.820 -32.214  1.00  0.00    -0.040 A 
HETATM   27  C   UNL     1      -1.146   7.648 -31.084  1.00  0.00     0.011 A 
HETATM   28  C   UNL     1      -0.509   7.229 -29.913  1.00  0.00     0.037 A 
HETATM   29  C   UNL     1       0.101   5.976 -29.841  1.00  0.00     0.068 A 
HETATM   30  C   UNL     1       0.081   5.146 -30.961  1.00  0.00     0.037 A 
HETATM   31  C   UNL     1      -0.560   5.561 -32.134  1.00  0.00     0.011 A 
BRANCH  29  32
HETATM   32  O   UNL     1       0.674   5.686 -28.634  1.00  0.00    -0.356 OA
HETATM   33  C   UNL     1       0.759   6.751 -27.695  1.00  0.00     0.210 C 
ENDBRANCH  29  32
ENDBRANCH  25  26
ENDBRANCH  22  25
ENDBRANCH  20  21
ENDBRANCH  19  20
ENDBRANCH   1  19
TORSDOF 6
ENDMDL
MODEL 2
REMARK VINA RESULT:      -9.2      1.730      3.056
REMARK  6 active torsions:
REMARK  status: ('A' for Active; 'I' for Inactive)
REMARK    1  A    between atoms: O_2  and  C_3 
REMARK    2  A    between atoms: C_6  and  C_7 
REMARK    3  A    between atoms: C_7  and  N_8 
REMARK       I    between atoms: N_8  and  C_9 
REMARK    4  A    between atoms: C_9  and  C_10 
REMARK    5  A    between atoms: C_10  and  S_11 
REMARK    6  A    between atoms: S_11  and  C_12 
ROOT
HETATM    1  C   UNL     1      -4.021   2.734 -31.777  1.00  0.00     0.198 A 
HETATM    2  N   UNL     1      -4.781   1.920 -32.603  1.00  0.00    -0.257 N 
HETATM    3  C   UNL     1      -4.180   0.673 -32.429  1.00  0.00     0.173 A 
HETATM    4  C   UNL     1      -4.698  -0.517 -33.146  1.00  0.00     0.053 A 
HETATM    5  C   UNL     1      -5.772  -0.285 -33.977  1.00  0.00     0.090 A 
HETATM    6  S   UNL     1      -6.272  -1.711 -34.759  1.00  0.00    -0.075 SA
HETATM    7  C   UNL     1      -5.054  -2.624 -33.984  1.00  0.00    -0.008 A 
HETATM    8  C   UNL     1      -4.274  -1.870 -33.123  1.00  0.00    -0.028 A 
HETATM    9  C   UNL     1      -3.144  -2.463 -32.339  1.00  0.00     0.041 C 
HETATM   10  C   UNL     1      -3.223  -3.998 -32.303  1.00  0.00     0.005 C 
HETATM   11  C   UNL     1      -3.544  -4.585 -33.684  1.00  0.00     0.005 C 
HETATM   12  C   UNL     1      -4.903  -4.097 -34.210  1.00  0.00     0.047 C 
HETATM   13  N   UNL     1      -6.346   0.937 -34.141  1.00  0.00    -0.336 N 
HETATM   14  C   UNL     1      -5.906   2.098 -33.478  1.00  0.00     0.106 A 
HETATM   15  C   UNL     1      -6.547   3.257 -33.702  1.00  0.00     0.064 C 
HETATM   16  N   UNL     1      -3.166   0.737 -31.601  1.00  0.00    -0.128 NA
HETATM   17  N   UNL     1      -3.065   2.039 -31.192  1.00  0.00    -0.122 NA
HETATM   18  H   UNL     1      -7.140   1.039 -34.766  1.00  0.00     0.168 HD
ENDROOT
BRANCH   1  19
HETATM   19  S   UNL     1      -4.253   4.432 -31.516  1.00  0.00    -0.080 SA
BRANCH  19  20
HETATM   20  C   UNL     1      -3.318   5.107 -32.923  1.00  0.00     0.185 C 
BRANCH  20  21
HETATM   21  C   UNL     1      -1.858   5.291 -32.554  1.00  0.00     0.227 C 
HETATM   22  N   UNL     1      -1.554   5.047 -31.231  1.00  0.00    -0.356 N 
HETATM   23  H   UNL     1      -2.192   4.462 -30.705  1.00  0.00     0.162 HD
HETATM   24  O   UNL     1      -1.025   5.695 -33.363  1.00  0.00    -0.273 OA
BRANCH  22  25
HETATM   25  C   UNL     1      -0.186   5.135 -30.772  1.00  0.00     0.161 C 
BRANCH  25  26
HETATM   26  C   UNL     1      -0.025   6.111 -29.636  1.00  0.00    -0.040 A 
HETATM   27  C   UNL     1       0.694   5.747 -28.490  1.00  0.00     0.011 A 
HETATM   28  C   UNL     1       0.897   6.666 -27.458  1.00  0.00     0.037 A 
HETATM   29  C   UNL     1       0.398   7.967 -27.552  1.00  0.00     0.068 A 
HETATM   30  C   UNL     1      -0.320   8.338 -28.687  1.00  0.00     0.037 A 
HETATM   31  C   UNL     1      -0.522   7.420 -29.724  1.00  0.00     0.011 A 
BRANCH  29  32
HETATM   32  O   UNL     1       0.681   8.767 -26.480  1.00  0.00    -0.356 OA
HETATM   33  C   UNL     1       1.911   8.525 -25.808  1.00  0.00     0.210 C 
ENDBRANCH  29  32
ENDBRANCH  25  26
ENDBRANCH  22  25
ENDBRANCH  20  21
ENDBRANCH  19  20
ENDBRANCH   1  19
TORSDOF 6
ENDMDL
MODEL 3
REMARK VINA RESULT:      -9.1      2.205      3.004
REMARK  6 active torsions:
REMARK  status: ('A' for Active; 'I' for Inactive)
REMARK    1  A    between atoms: O_2  and  C_3 
REMARK    2  A    between atoms: C_6  and  C_7 
REMARK    3  A    between atoms: C_7  and  N_8 
REMARK       I    between atoms: N_8  and  C_9 
REMARK    4  A    between atoms: C_9  and  C_10 
REMARK    5  A    between atoms: C_10  and  S_11 
REMARK    6  A    between atoms: S_11  and  C_12 
ROOT
HETATM    1  C   UNL     1      -8.118   1.965 -31.719  1.00  0.00     0.198 A 
HETATM    2  N   UNL     1      -6.854   1.396 -31.675  1.00  0.00    -0.257 N 
HETATM    3  C   UNL     1      -7.007   0.267 -32.481  1.00  0.00     0.173 A 
HETATM    4  C   UNL     1      -5.864  -0.649 -32.716  1.00  0.00     0.053 A 
HETATM    5  C   UNL     1      -4.691  -0.306 -32.079  1.00  0.00     0.090 A 
HETATM    6  S   UNL     1      -3.457  -1.430 -32.403  1.00  0.00    -0.075 SA
HETATM    7  C   UNL     1      -4.494  -2.363 -33.389  1.00  0.00    -0.008 A 
HETATM    8  C   UNL     1      -5.769  -1.830 -33.493  1.00  0.00    -0.028 A 
HETATM    9  C   UNL     1      -6.845  -2.484 -34.304  1.00  0.00     0.041 C 
HETATM   10  C   UNL     1      -6.269  -3.529 -35.275  1.00  0.00     0.005 C 
HETATM   11  C   UNL     1      -5.220  -4.420 -34.596  1.00  0.00     0.005 C 
HETATM   12  C   UNL     1      -4.023  -3.603 -34.084  1.00  0.00     0.047 C 
HETATM   13  N   UNL     1      -4.558   0.796 -31.292  1.00  0.00    -0.336 N 
HETATM   14  C   UNL     1      -5.602   1.706 -31.045  1.00  0.00     0.106 A 
HETATM   15  C   UNL     1      -5.365   2.769 -30.258  1.00  0.00     0.064 C 
HETATM   16  N   UNL     1      -8.229   0.167 -32.945  1.00  0.00    -0.128 NA
HETATM   17  N   UNL     1      -8.929   1.237 -32.461  1.00  0.00    -0.122 NA
HETATM   18  H   UNL     1      -3.662   0.994 -30.855  1.00  0.00     0.168 HD
ENDROOT
BRANCH   1  19
HETATM   19  S   UNL     1      -8.612   3.426 -30.927  1.00  0.00    -0.080 SA
BRANCH  19  20
HETATM   20  C   UNL     1      -9.370   4.311 -32.324  1.00  0.00     0.185 C 
BRANCH  20  21
HETATM   21  C   UNL     1      -8.303   4.842 -33.263  1.00  0.00     0.227 C 
HETATM   22  N   UNL     1      -7.090   5.122 -32.669  1.00  0.00    -0.356 N 
HETATM   23  H   UNL     1      -6.881   4.660 -31.793  1.00  0.00     0.162 HD
HETATM   24  O   UNL     1      -8.530   5.071 -34.449  1.00  0.00    -0.273 OA
BRANCH  22  25
HETATM   25  C   UNL     1      -5.978   5.581 -33.470  1.00  0.00     0.161 C 
BRANCH  25  26
HETATM   26  C   UNL     1      -4.648   5.285 -32.827  1.00  0.00    -0.040 A 
HETATM   27  C   UNL     1      -3.859   4.226 -33.295  1.00  0.00     0.011 A 
HETATM   28  C   UNL     1      -2.600   3.983 -32.742  1.00  0.00     0.037 A 
HETATM   29  C   UNL     1      -2.098   4.794 -31.723  1.00  0.00     0.068 A 
HETATM   30  C   UNL     1      -2.877   5.849 -31.250  1.00  0.00     0.037 A 
HETATM   31  C   UNL     1      -4.137   6.098 -31.805  1.00  0.00     0.011 A 
BRANCH  29  32
HETATM   32  O   UNL     1      -0.849   4.455 -31.283  1.00  0.00    -0.356 OA
HETATM   33  C   UNL     1      -0.304   5.246 -30.233  1.00  0.00     0.210 C 
ENDBRANCH  29  32
ENDBRANCH  25  26
ENDBRANCH  22  25
ENDBRANCH  20  21
ENDBRANCH  19  20
ENDBRANCH   1  19
TORSDOF 6
ENDMDL
MODEL 4
REMARK VINA RESULT:      -8.9      3.483     10.446
REMARK  6 active torsions:
REMARK  status: ('A' for Active; 'I' for Inactive)
REMARK    1  A    between atoms: O_2  and  C_3 
REMARK    2  A    between atoms: C_6  and  C_7 
REMARK    3  A    between atoms: C_7  and  N_8 
REMARK       I    between atoms: N_8  and  C_9 
REMARK    4  A    between atoms: C_9  and  C_10 
REMARK    5  A    between atoms: C_10  and  S_11 
REMARK    6  A    between atoms: S_11  and  C_12 
ROOT
HETATM    1  C   UNL     1      -1.541   5.078 -31.249  1.00  0.00     0.198 A 
HETATM    2  N   UNL     1      -1.870   6.334 -30.760  1.00  0.00    -0.257 N 
HETATM    3  C   UNL     1      -0.903   6.532 -29.773  1.00  0.00     0.173 A 
HETATM    4  C   UNL     1      -0.884   7.786 -28.982  1.00  0.00     0.053 A 
HETATM    5  C   UNL     1      -1.876   8.693 -29.288  1.00  0.00     0.090 A 
HETATM    6  S   UNL     1      -1.770  10.083 -28.313  1.00  0.00    -0.075 SA
HETATM    7  C   UNL     1      -0.405   9.465 -27.492  1.00  0.00    -0.008 A 
HETATM    8  C   UNL     1      -0.011   8.220 -27.953  1.00  0.00    -0.028 A 
HETATM    9  C   UNL     1       1.161   7.486 -27.376  1.00  0.00     0.041 C 
HETATM   10  C   UNL     1       2.059   8.417 -26.544  1.00  0.00     0.005 C 
HETATM   11  C   UNL     1       1.237   9.327 -25.621  1.00  0.00     0.005 C 
HETATM   12  C   UNL     1       0.290  10.241 -26.415  1.00  0.00     0.047 C 
HETATM   13  N   UNL     1      -2.814   8.485 -30.251  1.00  0.00    -0.336 N 
HETATM   14  C   UNL     1      -2.873   7.321 -31.040  1.00  0.00     0.106 A 
HETATM   15  C   UNL     1      -3.836   7.215 -31.972  1.00  0.00     0.064 C 
HETATM   16  N   UNL     1      -0.096   5.505 -29.674  1.00  0.00    -0.128 NA
HETATM   17  N   UNL     1      -0.501   4.586 -30.603  1.00  0.00    -0.122 NA
HETATM   18  H   UNL     1      -3.515   9.198 -30.430  1.00  0.00     0.168 HD
ENDROOT
BRANCH   1  19
HETATM   19  S   UNL     1      -2.352   4.230 -32.524  1.00  0.00    -0.080 SA
BRANCH  19  20
HETATM   20  C   UNL     1      -3.866   3.714 -31.659  1.00  0.00     0.185 C 
BRANCH  20  21
HETATM   21  C   UNL     1      -3.792   2.245 -31.283  1.00  0.00     0.227 C 
HETATM   22  N   UNL     1      -5.011   1.617 -31.136  1.00  0.00    -0.356 N 
HETATM   23  H   UNL     1      -5.810   2.034 -31.598  1.00  0.00     0.162 HD
HETATM   24  O   UNL     1      -2.723   1.681 -31.058  1.00  0.00    -0.273 OA
BRANCH  22  25
HETATM   25  C   UNL     1      -5.069   0.205 -30.834  1.00  0.00     0.161 C 
BRANCH  25  26
HETATM   26  C   UNL     1      -5.230  -0.639 -32.072  1.00  0.00    -0.040 A 
HETATM   27  C   UNL     1      -4.175  -1.446 -32.516  1.00  0.00     0.011 A 
HETATM   28  C   UNL     1      -4.336  -2.275 -33.629  1.00  0.00     0.037 A 
HETATM   29  C   UNL     1      -5.553  -2.324 -34.312  1.00  0.00     0.068 A 
HETATM   30  C   UNL     1      -6.608  -1.523 -33.878  1.00  0.00     0.037 A 
HETATM   31  C   UNL     1      -6.450  -0.694 -32.761  1.00  0.00     0.011 A 
BRANCH  29  32
HETATM   32  O   UNL     1      -5.580  -3.187 -35.372  1.00  0.00    -0.356 OA
HETATM   33  C   UNL     1      -6.347  -4.374 -35.211  1.00  0.00     0.210 C 
ENDBRANCH  29  32
ENDBRANCH  25  26
ENDBRANCH  22  25
ENDBRANCH  20  21
ENDBRANCH  19  20
ENDBRANCH   1  19
TORSDOF 6
ENDMDL
MODEL 5
REMARK VINA RESULT:      -8.5      3.093      9.461
REMARK  6 active torsions:
REMARK  status: ('A' for Active; 'I' for Inactive)
REMARK    1  A    between atoms: O_2  and  C_3 
REMARK    2  A    between atoms: C_6  and  C_7 
REMARK    3  A    between atoms: C_7  and  N_8 
REMARK       I    between atoms: N_8  and  C_9 
REMARK    4  A    between atoms: C_9  and  C_10 
REMARK    5  A    between atoms: C_10  and  S_11 
REMARK    6  A    between atoms: S_11  and  C_12 
ROOT
HETATM    1  C   UNL     1      -4.430   6.420 -31.993  1.00  0.00     0.198 A 
HETATM    2  N   UNL     1      -3.238   5.894 -31.520  1.00  0.00    -0.257 N 
HETATM    3  C   UNL     1      -2.791   6.896 -30.658  1.00  0.00     0.173 A 
HETATM    4  C   UNL     1      -1.517   6.734 -29.916  1.00  0.00     0.053 A 
HETATM    5  C   UNL     1      -0.836   5.561 -30.159  1.00  0.00     0.090 A 
HETATM    6  S   UNL     1       0.614   5.490 -29.273  1.00  0.00    -0.075 SA
HETATM    7  C   UNL     1       0.323   7.021 -28.573  1.00  0.00    -0.008 A 
HETATM    8  C   UNL     1      -0.870   7.589 -28.988  1.00  0.00    -0.028 A 
HETATM    9  C   UNL     1      -1.328   8.931 -28.505  1.00  0.00     0.041 C 
HETATM   10  C   UNL     1      -0.553   9.379 -27.254  1.00  0.00     0.005 C 
HETATM   11  C   UNL     1       0.954   9.126 -27.397  1.00  0.00     0.005 C 
HETATM   12  C   UNL     1       1.267   7.633 -27.585  1.00  0.00     0.047 C 
HETATM   13  N   UNL     1      -1.282   4.595 -31.006  1.00  0.00    -0.336 N 
HETATM   14  C   UNL     1      -2.487   4.687 -31.725  1.00  0.00     0.106 A 
HETATM   15  C   UNL     1      -2.843   3.673 -32.532  1.00  0.00     0.064 C 
HETATM   16  N   UNL     1      -3.617   7.912 -30.628  1.00  0.00    -0.128 NA
HETATM   17  N   UNL     1      -4.650   7.612 -31.473  1.00  0.00    -0.122 NA
HETATM   18  H   UNL     1      -0.732   3.750 -31.136  1.00  0.00     0.168 HD
ENDROOT
BRANCH   1  19
HETATM   19  S   UNL     1      -5.515   5.659 -33.111  1.00  0.00    -0.080 SA
BRANCH  19  20
HETATM   20  C   UNL     1      -6.230   4.372 -32.044  1.00  0.00     0.185 C 
BRANCH  20  21
HETATM   21  C   UNL     1      -6.989   3.352 -32.873  1.00  0.00     0.227 C 
HETATM   22  N   UNL     1      -6.688   2.034 -32.597  1.00  0.00    -0.356 N 
HETATM   23  H   UNL     1      -6.284   1.827 -31.692  1.00  0.00     0.162 HD
HETATM   24  O   UNL     1      -7.761   3.682 -33.771  1.00  0.00    -0.273 OA
BRANCH  22  25
HETATM   25  C   UNL     1      -7.386   0.971 -33.283  1.00  0.00     0.161 C 
BRANCH  25  26
HETATM   26  C   UNL     1      -6.503  -0.223 -33.537  1.00  0.00    -0.040 A 
HETATM   27  C   UNL     1      -7.000  -1.329 -34.239  1.00  0.00     0.011 A 
HETATM   28  C   UNL     1      -6.170  -2.415 -34.529  1.00  0.00     0.037 A 
HETATM   29  C   UNL     1      -4.830  -2.415 -34.138  1.00  0.00     0.068 A 
HETATM   30  C   UNL     1      -4.328  -1.319 -33.437  1.00  0.00     0.037 A 
HETATM   31  C   UNL     1      -5.156  -0.228 -33.148  1.00  0.00     0.011 A 
BRANCH  29  32
HETATM   32  O   UNL     1      -4.128  -3.531 -34.498  1.00  0.00    -0.356 OA
HETATM   33  C   UNL     1      -4.813  -4.774 -34.407  1.00  0.00     0.210 C 
ENDBRANCH  29  32
ENDBRANCH  25  26
ENDBRANCH  22  25
ENDBRANCH  20  21
ENDBRANCH  19  20
ENDBRANCH   1  19
TORSDOF 6
ENDMDL
MODEL 6
REMARK VINA RESULT:      -8.5      3.453      8.583
REMARK  6 active torsions:
REMARK  status: ('A' for Active; 'I' for Inactive)
REMARK    1  A    between atoms: O_2  and  C_3 
REMARK    2  A    between atoms: C_6  and  C_7 
REMARK    3  A    between atoms: C_7  and  N_8 
REMARK       I    between atoms: N_8  and  C_9 
REMARK    4  A    between atoms: C_9  and  C_10 
REMARK    5  A    between atoms: C_10  and  S_11 
REMARK    6  A    between atoms: S_11  and  C_12 
ROOT
HETATM    1  C   UNL     1      -6.639   3.018 -31.448  1.00  0.00     0.198 A 
HETATM    2  N   UNL     1      -6.187   4.167 -30.817  1.00  0.00    -0.257 N 
HETATM    3  C   UNL     1      -4.859   4.236 -31.241  1.00  0.00     0.173 A 
HETATM    4  C   UNL     1      -3.985   5.348 -30.793  1.00  0.00     0.053 A 
HETATM    5  C   UNL     1      -4.575   6.257 -29.942  1.00  0.00     0.090 A 
HETATM    6  S   UNL     1      -3.481   7.475 -29.479  1.00  0.00    -0.075 SA
HETATM    7  C   UNL     1      -2.232   6.780 -30.415  1.00  0.00    -0.008 A 
HETATM    8  C   UNL     1      -2.631   5.640 -31.093  1.00  0.00    -0.028 A 
HETATM    9  C   UNL     1      -1.698   4.864 -31.972  1.00  0.00     0.041 C 
HETATM   10  C   UNL     1      -0.444   5.679 -32.328  1.00  0.00     0.005 C 
HETATM   11  C   UNL     1       0.134   6.400 -31.103  1.00  0.00     0.005 C 
HETATM   12  C   UNL     1      -0.869   7.396 -30.500  1.00  0.00     0.047 C 
HETATM   13  N   UNL     1      -5.869   6.174 -29.533  1.00  0.00    -0.336 N 
HETATM   14  C   UNL     1      -6.748   5.151 -29.936  1.00  0.00     0.106 A 
HETATM   15  C   UNL     1      -8.012   5.164 -29.481  1.00  0.00     0.064 C 
HETATM   16  N   UNL     1      -4.550   3.235 -32.028  1.00  0.00    -0.128 NA
HETATM   17  N   UNL     1      -5.673   2.465 -32.155  1.00  0.00    -0.122 NA
HETATM   18  H   UNL     1      -6.244   6.882 -28.908  1.00  0.00     0.168 HD
ENDROOT
BRANCH   1  19
HETATM   19  S   UNL     1      -8.240   2.359 -31.352  1.00  0.00    -0.080 SA
BRANCH  19  20
HETATM   20  C   UNL     1      -8.903   2.881 -32.964  1.00  0.00     0.185 C 
BRANCH  20  21
HETATM   21  C   UNL     1      -8.963   1.706 -33.922  1.00  0.00     0.227 C 
HETATM   22  N   UNL     1      -7.737   1.205 -34.310  1.00  0.00    -0.356 N 
HETATM   23  H   UNL     1      -6.944   1.394 -33.709  1.00  0.00     0.162 HD
HETATM   24  O   UNL     1     -10.025   1.282 -34.372  1.00  0.00    -0.273 OA
BRANCH  22  25
HETATM   25  C   UNL     1      -7.666   0.051 -35.177  1.00  0.00     0.161 C 
BRANCH  25  26
HETATM   26  C   UNL     1      -6.587  -0.914 -34.758  1.00  0.00    -0.040 A 
HETATM   27  C   UNL     1      -5.500  -0.467 -33.996  1.00  0.00     0.011 A 
HETATM   28  C   UNL     1      -4.526  -1.367 -33.556  1.00  0.00     0.037 A 
HETATM   29  C   UNL     1      -4.623  -2.727 -33.854  1.00  0.00     0.068 A 
HETATM   30  C   UNL     1      -5.701  -3.180 -34.613  1.00  0.00     0.037 A 
HETATM   31  C   UNL     1      -6.680  -2.282 -35.053  1.00  0.00     0.011 A 
BRANCH  29  32
HETATM   32  O   UNL     1      -3.613  -3.498 -33.350  1.00  0.00    -0.356 OA
HETATM   33  C   UNL     1      -3.520  -4.830 -33.838  1.00  0.00     0.210 C 
ENDBRANCH  29  32
ENDBRANCH  25  26
ENDBRANCH  22  25
ENDBRANCH  20  21
ENDBRANCH  19  20
ENDBRANCH   1  19
TORSDOF 6
ENDMDL
MODEL 7
REMARK VINA RESULT:      -8.5      4.841      8.514
REMARK  6 active torsions:
REMARK  status: ('A' for Active; 'I' for Inactive)
REMARK    1  A    between atoms: O_2  and  C_3 
REMARK    2  A    between atoms: C_6  and  C_7 
REMARK    3  A    between atoms: C_7  and  N_8 
REMARK       I    between atoms: N_8  and  C_9 
REMARK    4  A    between atoms: C_9  and  C_10 
REMARK    5  A    between atoms: C_10  and  S_11 
REMARK    6  A    between atoms: S_11  and  C_12 
ROOT
HETATM    1  C   UNL     1      -7.607   3.024 -33.728  1.00  0.00     0.198 A 
HETATM    2  N   UNL     1      -8.804   3.600 -33.328  1.00  0.00    -0.257 N 
HETATM    3  C   UNL     1      -9.725   2.583 -33.587  1.00  0.00     0.173 A 
HETATM    4  C   UNL     1     -11.164   2.781 -33.291  1.00  0.00     0.053 A 
HETATM    5  C   UNL     1     -11.498   4.014 -32.774  1.00  0.00     0.090 A 
HETATM    6  S   UNL     1     -13.170   4.137 -32.489  1.00  0.00    -0.075 SA
HETATM    7  C   UNL     1     -13.436   2.548 -33.057  1.00  0.00    -0.008 A 
HETATM    8  C   UNL     1     -12.271   1.909 -33.449  1.00  0.00    -0.028 A 
HETATM    9  C   UNL     1     -12.266   0.510 -33.984  1.00  0.00     0.041 C 
HETATM   10  C   UNL     1     -13.582  -0.222 -33.670  1.00  0.00     0.005 C 
HETATM   11  C   UNL     1     -14.806   0.663 -33.944  1.00  0.00     0.005 C 
HETATM   12  C   UNL     1     -14.800   1.930 -33.074  1.00  0.00     0.047 C 
HETATM   13  N   UNL     1     -10.589   4.997 -32.531  1.00  0.00    -0.336 N 
HETATM   14  C   UNL     1      -9.211   4.862 -32.779  1.00  0.00     0.106 A 
HETATM   15  C   UNL     1      -8.395   5.891 -32.496  1.00  0.00     0.064 C 
HETATM   16  N   UNL     1      -9.145   1.524 -34.096  1.00  0.00    -0.128 NA
HETATM   17  N   UNL     1      -7.809   1.805 -34.188  1.00  0.00    -0.122 NA
HETATM   18  H   UNL     1     -10.902   5.883 -32.143  1.00  0.00     0.168 HD
ENDROOT
BRANCH   1  19
HETATM   19  S   UNL     1      -6.041   3.763 -33.657  1.00  0.00    -0.080 SA
BRANCH  19  20
HETATM   20  C   UNL     1      -5.765   3.764 -31.858  1.00  0.00     0.185 C 
BRANCH  20  21
HETATM   21  C   UNL     1      -5.895   2.359 -31.298  1.00  0.00     0.227 C 
HETATM   22  N   UNL     1      -4.943   1.464 -31.739  1.00  0.00    -0.356 N 
HETATM   23  H   UNL     1      -4.074   1.843 -32.095  1.00  0.00     0.162 HD
HETATM   24  O   UNL     1      -6.823   2.032 -30.562  1.00  0.00    -0.273 OA
BRANCH  22  25
HETATM   25  C   UNL     1      -4.929   0.111 -31.232  1.00  0.00     0.161 C 
BRANCH  25  26
HETATM   26  C   UNL     1      -5.087  -0.912 -32.327  1.00  0.00    -0.040 A 
HETATM   27  C   UNL     1      -6.286  -0.994 -33.047  1.00  0.00     0.011 A 
HETATM   28  C   UNL     1      -6.419  -1.901 -34.101  1.00  0.00     0.037 A 
HETATM   29  C   UNL     1      -5.359  -2.733 -34.466  1.00  0.00     0.068 A 
HETATM   30  C   UNL     1      -4.163  -2.659 -33.754  1.00  0.00     0.037 A 
HETATM   31  C   UNL     1      -4.025  -1.749 -32.699  1.00  0.00     0.011 A 
BRANCH  29  32
HETATM   32  O   UNL     1      -5.618  -3.560 -35.523  1.00  0.00    -0.356 OA
HETATM   33  C   UNL     1      -6.590  -4.577 -35.315  1.00  0.00     0.210 C 
ENDBRANCH  29  32
ENDBRANCH  25  26
ENDBRANCH  22  25
ENDBRANCH  20  21
ENDBRANCH  19  20
ENDBRANCH   1  19
TORSDOF 6
ENDMDL
MODEL 8
REMARK VINA RESULT:      -8.4      4.335      7.720
REMARK  6 active torsions:
REMARK  status: ('A' for Active; 'I' for Inactive)
REMARK    1  A    between atoms: O_2  and  C_3 
REMARK    2  A    between atoms: C_6  and  C_7 
REMARK    3  A    between atoms: C_7  and  N_8 
REMARK       I    between atoms: N_8  and  C_9 
REMARK    4  A    between atoms: C_9  and  C_10 
REMARK    5  A    between atoms: C_10  and  S_11 
REMARK    6  A    between atoms: S_11  and  C_12 
ROOT
HETATM    1  C   UNL     1      -5.931   2.603 -33.382  1.00  0.00     0.198 A 
HETATM    2  N   UNL     1      -5.051   1.668 -32.860  1.00  0.00    -0.257 N 
HETATM    3  C   UNL     1      -5.429   0.500 -33.524  1.00  0.00     0.173 A 
HETATM    4  C   UNL     1      -4.721  -0.776 -33.259  1.00  0.00     0.053 A 
HETATM    5  C   UNL     1      -3.710  -0.709 -32.325  1.00  0.00     0.090 A 
HETATM    6  S   UNL     1      -2.981  -2.227 -32.088  1.00  0.00    -0.075 SA
HETATM    7  C   UNL     1      -4.018  -2.961 -33.230  1.00  0.00    -0.008 A 
HETATM    8  C   UNL     1      -4.907  -2.070 -33.808  1.00  0.00    -0.028 A 
HETATM    9  C   UNL     1      -5.912  -2.494 -34.834  1.00  0.00     0.041 C 
HETATM   10  C   UNL     1      -5.571  -3.872 -35.427  1.00  0.00     0.005 C 
HETATM   11  C   UNL     1      -5.167  -4.876 -34.339  1.00  0.00     0.005 C 
HETATM   12  C   UNL     1      -3.916  -4.415 -33.574  1.00  0.00     0.047 C 
HETATM   13  N   UNL     1      -3.355   0.437 -31.682  1.00  0.00    -0.336 N 
HETATM   14  C   UNL     1      -3.981   1.677 -31.903  1.00  0.00     0.106 A 
HETATM   15  C   UNL     1      -3.550   2.753 -31.222  1.00  0.00     0.064 C 
HETATM   16  N   UNL     1      -6.430   0.711 -34.341  1.00  0.00    -0.128 NA
HETATM   17  N   UNL     1      -6.749   2.038 -34.249  1.00  0.00    -0.122 NA
HETATM   18  H   UNL     1      -2.596   0.418 -31.008  1.00  0.00     0.168 HD
ENDROOT
BRANCH   1  19
HETATM   19  S   UNL     1      -5.991   4.289 -32.983  1.00  0.00    -0.080 SA
BRANCH  19  20
HETATM   20  C   UNL     1      -7.547   4.345 -32.043  1.00  0.00     0.185 C 
BRANCH  20  21
HETATM   21  C   UNL     1      -8.676   4.873 -32.910  1.00  0.00     0.227 C 
HETATM   22  N   UNL     1      -9.118   4.004 -33.886  1.00  0.00    -0.356 N 
HETATM   23  H   UNL     1      -8.933   3.018 -33.752  1.00  0.00     0.162 HD
HETATM   24  O   UNL     1      -9.111   6.016 -32.792  1.00  0.00    -0.273 OA
BRANCH  22  25
HETATM   25  C   UNL     1     -10.226   4.373 -34.737  1.00  0.00     0.161 C 
BRANCH  25  26
HETATM   26  C   UNL     1     -11.496   3.649 -34.369  1.00  0.00    -0.040 A 
HETATM   27  C   UNL     1     -11.926   2.553 -35.127  1.00  0.00     0.011 A 
HETATM   28  C   UNL     1     -13.071   1.842 -34.757  1.00  0.00     0.037 A 
HETATM   29  C   UNL     1     -13.800   2.201 -33.623  1.00  0.00     0.068 A 
HETATM   30  C   UNL     1     -13.380   3.293 -32.864  1.00  0.00     0.037 A 
HETATM   31  C   UNL     1     -12.231   4.005 -33.229  1.00  0.00     0.011 A 
BRANCH  29  32
HETATM   32  O   UNL     1     -14.888   1.414 -33.367  1.00  0.00    -0.356 OA
HETATM   33  C   UNL     1     -15.352   0.600 -34.437  1.00  0.00     0.210 C 
ENDBRANCH  29  32
ENDBRANCH  25  26
ENDBRANCH  22  25
ENDBRANCH  20  21
ENDBRANCH  19  20
ENDBRANCH   1  19
TORSDOF 6
ENDMDL
MODEL 9
REMARK VINA RESULT:      -8.4      2.896      3.936
REMARK  6 active torsions:
REMARK  status: ('A' for Active; 'I' for Inactive)
REMARK    1  A    between atoms: O_2  and  C_3 
REMARK    2  A    between atoms: C_6  and  C_7 
REMARK    3  A    between atoms: C_7  and  N_8 
REMARK       I    between atoms: N_8  and  C_9 
REMARK    4  A    between atoms: C_9  and  C_10 
REMARK    5  A    between atoms: C_10  and  S_11 
REMARK    6  A    between atoms: S_11  and  C_12 
ROOT
HETATM    1  C   UNL     1      -3.894   2.571 -31.653  1.00  0.00     0.198 A 
HETATM    2  N   UNL     1      -4.701   1.834 -32.506  1.00  0.00    -0.257 N 
HETATM    3  C   UNL     1      -4.146   0.557 -32.413  1.00  0.00     0.173 A 
HETATM    4  C   UNL     1      -4.724  -0.571 -33.183  1.00  0.00     0.053 A 
HETATM    5  C   UNL     1      -5.804  -0.252 -33.977  1.00  0.00     0.090 A 
HETATM    6  S   UNL     1      -6.374  -1.612 -34.825  1.00  0.00    -0.075 SA
HETATM    7  C   UNL     1      -5.179  -2.613 -34.127  1.00  0.00    -0.008 A 
HETATM    8  C   UNL     1      -4.353  -1.938 -33.242  1.00  0.00    -0.028 A 
HETATM    9  C   UNL     1      -3.233  -2.616 -32.516  1.00  0.00     0.041 C 
HETATM   10  C   UNL     1      -3.372  -4.148 -32.562  1.00  0.00     0.005 C 
HETATM   11  C   UNL     1      -3.743  -4.645 -33.966  1.00  0.00     0.005 C 
HETATM   12  C   UNL     1      -5.091  -4.076 -34.435  1.00  0.00     0.047 C 
HETATM   13  N   UNL     1      -6.332   0.999 -34.062  1.00  0.00    -0.336 N 
HETATM   14  C   UNL     1      -5.834   2.103 -33.346  1.00  0.00     0.106 A 
HETATM   15  C   UNL     1      -6.432   3.297 -33.493  1.00  0.00     0.064 C 
HETATM   16  N   UNL     1      -3.115   0.536 -31.604  1.00  0.00    -0.128 NA
HETATM   17  N   UNL     1      -2.955   1.809 -31.128  1.00  0.00    -0.122 NA
HETATM   18  H   UNL     1      -7.133   1.165 -34.664  1.00  0.00     0.168 HD
ENDROOT
BRANCH   1  19
HETATM   19  S   UNL     1      -4.053   4.260 -31.295  1.00  0.00    -0.080 SA
BRANCH  19  20
HETATM   20  C   UNL     1      -2.448   4.871 -31.893  1.00  0.00     0.185 C 
BRANCH  20  21
HETATM   21  C   UNL     1      -2.098   6.190 -31.228  1.00  0.00     0.227 C 
HETATM   22  N   UNL     1      -1.646   6.088 -29.929  1.00  0.00    -0.356 N 
HETATM   23  H   UNL     1      -1.261   5.198 -29.637  1.00  0.00     0.162 HD
HETATM   24  O   UNL     1      -2.273   7.271 -31.787  1.00  0.00    -0.273 OA
BRANCH  22  25
HETATM   25  C   UNL     1      -1.228   7.271 -29.211  1.00  0.00     0.161 C 
BRANCH  25  26
HETATM   26  C   UNL     1      -2.091   7.543 -28.006  1.00  0.00    -0.040 A 
HETATM   27  C   UNL     1      -3.270   8.289 -28.139  1.00  0.00     0.011 A 
HETATM   28  C   UNL     1      -4.104   8.497 -27.038  1.00  0.00     0.037 A 
HETATM   29  C   UNL     1      -3.788   7.956 -25.790  1.00  0.00     0.068 A 
HETATM   30  C   UNL     1      -2.617   7.214 -25.649  1.00  0.00     0.037 A 
HETATM   31  C   UNL     1      -1.780   7.002 -26.751  1.00  0.00     0.011 A 
BRANCH  29  32
HETATM   32  O   UNL     1      -4.697   8.223 -24.804  1.00  0.00    -0.356 OA
HETATM   33  C   UNL     1      -5.155   9.565 -24.702  1.00  0.00     0.210 C 
ENDBRANCH  29  32
ENDBRANCH  25  26
ENDBRANCH  22  25
ENDBRANCH  20  21
ENDBRANCH  19  20
ENDBRANCH   1  19
TORSDOF 6
ENDMDL
MODEL 10
REMARK VINA RESULT:      -7.9      3.404      6.338
REMARK  6 active torsions:
REMARK  status: ('A' for Active; 'I' for Inactive)
REMARK    1  A    between atoms: O_2  and  C_3 
REMARK    2  A    between atoms: C_6  and  C_7 
REMARK    3  A    between atoms: C_7  and  N_8 
REMARK       I    between atoms: N_8  and  C_9 
REMARK    4  A    between atoms: C_9  and  C_10 
REMARK    5  A    between atoms: C_10  and  S_11 
REMARK    6  A    between atoms: S_11  and  C_12 
ROOT
HETATM    1  C   UNL     1      -5.170   5.464 -32.615  1.00  0.00     0.198 A 
HETATM    2  N   UNL     1      -4.530   4.255 -32.389  1.00  0.00    -0.257 N 
HETATM    3  C   UNL     1      -5.381   3.346 -33.019  1.00  0.00     0.173 A 
HETATM    4  C   UNL     1      -5.061   1.897 -33.023  1.00  0.00     0.053 A 
HETATM    5  C   UNL     1      -3.904   1.546 -32.362  1.00  0.00     0.090 A 
HETATM    6  S   UNL     1      -3.645  -0.135 -32.415  1.00  0.00    -0.075 SA
HETATM    7  C   UNL     1      -5.075  -0.379 -33.318  1.00  0.00    -0.008 A 
HETATM    8  C   UNL     1      -5.748   0.799 -33.598  1.00  0.00    -0.028 A 
HETATM    9  C   UNL     1      -7.029   0.823 -34.375  1.00  0.00     0.041 C 
HETATM   10  C   UNL     1      -7.262  -0.498 -35.126  1.00  0.00     0.005 C 
HETATM   11  C   UNL     1      -6.964  -1.717 -34.241  1.00  0.00     0.005 C 
HETATM   12  C   UNL     1      -5.500  -1.740 -33.775  1.00  0.00     0.047 C 
HETATM   13  N   UNL     1      -3.087   2.443 -31.748  1.00  0.00    -0.336 N 
HETATM   14  C   UNL     1      -3.332   3.828 -31.723  1.00  0.00     0.106 A 
HETATM   15  C   UNL     1      -2.457   4.633 -31.096  1.00  0.00     0.064 C 
HETATM   16  N   UNL     1      -6.419   3.943 -33.551  1.00  0.00    -0.128 NA
HETATM   17  N   UNL     1      -6.286   5.280 -33.292  1.00  0.00    -0.122 NA
HETATM   18  H   UNL     1      -2.245   2.117 -31.282  1.00  0.00     0.168 HD
ENDROOT
BRANCH   1  19
HETATM   19  S   UNL     1      -4.622   7.026 -32.098  1.00  0.00    -0.080 SA
BRANCH  19  20
HETATM   20  C   UNL     1      -5.131   6.986 -30.352  1.00  0.00     0.185 C 
BRANCH  20  21
HETATM   21  C   UNL     1      -6.637   6.833 -30.238  1.00  0.00     0.227 C 
HETATM   22  N   UNL     1      -7.079   5.539 -30.057  1.00  0.00    -0.356 N 
HETATM   23  H   UNL     1      -6.421   4.868 -29.682  1.00  0.00     0.162 HD
HETATM   24  O   UNL     1      -7.403   7.785 -30.368  1.00  0.00    -0.273 OA
BRANCH  22  25
HETATM   25  C   UNL     1      -8.489   5.272 -29.879  1.00  0.00     0.161 C 
BRANCH  25  26
HETATM   26  C   UNL     1      -8.997   4.219 -30.829  1.00  0.00    -0.040 A 
HETATM   27  C   UNL     1      -8.569   2.891 -30.702  1.00  0.00     0.011 A 
HETATM   28  C   UNL     1      -9.081   1.899 -31.542  1.00  0.00     0.037 A 
HETATM   29  C   UNL     1     -10.034   2.207 -32.515  1.00  0.00     0.068 A 
HETATM   30  C   UNL     1     -10.464   3.527 -32.649  1.00  0.00     0.037 A 
HETATM   31  C   UNL     1      -9.956   4.522 -31.806  1.00  0.00     0.011 A 
BRANCH  29  32
HETATM   32  O   UNL     1     -10.460   1.142 -33.257  1.00  0.00    -0.356 OA
HETATM   33  C   UNL     1     -10.214  -0.152 -32.719  1.00  0.00     0.210 C 
ENDBRANCH  29  32
ENDBRANCH  25  26
ENDBRANCH  22  25
ENDBRANCH  20  21
ENDBRANCH  19  20
ENDBRANCH   1  19
TORSDOF 6
ENDMDL
