MODEL 1
REMARK VINA RESULT:      -9.4      0.000      0.000
REMARK  5 active torsions:
REMARK  status: ('A' for Active; 'I' for Inactive)
REMARK       I    between atoms: C_2  and  N_3 
REMARK    1  A    between atoms: C_2  and  C_31 
REMARK    2  A    between atoms: N_3  and  C_4 
REMARK    3  A    between atoms: C_9  and  C_10 
REMARK    4  A    between atoms: C_12  and  N_13 
REMARK    5  A    between atoms: N_13  and  C_14 
ROOT
HETATM    1  C   UNL     1      -8.482   0.775 -33.178  1.00  0.00     0.164 A 
HETATM    2  N   UNL     1      -7.536   1.349 -32.418  1.00  0.00    -0.210 NA
HETATM    3  C   UNL     1      -6.308   0.802 -32.407  1.00  0.00     0.143 A 
HETATM    4  C   UNL     1      -6.004  -0.355 -33.142  1.00  0.00     0.039 A 
HETATM    5  C   UNL     1      -4.746  -1.012 -33.153  1.00  0.00     0.018 A 
HETATM    6  C   UNL     1      -4.550  -2.169 -33.905  1.00  0.00     0.001 A 
HETATM    7  C   UNL     1      -5.604  -2.684 -34.645  1.00  0.00     0.002 A 
HETATM    8  C   UNL     1      -6.843  -2.038 -34.628  1.00  0.00     0.032 A 
HETATM    9  C   UNL     1      -7.062  -0.880 -33.891  1.00  0.00     0.073 A 
HETATM   10  N   UNL     1      -8.276  -0.322 -33.925  1.00  0.00    -0.228 NA
ENDROOT
BRANCH   1  11
HETATM   11  C   UNL     1      -9.833   1.388 -33.169  1.00  0.00     0.039 A 
HETATM   12  C   UNL     1     -10.101   2.733 -32.787  1.00  0.00     0.049 A 
HETATM   13  C   UNL     1     -11.422   3.212 -32.831  1.00  0.00     0.030 A 
HETATM   14  C   UNL     1     -12.481   2.398 -33.235  1.00  0.00     0.002 A 
HETATM   15  C   UNL     1     -12.242   1.084 -33.601  1.00  0.00     0.001 A 
HETATM   16  C   UNL     1     -10.939   0.591 -33.566  1.00  0.00     0.018 A 
BRANCH  12  17
HETATM   17  N   UNL     1      -9.043   3.562 -32.336  1.00  0.00    -0.321 N 
HETATM   18  C   UNL     1      -8.480   4.666 -32.947  1.00  0.00     0.274 C 
HETATM   19  O   UNL     1      -8.749   5.119 -34.054  1.00  0.00    -0.266 OA
HETATM   20  H   UNL     1      -8.619   3.305 -31.440  1.00  0.00     0.169 HD
BRANCH  18  21
HETATM   21  C   UNL     1      -7.428   5.344 -32.117  1.00  0.00     0.124 A 
HETATM   22  C   UNL     1      -7.078   4.814 -30.880  1.00  0.00     0.037 A 
HETATM   23  C   UNL     1      -6.079   5.448 -30.146  1.00  0.00     0.004 A 
HETATM   24  C   UNL     1      -5.462   6.578 -30.673  1.00  0.00     0.019 A 
HETATM   25  C   UNL     1      -5.873   7.036 -31.915  1.00  0.00     0.117 A 
HETATM   26  N   UNL     1      -6.846   6.455 -32.651  1.00  0.00    -0.256 NA
ENDBRANCH  18  21
ENDBRANCH  12  17
ENDBRANCH   1  11
BRANCH   3  27
HETATM   27  N   UNL     1      -5.283   1.426 -31.644  1.00  0.00    -0.340 N 
HETATM   28  H   UNL     1      -4.713   0.704 -31.217  1.00  0.00     0.167 HD
BRANCH  27  29
HETATM   29  C   UNL     1      -4.516   2.559 -32.007  1.00  0.00     0.034 A 
HETATM   30  C   UNL     1      -3.394   2.961 -31.267  1.00  0.00     0.032 A 
HETATM   31  C   UNL     1      -2.594   4.047 -31.646  1.00  0.00     0.034 A 
HETATM   32  C   UNL     1      -2.949   4.713 -32.819  1.00  0.00     0.062 A 
HETATM   33  N   UNL     1      -2.398   5.790 -33.462  1.00  0.00    -0.278 N 
HETATM   34  C   UNL     1      -4.032   4.333 -33.602  1.00  0.00     0.013 A 
HETATM   35  H   UNL     1      -1.589   6.330 -33.179  1.00  0.00     0.189 HD
HETATM   36  N   UNL     1      -3.032   6.137 -34.597  1.00  0.00    -0.186 NA
HETATM   37  C   UNL     1      -4.026   5.247 -34.679  1.00  0.00     0.152 A 
HETATM   38  C   UNL     1      -4.818   3.235 -33.204  1.00  0.00     0.044 A 
ENDBRANCH  27  29
ENDBRANCH   3  27
TORSDOF 5
ENDMDL
MODEL 2
REMARK VINA RESULT:      -9.4      1.960      5.373
REMARK  5 active torsions:
REMARK  status: ('A' for Active; 'I' for Inactive)
REMARK       I    between atoms: C_2  and  N_3 
REMARK    1  A    between atoms: C_2  and  C_31 
REMARK    2  A    between atoms: N_3  and  C_4 
REMARK    3  A    between atoms: C_9  and  C_10 
REMARK    4  A    between atoms: C_12  and  N_13 
REMARK    5  A    between atoms: N_13  and  C_14 
ROOT
HETATM    1  C   UNL     1      -5.612   0.530 -32.180  1.00  0.00     0.164 A 
HETATM    2  N   UNL     1      -4.436   1.170 -32.088  1.00  0.00    -0.210 NA
HETATM    3  C   UNL     1      -4.374   2.287 -31.340  1.00  0.00     0.143 A 
HETATM    4  C   UNL     1      -5.502   2.805 -30.685  1.00  0.00     0.039 A 
HETATM    5  C   UNL     1      -5.526   3.995 -29.912  1.00  0.00     0.018 A 
HETATM    6  C   UNL     1      -6.705   4.435 -29.314  1.00  0.00     0.001 A 
HETATM    7  C   UNL     1      -7.869   3.701 -29.487  1.00  0.00     0.002 A 
HETATM    8  C   UNL     1      -7.844   2.534 -30.254  1.00  0.00     0.032 A 
HETATM    9  C   UNL     1      -6.680   2.070 -30.855  1.00  0.00     0.073 A 
HETATM   10  N   UNL     1      -6.737   0.945 -31.575  1.00  0.00    -0.228 NA
ENDROOT
BRANCH   1  11
HETATM   11  C   UNL     1      -5.662  -0.693 -33.018  1.00  0.00     0.039 A 
HETATM   12  C   UNL     1      -6.785  -1.084 -33.800  1.00  0.00     0.049 A 
HETATM   13  C   UNL     1      -6.714  -2.258 -34.569  1.00  0.00     0.030 A 
HETATM   14  C   UNL     1      -5.569  -3.057 -34.580  1.00  0.00     0.002 A 
HETATM   15  C   UNL     1      -4.471  -2.698 -33.818  1.00  0.00     0.001 A 
HETATM   16  C   UNL     1      -4.521  -1.536 -33.050  1.00  0.00     0.018 A 
BRANCH  12  17
HETATM   17  N   UNL     1      -7.970  -0.306 -33.771  1.00  0.00    -0.321 N 
HETATM   18  C   UNL     1      -8.244   0.891 -34.406  1.00  0.00     0.274 C 
HETATM   19  O   UNL     1      -7.476   1.562 -35.086  1.00  0.00    -0.266 OA
HETATM   20  H   UNL     1      -8.731  -0.664 -33.187  1.00  0.00     0.169 HD
BRANCH  18  21
HETATM   21  C   UNL     1      -9.652   1.373 -34.205  1.00  0.00     0.124 A 
HETATM   22  C   UNL     1     -10.598   0.522 -33.644  1.00  0.00     0.037 A 
HETATM   23  C   UNL     1     -11.888   1.007 -33.443  1.00  0.00     0.004 A 
HETATM   24  C   UNL     1     -12.184   2.318 -33.799  1.00  0.00     0.019 A 
HETATM   25  C   UNL     1     -11.178   3.096 -34.350  1.00  0.00     0.117 A 
HETATM   26  N   UNL     1      -9.919   2.658 -34.572  1.00  0.00    -0.256 NA
ENDBRANCH  18  21
ENDBRANCH  12  17
ENDBRANCH   1  11
BRANCH   3  27
HETATM   27  N   UNL     1      -3.123   2.949 -31.194  1.00  0.00    -0.340 N 
HETATM   28  H   UNL     1      -2.395   2.248 -31.109  1.00  0.00     0.167 HD
BRANCH  27  29
HETATM   29  C   UNL     1      -2.675   4.094 -31.894  1.00  0.00     0.034 A 
HETATM   30  C   UNL     1      -2.376   4.055 -33.264  1.00  0.00     0.032 A 
HETATM   31  C   UNL     1      -1.984   5.194 -33.981  1.00  0.00     0.034 A 
HETATM   32  C   UNL     1      -1.921   6.394 -33.271  1.00  0.00     0.062 A 
HETATM   33  N   UNL     1      -1.582   7.665 -33.654  1.00  0.00    -0.278 N 
HETATM   34  C   UNL     1      -2.238   6.489 -31.922  1.00  0.00     0.013 A 
HETATM   35  H   UNL     1      -1.294   7.976 -34.574  1.00  0.00     0.189 HD
HETATM   36  N   UNL     1      -1.655   8.575 -32.666  1.00  0.00    -0.186 NA
HETATM   37  C   UNL     1      -2.055   7.855 -31.613  1.00  0.00     0.152 A 
HETATM   38  C   UNL     1      -2.634   5.332 -31.224  1.00  0.00     0.044 A 
ENDBRANCH  27  29
ENDBRANCH   3  27
TORSDOF 5
ENDMDL
MODEL 3
REMARK VINA RESULT:      -9.3      0.989      1.449
REMARK  5 active torsions:
REMARK  status: ('A' for Active; 'I' for Inactive)
REMARK       I    between atoms: C_2  and  N_3 
REMARK    1  A    between atoms: C_2  and  C_31 
REMARK    2  A    between atoms: N_3  and  C_4 
REMARK    3  A    between atoms: C_9  and  C_10 
REMARK    4  A    between atoms: C_12  and  N_13 
REMARK    5  A    between atoms: N_13  and  C_14 
ROOT
HETATM    1  C   UNL     1      -8.473   1.001 -33.308  1.00  0.00     0.164 A 
HETATM    2  N   UNL     1      -7.499   1.770 -32.794  1.00  0.00    -0.210 NA
HETATM    3  C   UNL     1      -6.239   1.298 -32.810  1.00  0.00     0.143 A 
HETATM    4  C   UNL     1      -5.928   0.028 -33.319  1.00  0.00     0.039 A 
HETATM    5  C   UNL     1      -4.634  -0.554 -33.336  1.00  0.00     0.018 A 
HETATM    6  C   UNL     1      -4.432  -1.833 -33.850  1.00  0.00     0.001 A 
HETATM    7  C   UNL     1      -5.515  -2.545 -34.343  1.00  0.00     0.002 A 
HETATM    8  C   UNL     1      -6.789  -1.972 -34.320  1.00  0.00     0.032 A 
HETATM    9  C   UNL     1      -7.016  -0.697 -33.819  1.00  0.00     0.073 A 
HETATM   10  N   UNL     1      -8.264  -0.219 -33.830  1.00  0.00    -0.228 NA
ENDROOT
BRANCH   1  11
HETATM   11  C   UNL     1      -9.857   1.534 -33.272  1.00  0.00     0.039 A 
HETATM   12  C   UNL     1     -10.190   2.876 -32.937  1.00  0.00     0.049 A 
HETATM   13  C   UNL     1     -11.537   3.276 -32.951  1.00  0.00     0.030 A 
HETATM   14  C   UNL     1     -12.561   2.385 -33.280  1.00  0.00     0.002 A 
HETATM   15  C   UNL     1     -12.257   1.073 -33.599  1.00  0.00     0.001 A 
HETATM   16  C   UNL     1     -10.926   0.658 -33.593  1.00  0.00     0.018 A 
BRANCH  12  17
HETATM   17  N   UNL     1      -9.168   3.784 -32.562  1.00  0.00    -0.321 N 
HETATM   18  C   UNL     1      -8.924   4.364 -31.331  1.00  0.00     0.274 C 
HETATM   19  O   UNL     1      -9.599   4.253 -30.313  1.00  0.00    -0.266 OA
HETATM   20  H   UNL     1      -8.522   4.069 -33.304  1.00  0.00     0.169 HD
BRANCH  18  21
HETATM   21  C   UNL     1      -7.686   5.213 -31.296  1.00  0.00     0.124 A 
HETATM   22  C   UNL     1      -6.648   4.882 -30.432  1.00  0.00     0.037 A 
HETATM   23  C   UNL     1      -5.501   5.671 -30.444  1.00  0.00     0.004 A 
HETATM   24  C   UNL     1      -5.427   6.751 -31.317  1.00  0.00     0.019 A 
HETATM   25  C   UNL     1      -6.509   7.005 -32.145  1.00  0.00     0.117 A 
HETATM   26  N   UNL     1      -7.643   6.271 -32.154  1.00  0.00    -0.256 NA
ENDBRANCH  18  21
ENDBRANCH  12  17
ENDBRANCH   1  11
BRANCH   3  27
HETATM   27  N   UNL     1      -5.191   2.121 -32.313  1.00  0.00    -0.340 N 
HETATM   28  H   UNL     1      -4.530   1.535 -31.814  1.00  0.00     0.167 HD
BRANCH  27  29
HETATM   29  C   UNL     1      -4.548   3.187 -32.987  1.00  0.00     0.034 A 
HETATM   30  C   UNL     1      -5.215   3.970 -33.939  1.00  0.00     0.032 A 
HETATM   31  C   UNL     1      -4.608   5.063 -34.573  1.00  0.00     0.034 A 
HETATM   32  C   UNL     1      -3.297   5.360 -34.198  1.00  0.00     0.062 A 
HETATM   33  N   UNL     1      -2.428   6.335 -34.610  1.00  0.00    -0.278 N 
HETATM   34  C   UNL     1      -2.606   4.634 -33.237  1.00  0.00     0.013 A 
HETATM   35  H   UNL     1      -2.590   7.054 -35.305  1.00  0.00     0.189 HD
HETATM   36  N   UNL     1      -1.232   6.303 -33.992  1.00  0.00    -0.186 NA
HETATM   37  C   UNL     1      -1.345   5.265 -33.158  1.00  0.00     0.152 A 
HETATM   38  C   UNL     1      -3.239   3.543 -32.610  1.00  0.00     0.044 A 
ENDBRANCH  27  29
ENDBRANCH   3  27
TORSDOF 5
ENDMDL
MODEL 4
REMARK VINA RESULT:      -9.2      2.787      5.408
REMARK  5 active torsions:
REMARK  status: ('A' for Active; 'I' for Inactive)
REMARK       I    between atoms: C_2  and  N_3 
REMARK    1  A    between atoms: C_2  and  C_31 
REMARK    2  A    between atoms: N_3  and  C_4 
REMARK    3  A    between atoms: C_9  and  C_10 
REMARK    4  A    between atoms: C_12  and  N_13 
REMARK    5  A    between atoms: N_13  and  C_14 
ROOT
HETATM    1  C   UNL     1      -9.898   1.473 -33.033  1.00  0.00     0.164 A 
HETATM    2  N   UNL     1      -8.975   1.016 -33.894  1.00  0.00    -0.210 NA
HETATM    3  C   UNL     1      -7.676   1.173 -33.579  1.00  0.00     0.143 A 
HETATM    4  C   UNL     1      -7.271   1.818 -32.400  1.00  0.00     0.039 A 
HETATM    5  C   UNL     1      -5.926   2.056 -32.016  1.00  0.00     0.018 A 
HETATM    6  C   UNL     1      -5.627   2.723 -30.830  1.00  0.00     0.001 A 
HETATM    7  C   UNL     1      -6.663   3.164 -30.021  1.00  0.00     0.002 A 
HETATM    8  C   UNL     1      -7.987   2.935 -30.404  1.00  0.00     0.032 A 
HETATM    9  C   UNL     1      -8.311   2.267 -31.578  1.00  0.00     0.073 A 
HETATM   10  N   UNL     1      -9.601   2.087 -31.876  1.00  0.00    -0.228 NA
ENDROOT
BRANCH   1  11
HETATM   11  C   UNL     1     -11.324   1.300 -33.403  1.00  0.00     0.039 A 
HETATM   12  C   UNL     1     -12.194   2.366 -33.765  1.00  0.00     0.049 A 
HETATM   13  C   UNL     1     -13.526   2.082 -34.113  1.00  0.00     0.030 A 
HETATM   14  C   UNL     1     -14.020   0.776 -34.107  1.00  0.00     0.002 A 
HETATM   15  C   UNL     1     -13.192  -0.273 -33.749  1.00  0.00     0.001 A 
HETATM   16  C   UNL     1     -11.867  -0.012 -33.402  1.00  0.00     0.018 A 
BRANCH  12  17
HETATM   17  N   UNL     1     -11.720   3.702 -33.738  1.00  0.00    -0.321 N 
HETATM   18  C   UNL     1     -11.107   4.430 -34.740  1.00  0.00     0.274 C 
HETATM   19  O   UNL     1     -10.788   4.034 -35.856  1.00  0.00    -0.266 OA
HETATM   20  H   UNL     1     -11.829   4.202 -32.851  1.00  0.00     0.169 HD
BRANCH  18  21
HETATM   21  C   UNL     1     -10.823   5.856 -34.364  1.00  0.00     0.124 A 
HETATM   22  C   UNL     1     -11.083   6.874 -35.276  1.00  0.00     0.037 A 
HETATM   23  C   UNL     1     -10.837   8.188 -34.888  1.00  0.00     0.004 A 
HETATM   24  C   UNL     1     -10.351   8.440 -33.609  1.00  0.00     0.019 A 
HETATM   25  C   UNL     1     -10.123   7.364 -32.766  1.00  0.00     0.117 A 
HETATM   26  N   UNL     1     -10.338   6.076 -33.110  1.00  0.00    -0.256 NA
ENDBRANCH  18  21
ENDBRANCH  12  17
ENDBRANCH   1  11
BRANCH   3  27
HETATM   27  N   UNL     1      -6.687   0.652 -34.458  1.00  0.00    -0.340 N 
HETATM   28  H   UNL     1      -6.016   1.385 -34.660  1.00  0.00     0.167 HD
BRANCH  27  29
HETATM   29  C   UNL     1      -6.075  -0.623 -34.397  1.00  0.00     0.034 A 
HETATM   30  C   UNL     1      -4.853  -0.826 -33.739  1.00  0.00     0.032 A 
HETATM   31  C   UNL     1      -4.263  -2.092 -33.624  1.00  0.00     0.034 A 
HETATM   32  C   UNL     1      -4.960  -3.166 -34.181  1.00  0.00     0.062 A 
HETATM   33  N   UNL     1      -4.677  -4.504 -34.247  1.00  0.00    -0.278 N 
HETATM   34  C   UNL     1      -6.188  -3.019 -34.814  1.00  0.00     0.013 A 
HETATM   35  H   UNL     1      -3.858  -4.980 -33.886  1.00  0.00     0.189 HD
HETATM   36  N   UNL     1      -5.620  -5.236 -34.866  1.00  0.00    -0.186 NA
HETATM   37  C   UNL     1      -6.538  -4.328 -35.211  1.00  0.00     0.152 A 
HETATM   38  C   UNL     1      -6.764  -1.738 -34.912  1.00  0.00     0.044 A 
ENDBRANCH  27  29
ENDBRANCH   3  27
TORSDOF 5
ENDMDL
MODEL 5
REMARK VINA RESULT:      -9.1      1.987      5.241
REMARK  5 active torsions:
REMARK  status: ('A' for Active; 'I' for Inactive)
REMARK       I    between atoms: C_2  and  N_3 
REMARK    1  A    between atoms: C_2  and  C_31 
REMARK    2  A    between atoms: N_3  and  C_4 
REMARK    3  A    between atoms: C_9  and  C_10 
REMARK    4  A    between atoms: C_12  and  N_13 
REMARK    5  A    between atoms: N_13  and  C_14 
ROOT
HETATM    1  C   UNL     1      -8.023   0.210 -33.339  1.00  0.00     0.164 A 
HETATM    2  N   UNL     1      -7.853   0.855 -32.174  1.00  0.00    -0.210 NA
HETATM    3  C   UNL     1      -8.774   1.765 -31.809  1.00  0.00     0.143 A 
HETATM    4  C   UNL     1      -9.878   2.071 -32.620  1.00  0.00     0.039 A 
HETATM    5  C   UNL     1     -10.869   3.042 -32.324  1.00  0.00     0.018 A 
HETATM    6  C   UNL     1     -11.921   3.283 -33.205  1.00  0.00     0.001 A 
HETATM    7  C   UNL     1     -11.991   2.566 -34.390  1.00  0.00     0.002 A 
HETATM    8  C   UNL     1     -11.010   1.615 -34.683  1.00  0.00     0.032 A 
HETATM    9  C   UNL     1      -9.956   1.351 -33.817  1.00  0.00     0.073 A 
HETATM   10  N   UNL     1      -9.056   0.427 -34.169  1.00  0.00    -0.228 NA
ENDROOT
BRANCH   1  11
HETATM   11  C   UNL     1      -6.991  -0.782 -33.729  1.00  0.00     0.039 A 
HETATM   12  C   UNL     1      -5.591  -0.530 -33.716  1.00  0.00     0.049 A 
HETATM   13  C   UNL     1      -4.703  -1.552 -34.092  1.00  0.00     0.030 A 
HETATM   14  C   UNL     1      -5.161  -2.811 -34.484  1.00  0.00     0.002 A 
HETATM   15  C   UNL     1      -6.520  -3.072 -34.512  1.00  0.00     0.001 A 
HETATM   16  C   UNL     1      -7.417  -2.072 -34.141  1.00  0.00     0.018 A 
BRANCH  12  17
HETATM   17  N   UNL     1      -5.109   0.755 -33.359  1.00  0.00    -0.321 N 
HETATM   18  C   UNL     1      -4.407   1.141 -32.233  1.00  0.00     0.274 C 
HETATM   19  O   UNL     1      -4.110   0.444 -31.269  1.00  0.00    -0.266 OA
HETATM   20  H   UNL     1      -5.319   1.514 -34.013  1.00  0.00     0.169 HD
BRANCH  18  21
HETATM   21  C   UNL     1      -3.989   2.583 -32.246  1.00  0.00     0.124 A 
HETATM   22  C   UNL     1      -4.751   3.515 -32.944  1.00  0.00     0.037 A 
HETATM   23  C   UNL     1      -4.355   4.849 -32.914  1.00  0.00     0.004 A 
HETATM   24  C   UNL     1      -3.224   5.207 -32.187  1.00  0.00     0.019 A 
HETATM   25  C   UNL     1      -2.526   4.212 -31.520  1.00  0.00     0.117 A 
HETATM   26  N   UNL     1      -2.872   2.906 -31.535  1.00  0.00    -0.256 NA
ENDBRANCH  18  21
ENDBRANCH  12  17
ENDBRANCH   1  11
BRANCH   3  27
HETATM   27  N   UNL     1      -8.633   2.422 -30.555  1.00  0.00    -0.340 N 
HETATM   28  H   UNL     1      -8.634   1.721 -29.822  1.00  0.00     0.167 HD
BRANCH  27  29
HETATM   29  C   UNL     1      -7.777   3.507 -30.249  1.00  0.00     0.034 A 
HETATM   30  C   UNL     1      -6.522   3.313 -29.655  1.00  0.00     0.032 A 
HETATM   31  C   UNL     1      -5.641   4.373 -29.396  1.00  0.00     0.034 A 
HETATM   32  C   UNL     1      -6.060   5.648 -29.778  1.00  0.00     0.062 A 
HETATM   33  N   UNL     1      -5.462   6.875 -29.675  1.00  0.00    -0.278 N 
HETATM   34  C   UNL     1      -7.280   5.885 -30.398  1.00  0.00     0.013 A 
HETATM   35  H   UNL     1      -4.556   7.089 -29.273  1.00  0.00     0.189 HD
HETATM   36  N   UNL     1      -6.191   7.887 -30.179  1.00  0.00    -0.186 NA
HETATM   37  C   UNL     1      -7.298   7.280 -30.619  1.00  0.00     0.152 A 
HETATM   38  C   UNL     1      -8.146   4.804 -30.653  1.00  0.00     0.044 A 
ENDBRANCH  27  29
ENDBRANCH   3  27
TORSDOF 5
ENDMDL
MODEL 6
REMARK VINA RESULT:      -9.0      2.057      6.215
REMARK  5 active torsions:
REMARK  status: ('A' for Active; 'I' for Inactive)
REMARK       I    between atoms: C_2  and  N_3 
REMARK    1  A    between atoms: C_2  and  C_31 
REMARK    2  A    between atoms: N_3  and  C_4 
REMARK    3  A    between atoms: C_9  and  C_10 
REMARK    4  A    between atoms: C_12  and  N_13 
REMARK    5  A    between atoms: N_13  and  C_14 
ROOT
HETATM    1  C   UNL     1      -5.013   2.000 -32.904  1.00  0.00     0.164 A 
HETATM    2  N   UNL     1      -6.128   2.181 -33.630  1.00  0.00    -0.210 NA
HETATM    3  C   UNL     1      -6.670   1.113 -34.242  1.00  0.00     0.143 A 
HETATM    4  C   UNL     1      -6.090  -0.163 -34.161  1.00  0.00     0.039 A 
HETATM    5  C   UNL     1      -6.579  -1.328 -34.807  1.00  0.00     0.018 A 
HETATM    6  C   UNL     1      -5.918  -2.548 -34.678  1.00  0.00     0.001 A 
HETATM    7  C   UNL     1      -4.764  -2.617 -33.912  1.00  0.00     0.002 A 
HETATM    8  C   UNL     1      -4.281  -1.467 -33.282  1.00  0.00     0.032 A 
HETATM    9  C   UNL     1      -4.925  -0.240 -33.391  1.00  0.00     0.073 A 
HETATM   10  N   UNL     1      -4.400   0.815 -32.759  1.00  0.00    -0.228 NA
ENDROOT
BRANCH   1  11
HETATM   11  C   UNL     1      -4.424   3.193 -32.246  1.00  0.00     0.039 A 
HETATM   12  C   UNL     1      -5.185   4.251 -31.675  1.00  0.00     0.049 A 
HETATM   13  C   UNL     1      -4.520   5.326 -31.062  1.00  0.00     0.030 A 
HETATM   14  C   UNL     1      -3.126   5.386 -31.003  1.00  0.00     0.002 A 
HETATM   15  C   UNL     1      -2.369   4.370 -31.561  1.00  0.00     0.001 A 
HETATM   16  C   UNL     1      -3.010   3.294 -32.172  1.00  0.00     0.018 A 
BRANCH  12  17
HETATM   17  N   UNL     1      -6.600   4.227 -31.761  1.00  0.00    -0.321 N 
HETATM   18  C   UNL     1      -7.524   3.819 -30.817  1.00  0.00     0.274 C 
HETATM   19  O   UNL     1      -7.294   3.326 -29.719  1.00  0.00    -0.266 OA
HETATM   20  H   UNL     1      -7.005   4.540 -32.648  1.00  0.00     0.169 HD
BRANCH  18  21
HETATM   21  C   UNL     1      -8.951   4.023 -31.240  1.00  0.00     0.124 A 
HETATM   22  C   UNL     1      -9.982   3.547 -30.438  1.00  0.00     0.037 A 
HETATM   23  C   UNL     1     -11.294   3.778 -30.841  1.00  0.00     0.004 A 
HETATM   24  C   UNL     1     -11.531   4.477 -32.020  1.00  0.00     0.019 A 
HETATM   25  C   UNL     1     -10.441   4.916 -32.756  1.00  0.00     0.117 A 
HETATM   26  N   UNL     1      -9.155   4.702 -32.404  1.00  0.00    -0.256 NA
ENDBRANCH  18  21
ENDBRANCH  12  17
ENDBRANCH   1  11
BRANCH   3  27
HETATM   27  N   UNL     1      -7.877   1.279 -34.975  1.00  0.00    -0.340 N 
HETATM   28  H   UNL     1      -7.760   0.858 -35.890  1.00  0.00     0.167 HD
BRANCH  27  29
HETATM   29  C   UNL     1      -9.199   1.132 -34.490  1.00  0.00     0.034 A 
HETATM   30  C   UNL     1      -9.502   0.288 -33.412  1.00  0.00     0.032 A 
HETATM   31  C   UNL     1     -10.797   0.175 -32.888  1.00  0.00     0.034 A 
HETATM   32  C   UNL     1     -11.787   0.963 -33.477  1.00  0.00     0.062 A 
HETATM   33  N   UNL     1     -13.126   1.094 -33.217  1.00  0.00    -0.278 N 
HETATM   34  C   UNL     1     -11.529   1.837 -34.525  1.00  0.00     0.013 A 
HETATM   35  H   UNL     1     -13.668   0.608 -32.513  1.00  0.00     0.189 HD
HETATM   36  N   UNL     1     -13.755   1.982 -34.008  1.00  0.00    -0.186 NA
HETATM   37  C   UNL     1     -12.780   2.432 -34.803  1.00  0.00     0.152 A 
HETATM   38  C   UNL     1     -10.219   1.938 -35.032  1.00  0.00     0.044 A 
ENDBRANCH  27  29
ENDBRANCH   3  27
TORSDOF 5
ENDMDL
MODEL 7
REMARK VINA RESULT:      -9.0      1.687      2.273
REMARK  5 active torsions:
REMARK  status: ('A' for Active; 'I' for Inactive)
REMARK       I    between atoms: C_2  and  N_3 
REMARK    1  A    between atoms: C_2  and  C_31 
REMARK    2  A    between atoms: N_3  and  C_4 
REMARK    3  A    between atoms: C_9  and  C_10 
REMARK    4  A    between atoms: C_12  and  N_13 
REMARK    5  A    between atoms: N_13  and  C_14 
ROOT
HETATM    1  C   UNL     1      -9.523   0.715 -33.061  1.00  0.00     0.164 A 
HETATM    2  N   UNL     1      -8.911   1.148 -31.947  1.00  0.00    -0.210 NA
HETATM    3  C   UNL     1      -7.650   0.742 -31.713  1.00  0.00     0.143 A 
HETATM    4  C   UNL     1      -6.979  -0.133 -32.581  1.00  0.00     0.039 A 
HETATM    5  C   UNL     1      -5.667  -0.636 -32.384  1.00  0.00     0.018 A 
HETATM    6  C   UNL     1      -5.094  -1.517 -33.299  1.00  0.00     0.001 A 
HETATM    7  C   UNL     1      -5.823  -1.910 -34.411  1.00  0.00     0.002 A 
HETATM    8  C   UNL     1      -7.118  -1.418 -34.599  1.00  0.00     0.032 A 
HETATM    9  C   UNL     1      -7.709  -0.534 -33.705  1.00  0.00     0.073 A 
HETATM   10  N   UNL     1      -8.951  -0.109 -33.954  1.00  0.00    -0.228 NA
ENDROOT
BRANCH   1  11
HETATM   11  C   UNL     1     -10.916   1.167 -33.296  1.00  0.00     0.039 A 
HETATM   12  C   UNL     1     -11.317   2.530 -33.362  1.00  0.00     0.049 A 
HETATM   13  C   UNL     1     -12.666   2.842 -33.606  1.00  0.00     0.030 A 
HETATM   14  C   UNL     1     -13.626   1.844 -33.780  1.00  0.00     0.002 A 
HETATM   15  C   UNL     1     -13.257   0.511 -33.709  1.00  0.00     0.001 A 
HETATM   16  C   UNL     1     -11.924   0.182 -33.471  1.00  0.00     0.018 A 
BRANCH  12  17
HETATM   17  N   UNL     1     -10.363   3.557 -33.149  1.00  0.00    -0.321 N 
HETATM   18  C   UNL     1     -10.155   4.335 -32.026  1.00  0.00     0.274 C 
HETATM   19  O   UNL     1     -10.812   4.333 -30.991  1.00  0.00    -0.266 OA
HETATM   20  H   UNL     1      -9.745   3.770 -33.937  1.00  0.00     0.169 HD
BRANCH  18  21
HETATM   21  C   UNL     1      -8.983   5.266 -32.144  1.00  0.00     0.124 A 
HETATM   22  C   UNL     1      -8.950   6.432 -31.386  1.00  0.00     0.037 A 
HETATM   23  C   UNL     1      -7.838   7.261 -31.495  1.00  0.00     0.004 A 
HETATM   24  C   UNL     1      -6.799   6.898 -32.346  1.00  0.00     0.019 A 
HETATM   25  C   UNL     1      -6.916   5.716 -33.062  1.00  0.00     0.117 A 
HETATM   26  N   UNL     1      -7.984   4.893 -32.992  1.00  0.00    -0.256 NA
ENDBRANCH  18  21
ENDBRANCH  12  17
ENDBRANCH   1  11
BRANCH   3  27
HETATM   27  N   UNL     1      -6.973   1.231 -30.562  1.00  0.00    -0.340 N 
HETATM   28  H   UNL     1      -6.417   0.478 -30.171  1.00  0.00     0.167 HD
BRANCH  27  29
HETATM   29  C   UNL     1      -6.341   2.488 -30.410  1.00  0.00     0.034 A 
HETATM   30  C   UNL     1      -6.842   3.468 -29.541  1.00  0.00     0.032 A 
HETATM   31  C   UNL     1      -6.196   4.696 -29.340  1.00  0.00     0.034 A 
HETATM   32  C   UNL     1      -5.003   4.901 -30.035  1.00  0.00     0.062 A 
HETATM   33  N   UNL     1      -4.137   5.962 -30.069  1.00  0.00    -0.278 N 
HETATM   34  C   UNL     1      -4.451   3.948 -30.881  1.00  0.00     0.013 A 
HETATM   35  H   UNL     1      -4.217   6.841 -29.571  1.00  0.00     0.189 HD
HETATM   36  N   UNL     1      -3.068   5.774 -30.865  1.00  0.00    -0.186 NA
HETATM   37  C   UNL     1      -3.263   4.547 -31.358  1.00  0.00     0.152 A 
HETATM   38  C   UNL     1      -5.115   2.720 -31.063  1.00  0.00     0.044 A 
ENDBRANCH  27  29
ENDBRANCH   3  27
TORSDOF 5
ENDMDL
MODEL 8
REMARK VINA RESULT:      -8.9      1.445      2.345
REMARK  5 active torsions:
REMARK  status: ('A' for Active; 'I' for Inactive)
REMARK       I    between atoms: C_2  and  N_3 
REMARK    1  A    between atoms: C_2  and  C_31 
REMARK    2  A    between atoms: N_3  and  C_4 
REMARK    3  A    between atoms: C_9  and  C_10 
REMARK    4  A    between atoms: C_12  and  N_13 
REMARK    5  A    between atoms: N_13  and  C_14 
ROOT
HETATM    1  C   UNL     1      -8.071   0.252 -33.435  1.00  0.00     0.164 A 
HETATM    2  N   UNL     1      -7.181   0.616 -32.499  1.00  0.00    -0.210 NA
HETATM    3  C   UNL     1      -6.024  -0.067 -32.419  1.00  0.00     0.143 A 
HETATM    4  C   UNL     1      -5.744  -1.152 -33.263  1.00  0.00     0.039 A 
HETATM    5  C   UNL     1      -4.567  -1.945 -33.216  1.00  0.00     0.018 A 
HETATM    6  C   UNL     1      -4.390  -3.015 -34.089  1.00  0.00     0.001 A 
HETATM    7  C   UNL     1      -5.384  -3.311 -35.011  1.00  0.00     0.002 A 
HETATM    8  C   UNL     1      -6.544  -2.533 -35.051  1.00  0.00     0.032 A 
HETATM    9  C   UNL     1      -6.741  -1.457 -34.195  1.00  0.00     0.073 A 
HETATM   10  N   UNL     1      -7.879  -0.762 -34.294  1.00  0.00    -0.228 NA
ENDROOT
BRANCH   1  11
HETATM   11  C   UNL     1      -9.344   1.011 -33.500  1.00  0.00     0.039 A 
HETATM   12  C   UNL     1      -9.430   2.419 -33.690  1.00  0.00     0.049 A 
HETATM   13  C   UNL     1     -10.694   3.030 -33.752  1.00  0.00     0.030 A 
HETATM   14  C   UNL     1     -11.871   2.291 -33.624  1.00  0.00     0.002 A 
HETATM   15  C   UNL     1     -11.808   0.922 -33.429  1.00  0.00     0.001 A 
HETATM   16  C   UNL     1     -10.563   0.296 -33.368  1.00  0.00     0.018 A 
BRANCH  12  17
HETATM   17  N   UNL     1      -8.245   3.191 -33.782  1.00  0.00    -0.321 N 
HETATM   18  C   UNL     1      -7.832   4.251 -32.997  1.00  0.00     0.274 C 
HETATM   19  O   UNL     1      -8.454   4.786 -32.086  1.00  0.00    -0.266 OA
HETATM   20  H   UNL     1      -7.604   2.947 -34.543  1.00  0.00     0.169 HD
BRANCH  18  21
HETATM   21  C   UNL     1      -6.465   4.765 -33.347  1.00  0.00     0.124 A 
HETATM   22  C   UNL     1      -5.673   4.060 -34.247  1.00  0.00     0.037 A 
HETATM   23  C   UNL     1      -4.422   4.576 -34.574  1.00  0.00     0.004 A 
HETATM   24  C   UNL     1      -4.010   5.775 -34.000  1.00  0.00     0.019 A 
HETATM   25  C   UNL     1      -4.866   6.411 -33.114  1.00  0.00     0.117 A 
HETATM   26  N   UNL     1      -6.080   5.935 -32.763  1.00  0.00    -0.256 NA
ENDBRANCH  18  21
ENDBRANCH  12  17
ENDBRANCH   1  11
BRANCH   3  27
HETATM   27  N   UNL     1      -5.051   0.338 -31.464  1.00  0.00    -0.340 N 
HETATM   28  H   UNL     1      -4.231  -0.249 -31.571  1.00  0.00     0.167 HD
BRANCH  27  29
HETATM   29  C   UNL     1      -4.710   1.662 -31.097  1.00  0.00     0.034 A 
HETATM   30  C   UNL     1      -3.535   2.276 -31.554  1.00  0.00     0.032 A 
HETATM   31  C   UNL     1      -3.212   3.604 -31.244  1.00  0.00     0.034 A 
HETATM   32  C   UNL     1      -4.131   4.311 -30.467  1.00  0.00     0.062 A 
HETATM   33  N   UNL     1      -4.128   5.596 -29.992  1.00  0.00    -0.278 N 
HETATM   34  C   UNL     1      -5.322   3.756 -30.019  1.00  0.00     0.013 A 
HETATM   35  H   UNL     1      -3.413   6.301 -30.124  1.00  0.00     0.189 HD
HETATM   36  N   UNL     1      -5.221   5.920 -29.276  1.00  0.00    -0.186 NA
HETATM   37  C   UNL     1      -5.945   4.797 -29.294  1.00  0.00     0.152 A 
HETATM   38  C   UNL     1      -5.628   2.421 -30.347  1.00  0.00     0.044 A 
ENDBRANCH  27  29
ENDBRANCH   3  27
TORSDOF 5
ENDMDL
MODEL 9
REMARK VINA RESULT:      -8.9      2.041      5.711
REMARK  5 active torsions:
REMARK  status: ('A' for Active; 'I' for Inactive)
REMARK       I    between atoms: C_2  and  N_3 
REMARK    1  A    between atoms: C_2  and  C_31 
REMARK    2  A    between atoms: N_3  and  C_4 
REMARK    3  A    between atoms: C_9  and  C_10 
REMARK    4  A    between atoms: C_12  and  N_13 
REMARK    5  A    between atoms: N_13  and  C_14 
ROOT
HETATM    1  C   UNL     1      -6.169   2.018 -32.873  1.00  0.00     0.164 A 
HETATM    2  N   UNL     1      -5.422   2.958 -33.474  1.00  0.00    -0.210 NA
HETATM    3  C   UNL     1      -5.465   4.212 -32.989  1.00  0.00     0.143 A 
HETATM    4  C   UNL     1      -6.281   4.560 -31.902  1.00  0.00     0.039 A 
HETATM    5  C   UNL     1      -6.410   5.865 -31.358  1.00  0.00     0.018 A 
HETATM    6  C   UNL     1      -7.263   6.111 -30.284  1.00  0.00     0.001 A 
HETATM    7  C   UNL     1      -8.000   5.065 -29.749  1.00  0.00     0.002 A 
HETATM    8  C   UNL     1      -7.876   3.782 -30.290  1.00  0.00     0.032 A 
HETATM    9  C   UNL     1      -7.027   3.510 -31.356  1.00  0.00     0.073 A 
HETATM   10  N   UNL     1      -6.965   2.258 -31.819  1.00  0.00    -0.228 NA
ENDROOT
BRANCH   1  11
HETATM   11  C   UNL     1      -6.116   0.643 -33.429  1.00  0.00     0.039 A 
HETATM   12  C   UNL     1      -7.144   0.057 -34.219  1.00  0.00     0.049 A 
HETATM   13  C   UNL     1      -6.979  -1.250 -34.706  1.00  0.00     0.030 A 
HETATM   14  C   UNL     1      -5.830  -1.994 -34.430  1.00  0.00     0.002 A 
HETATM   15  C   UNL     1      -4.823  -1.444 -33.655  1.00  0.00     0.001 A 
HETATM   16  C   UNL     1      -4.967  -0.148 -33.164  1.00  0.00     0.018 A 
BRANCH  12  17
HETATM   17  N   UNL     1      -8.335   0.783 -34.476  1.00  0.00    -0.321 N 
HETATM   18  C   UNL     1      -9.550   0.727 -33.820  1.00  0.00     0.274 C 
HETATM   19  O   UNL     1      -9.864  -0.025 -32.904  1.00  0.00    -0.266 OA
HETATM   20  H   UNL     1      -8.306   1.432 -35.268  1.00  0.00     0.169 HD
BRANCH  18  21
HETATM   21  C   UNL     1     -10.558   1.717 -34.328  1.00  0.00     0.124 A 
HETATM   22  C   UNL     1     -11.891   1.341 -34.452  1.00  0.00     0.037 A 
HETATM   23  C   UNL     1     -12.808   2.289 -34.898  1.00  0.00     0.004 A 
HETATM   24  C   UNL     1     -12.366   3.574 -35.197  1.00  0.00     0.019 A 
HETATM   25  C   UNL     1     -11.018   3.861 -35.042  1.00  0.00     0.117 A 
HETATM   26  N   UNL     1     -10.098   2.965 -34.623  1.00  0.00    -0.256 NA
ENDBRANCH  18  21
ENDBRANCH  12  17
ENDBRANCH   1  11
BRANCH   3  27
HETATM   27  N   UNL     1      -4.643   5.209 -33.585  1.00  0.00    -0.340 N 
HETATM   28  H   UNL     1      -5.225   6.004 -33.827  1.00  0.00     0.167 HD
BRANCH  27  29
HETATM   29  C   UNL     1      -3.347   5.606 -33.177  1.00  0.00     0.034 A 
HETATM   30  C   UNL     1      -2.659   6.650 -33.811  1.00  0.00     0.032 A 
HETATM   31  C   UNL     1      -1.399   7.089 -33.382  1.00  0.00     0.034 A 
HETATM   32  C   UNL     1      -0.855   6.451 -32.267  1.00  0.00     0.062 A 
HETATM   33  N   UNL     1       0.328   6.627 -31.600  1.00  0.00    -0.278 N 
HETATM   34  C   UNL     1      -1.513   5.434 -31.586  1.00  0.00     0.013 A 
HETATM   35  H   UNL     1       1.065   7.288 -31.815  1.00  0.00     0.189 HD
HETATM   36  N   UNL     1       0.490   5.811 -30.543  1.00  0.00    -0.186 NA
HETATM   37  C   UNL     1      -0.632   5.086 -30.538  1.00  0.00     0.152 A 
HETATM   38  C   UNL     1      -2.780   5.013 -32.032  1.00  0.00     0.044 A 
ENDBRANCH  27  29
ENDBRANCH   3  27
TORSDOF 5
ENDMDL
MODEL 10
REMARK VINA RESULT:      -8.8      1.920      5.094
REMARK  5 active torsions:
REMARK  status: ('A' for Active; 'I' for Inactive)
REMARK       I    between atoms: C_2  and  N_3 
REMARK    1  A    between atoms: C_2  and  C_31 
REMARK    2  A    between atoms: N_3  and  C_4 
REMARK    3  A    between atoms: C_9  and  C_10 
REMARK    4  A    between atoms: C_12  and  N_13 
REMARK    5  A    between atoms: N_13  and  C_14 
ROOT
HETATM    1  C   UNL     1      -8.609   0.686 -33.758  1.00  0.00     0.164 A 
HETATM    2  N   UNL     1      -8.424   1.980 -34.062  1.00  0.00    -0.210 NA
HETATM    3  C   UNL     1      -9.508   2.767 -34.187  1.00  0.00     0.143 A 
HETATM    4  C   UNL     1     -10.810   2.266 -34.035  1.00  0.00     0.039 A 
HETATM    5  C   UNL     1     -12.002   3.022 -34.188  1.00  0.00     0.018 A 
HETATM    6  C   UNL     1     -13.252   2.426 -34.032  1.00  0.00     0.001 A 
HETATM    7  C   UNL     1     -13.326   1.074 -33.730  1.00  0.00     0.002 A 
HETATM    8  C   UNL     1     -12.151   0.331 -33.586  1.00  0.00     0.032 A 
HETATM    9  C   UNL     1     -10.893   0.904 -33.730  1.00  0.00     0.073 A 
HETATM   10  N   UNL     1      -9.817   0.126 -33.579  1.00  0.00    -0.228 NA
ENDROOT
BRANCH   1  11
HETATM   11  C   UNL     1      -7.402  -0.168 -33.634  1.00  0.00     0.039 A 
HETATM   12  C   UNL     1      -6.385   0.019 -32.657  1.00  0.00     0.049 A 
HETATM   13  C   UNL     1      -5.290  -0.863 -32.624  1.00  0.00     0.030 A 
HETATM   14  C   UNL     1      -5.173  -1.916 -33.533  1.00  0.00     0.002 A 
HETATM   15  C   UNL     1      -6.147  -2.107 -34.497  1.00  0.00     0.001 A 
HETATM   16  C   UNL     1      -7.242  -1.245 -34.544  1.00  0.00     0.018 A 
BRANCH  12  17
HETATM   17  N   UNL     1      -6.468   1.107 -31.752  1.00  0.00    -0.321 N 
HETATM   18  C   UNL     1      -5.796   2.315 -31.777  1.00  0.00     0.274 C 
HETATM   19  O   UNL     1      -4.930   2.666 -32.570  1.00  0.00    -0.266 OA
HETATM   20  H   UNL     1      -7.100   0.985 -30.955  1.00  0.00     0.169 HD
BRANCH  18  21
HETATM   21  C   UNL     1      -6.214   3.260 -30.687  1.00  0.00     0.124 A 
HETATM   22  C   UNL     1      -5.250   3.992 -30.003  1.00  0.00     0.037 A 
HETATM   23  C   UNL     1      -5.670   4.883 -29.019  1.00  0.00     0.004 A 
HETATM   24  C   UNL     1      -7.029   5.016 -28.758  1.00  0.00     0.019 A 
HETATM   25  C   UNL     1      -7.921   4.247 -29.490  1.00  0.00     0.117 A 
HETATM   26  N   UNL     1      -7.551   3.365 -30.444  1.00  0.00    -0.256 NA
ENDBRANCH  18  21
ENDBRANCH  12  17
ENDBRANCH   1  11
BRANCH   3  27
HETATM   27  N   UNL     1      -9.326   4.151 -34.461  1.00  0.00    -0.340 N 
HETATM   28  H   UNL     1     -10.199   4.527 -34.815  1.00  0.00     0.167 HD
BRANCH  27  29
HETATM   29  C   UNL     1      -8.623   5.094 -33.674  1.00  0.00     0.034 A 
HETATM   30  C   UNL     1      -9.279   5.924 -32.754  1.00  0.00     0.032 A 
HETATM   31  C   UNL     1      -8.590   6.824 -31.929  1.00  0.00     0.034 A 
HETATM   32  C   UNL     1      -7.200   6.848 -32.045  1.00  0.00     0.062 A 
HETATM   33  N   UNL     1      -6.242   7.589 -31.406  1.00  0.00    -0.278 N 
HETATM   34  C   UNL     1      -6.503   6.022 -32.919  1.00  0.00     0.013 A 
HETATM   35  H   UNL     1      -6.382   8.299 -30.697  1.00  0.00     0.189 HD
HETATM   36  N   UNL     1      -4.983   7.310 -31.791  1.00  0.00    -0.186 NA
HETATM   37  C   UNL     1      -5.146   6.356 -32.712  1.00  0.00     0.152 A 
HETATM   38  C   UNL     1      -7.217   5.123 -33.734  1.00  0.00     0.044 A 
ENDBRANCH  27  29
ENDBRANCH   3  27
TORSDOF 5
ENDMDL
