MODEL 1
REMARK VINA RESULT:     -10.4      0.000      0.000
REMARK  8 active torsions:
REMARK  status: ('A' for Active; 'I' for Inactive)
REMARK    1  A    between atoms: C_6  and  S_7 
REMARK    2  A    between atoms: S_7  and  C_8 
REMARK    3  A    between atoms: C_8  and  C_9 
REMARK       I    between atoms: C_9  and  N_10 
REMARK    4  A    between atoms: N_10  and  C_11 
REMARK    5  A    between atoms: C_24  and  C_25 
REMARK    6  A    between atoms: C_25  and  C_26 
REMARK       I    between atoms: C_26  and  N_27 
REMARK    7  A    between atoms: N_27  and  C_28 
REMARK    8  A    between atoms: C_28  and  C_29 
ROOT
HETATM    1  C   UNL     1      -1.615   5.374 -34.967  1.00  0.00     0.001 A 
HETATM    2  C   UNL     1      -2.982   5.156 -34.804  1.00  0.00     0.018 A 
HETATM    3  C   UNL     1      -3.652   5.786 -33.752  1.00  0.00     0.039 A 
HETATM    4  C   UNL     1      -2.983   6.630 -32.864  1.00  0.00     0.073 A 
HETATM    5  N   UNL     1      -3.645   7.283 -31.814  1.00  0.00    -0.223 NA
HETATM    6  C   UNL     1      -4.914   7.085 -31.662  1.00  0.00     0.178 A 
HETATM    7  N   UNL     1      -5.663   6.261 -32.493  1.00  0.00    -0.241 N 
HETATM    8  C   UNL     1      -5.087   5.606 -33.533  1.00  0.00     0.147 A 
HETATM    9  N   UNL     1      -5.847   4.853 -34.263  1.00  0.00    -0.256 NA
HETATM   10  C   UNL     1      -6.995   5.905 -32.469  1.00  0.00     0.257 A 
HETATM   11  O   UNL     1      -7.851   6.156 -31.636  1.00  0.00    -0.270 OA
HETATM   12  C   UNL     1      -7.211   5.032 -33.694  1.00  0.00     0.211 A 
HETATM   13  C   UNL     1      -1.615   6.838 -33.037  1.00  0.00     0.032 A 
HETATM   14  C   UNL     1      -0.932   6.214 -34.085  1.00  0.00     0.002 A 
ENDROOT
BRANCH  12  15
HETATM   15  C   UNL     1      -7.808   3.688 -33.310  1.00  0.00     0.140 C 
BRANCH  15  16
HETATM   16  C   UNL     1      -6.778   2.789 -32.663  1.00  0.00     0.220 C 
HETATM   17  N   UNL     1      -6.197   1.911 -33.555  1.00  0.00    -0.357 N 
HETATM   18  H   UNL     1      -6.218   2.147 -34.537  1.00  0.00     0.162 HD
HETATM   19  O   UNL     1      -6.463   2.851 -31.480  1.00  0.00    -0.274 OA
BRANCH  17  20
HETATM   20  C   UNL     1      -5.199   0.968 -33.104  1.00  0.00     0.161 C 
BRANCH  20  21
HETATM   21  C   UNL     1      -5.400  -0.438 -33.624  1.00  0.00    -0.038 A 
HETATM   22  C   UNL     1      -4.386  -1.383 -33.386  1.00  0.00     0.048 A 
HETATM   23  C   UNL     1      -4.578  -2.681 -33.813  1.00  0.00     0.105 A 
HETATM   24  C   UNL     1      -5.725  -3.066 -34.465  1.00  0.00     0.105 A 
HETATM   25  O   UNL     1      -3.705  -3.710 -33.647  1.00  0.00    -0.323 OA
HETATM   26  O   UNL     1      -5.716  -4.384 -34.797  1.00  0.00    -0.323 OA
HETATM   27  C   UNL     1      -6.746  -2.177 -34.715  1.00  0.00     0.040 A 
HETATM   28  C   UNL     1      -4.446  -4.792 -34.251  1.00  0.00     0.352 A 
HETATM   29  C   UNL     1      -6.585  -0.857 -34.277  1.00  0.00     0.012 A 
ENDBRANCH  20  21
ENDBRANCH  17  20
ENDBRANCH  15  16
ENDBRANCH  12  15
BRANCH   6  30
HETATM   30  S   UNL     1      -5.715   7.956 -30.378  1.00  0.00    -0.082 SA
BRANCH  30  31
HETATM   31  C   UNL     1      -5.231   6.938 -28.951  1.00  0.00     0.185 C 
BRANCH  31  32
HETATM   32  C   UNL     1      -3.971   7.385 -28.211  1.00  0.00     0.231 C 
HETATM   33  N   UNL     1      -2.781   6.923 -28.738  1.00  0.00    -0.327 N 
HETATM   34  H   UNL     1      -2.881   6.247 -29.486  1.00  0.00     0.169 HD
HETATM   35  O   UNL     1      -4.080   8.149 -27.252  1.00  0.00    -0.272 OA
BRANCH  33  36
HETATM   36  C   UNL     1      -1.478   7.125 -28.249  1.00  0.00     0.034 A 
HETATM   37  C   UNL     1      -0.449   7.719 -28.984  1.00  0.00     0.032 A 
HETATM   38  C   UNL     1       0.816   7.900 -28.413  1.00  0.00     0.044 A 
HETATM   39  C   UNL     1       1.047   7.485 -27.108  1.00  0.00     0.116 A 
HETATM   40  F   UNL     1       2.256   7.664 -26.561  1.00  0.00    -0.206 F 
HETATM   41  C   UNL     1       0.041   6.888 -26.363  1.00  0.00     0.044 A 
HETATM   42  C   UNL     1      -1.221   6.705 -26.934  1.00  0.00     0.032 A 
ENDBRANCH  33  36
ENDBRANCH  31  32
ENDBRANCH  30  31
ENDBRANCH   6  30
TORSDOF 8
ENDMDL
MODEL 2
REMARK VINA RESULT:     -10.0      3.563      9.237
REMARK  8 active torsions:
REMARK  status: ('A' for Active; 'I' for Inactive)
REMARK    1  A    between atoms: C_6  and  S_7 
REMARK    2  A    between atoms: S_7  and  C_8 
REMARK    3  A    between atoms: C_8  and  C_9 
REMARK       I    between atoms: C_9  and  N_10 
REMARK    4  A    between atoms: N_10  and  C_11 
REMARK    5  A    between atoms: C_24  and  C_25 
REMARK    6  A    between atoms: C_25  and  C_26 
REMARK       I    between atoms: C_26  and  N_27 
REMARK    7  A    between atoms: N_27  and  C_28 
REMARK    8  A    between atoms: C_28  and  C_29 
ROOT
HETATM    1  C   UNL     1      -2.584  10.785 -29.745  1.00  0.00     0.001 A 
HETATM    2  C   UNL     1      -2.283   9.846 -30.731  1.00  0.00     0.018 A 
HETATM    3  C   UNL     1      -3.232   8.874 -31.058  1.00  0.00     0.039 A 
HETATM    4  C   UNL     1      -4.474   8.824 -30.422  1.00  0.00     0.073 A 
HETATM    5  N   UNL     1      -5.442   7.865 -30.751  1.00  0.00    -0.223 NA
HETATM    6  C   UNL     1      -5.167   6.995 -31.668  1.00  0.00     0.178 A 
HETATM    7  N   UNL     1      -3.958   6.963 -32.352  1.00  0.00    -0.241 N 
HETATM    8  C   UNL     1      -2.981   7.867 -32.089  1.00  0.00     0.147 A 
HETATM    9  N   UNL     1      -1.881   7.775 -32.765  1.00  0.00    -0.256 NA
HETATM   10  C   UNL     1      -3.477   6.106 -33.320  1.00  0.00     0.257 A 
HETATM   11  O   UNL     1      -3.967   5.079 -33.761  1.00  0.00    -0.270 OA
HETATM   12  C   UNL     1      -2.116   6.653 -33.715  1.00  0.00     0.211 A 
HETATM   13  C   UNL     1      -4.761   9.768 -29.436  1.00  0.00     0.032 A 
HETATM   14  C   UNL     1      -3.821  10.746 -29.098  1.00  0.00     0.002 A 
ENDROOT
BRANCH  12  15
HETATM   15  C   UNL     1      -1.036   5.594 -33.566  1.00  0.00     0.140 C 
BRANCH  15  16
HETATM   16  C   UNL     1      -0.856   5.186 -32.121  1.00  0.00     0.220 C 
HETATM   17  N   UNL     1       0.087   5.946 -31.462  1.00  0.00    -0.357 N 
HETATM   18  H   UNL     1       0.303   6.862 -31.831  1.00  0.00     0.162 HD
HETATM   19  O   UNL     1      -1.502   4.297 -31.577  1.00  0.00    -0.274 OA
BRANCH  17  20
HETATM   20  C   UNL     1       0.396   5.684 -30.075  1.00  0.00     0.161 C 
BRANCH  20  21
HETATM   21  C   UNL     1      -0.021   6.789 -29.131  1.00  0.00    -0.038 A 
HETATM   22  C   UNL     1      -1.330   6.760 -28.614  1.00  0.00     0.048 A 
HETATM   23  C   UNL     1      -1.707   7.735 -27.715  1.00  0.00     0.105 A 
HETATM   24  C   UNL     1      -0.843   8.728 -27.319  1.00  0.00     0.105 A 
HETATM   25  O   UNL     1      -2.924   7.837 -27.117  1.00  0.00    -0.323 OA
HETATM   26  O   UNL     1      -1.409   9.584 -26.427  1.00  0.00    -0.323 OA
HETATM   27  C   UNL     1       0.448   8.793 -27.793  1.00  0.00     0.040 A 
HETATM   28  C   UNL     1      -2.718   8.997 -26.282  1.00  0.00     0.352 A 
HETATM   29  C   UNL     1       0.863   7.805 -28.695  1.00  0.00     0.012 A 
ENDBRANCH  20  21
ENDBRANCH  17  20
ENDBRANCH  15  16
ENDBRANCH  12  15
BRANCH   6  30
HETATM   30  S   UNL     1      -6.416   5.850 -32.089  1.00  0.00    -0.082 SA
BRANCH  30  31
HETATM   31  C   UNL     1      -5.923   4.441 -31.050  1.00  0.00     0.185 C 
BRANCH  31  32
HETATM   32  C   UNL     1      -6.389   3.067 -31.528  1.00  0.00     0.231 C 
HETATM   33  N   UNL     1      -5.756   2.587 -32.657  1.00  0.00    -0.327 N 
HETATM   34  H   UNL     1      -5.134   3.247 -33.110  1.00  0.00     0.169 HD
HETATM   35  O   UNL     1      -7.238   2.462 -30.872  1.00  0.00    -0.272 OA
BRANCH  33  36
HETATM   36  C   UNL     1      -6.005   1.389 -33.350  1.00  0.00     0.034 A 
HETATM   37  C   UNL     1      -6.787   1.301 -34.505  1.00  0.00     0.032 A 
HETATM   38  C   UNL     1      -6.968   0.069 -35.144  1.00  0.00     0.044 A 
HETATM   39  C   UNL     1      -6.365  -1.070 -34.627  1.00  0.00     0.116 A 
HETATM   40  F   UNL     1      -6.534  -2.247 -35.244  1.00  0.00    -0.206 F 
HETATM   41  C   UNL     1      -5.589  -1.005 -33.479  1.00  0.00     0.044 A 
HETATM   42  C   UNL     1      -5.411   0.224 -32.839  1.00  0.00     0.032 A 
ENDBRANCH  33  36
ENDBRANCH  31  32
ENDBRANCH  30  31
ENDBRANCH   6  30
TORSDOF 8
ENDMDL
MODEL 3
REMARK VINA RESULT:     -10.0      3.581     10.230
REMARK  8 active torsions:
REMARK  status: ('A' for Active; 'I' for Inactive)
REMARK    1  A    between atoms: C_6  and  S_7 
REMARK    2  A    between atoms: S_7  and  C_8 
REMARK    3  A    between atoms: C_8  and  C_9 
REMARK       I    between atoms: C_9  and  N_10 
REMARK    4  A    between atoms: N_10  and  C_11 
REMARK    5  A    between atoms: C_24  and  C_25 
REMARK    6  A    between atoms: C_25  and  C_26 
REMARK       I    between atoms: C_26  and  N_27 
REMARK    7  A    between atoms: N_27  and  C_28 
REMARK    8  A    between atoms: C_28  and  C_29 
ROOT
HETATM    1  C   UNL     1      -5.091   6.803 -27.936  1.00  0.00     0.001 A 
HETATM    2  C   UNL     1      -4.357   6.986 -29.107  1.00  0.00     0.018 A 
HETATM    3  C   UNL     1      -4.683   6.237 -30.240  1.00  0.00     0.039 A 
HETATM    4  C   UNL     1      -5.729   5.312 -30.225  1.00  0.00     0.073 A 
HETATM    5  N   UNL     1      -6.080   4.565 -31.359  1.00  0.00    -0.223 NA
HETATM    6  C   UNL     1      -5.402   4.735 -32.447  1.00  0.00     0.178 A 
HETATM    7  N   UNL     1      -4.344   5.628 -32.557  1.00  0.00    -0.241 N 
HETATM    8  C   UNL     1      -3.958   6.388 -31.501  1.00  0.00     0.147 A 
HETATM    9  N   UNL     1      -2.962   7.197 -31.675  1.00  0.00    -0.256 NA
HETATM   10  C   UNL     1      -3.495   5.918 -33.604  1.00  0.00     0.257 A 
HETATM   11  O   UNL     1      -3.398   5.381 -34.696  1.00  0.00    -0.270 OA
HETATM   12  C   UNL     1      -2.597   7.040 -33.110  1.00  0.00     0.211 A 
HETATM   13  C   UNL     1      -6.455   5.137 -29.047  1.00  0.00     0.032 A 
HETATM   14  C   UNL     1      -6.138   5.880 -27.906  1.00  0.00     0.002 A 
ENDROOT
BRANCH  12  15
HETATM   15  C   UNL     1      -1.130   6.668 -33.249  1.00  0.00     0.140 C 
BRANCH  15  16
HETATM   16  C   UNL     1      -0.617   5.968 -32.011  1.00  0.00     0.220 C 
HETATM   17  N   UNL     1      -0.063   6.836 -31.095  1.00  0.00    -0.357 N 
HETATM   18  H   UNL     1      -0.339   7.807 -31.132  1.00  0.00     0.162 HD
HETATM   19  O   UNL     1      -0.711   4.760 -31.821  1.00  0.00    -0.274 OA
BRANCH  17  20
HETATM   20  C   UNL     1       0.491   6.335 -29.856  1.00  0.00     0.161 C 
BRANCH  20  21
HETATM   21  C   UNL     1       0.259   7.239 -28.667  1.00  0.00    -0.038 A 
HETATM   22  C   UNL     1      -0.913   7.051 -27.911  1.00  0.00     0.048 A 
HETATM   23  C   UNL     1      -1.113   7.837 -26.796  1.00  0.00     0.105 A 
HETATM   24  C   UNL     1      -0.205   8.794 -26.412  1.00  0.00     0.105 A 
HETATM   25  O   UNL     1      -2.181   7.769 -25.956  1.00  0.00    -0.323 OA
HETATM   26  O   UNL     1      -0.589   9.453 -25.287  1.00  0.00    -0.323 OA
HETATM   27  C   UNL     1       0.958   9.010 -27.117  1.00  0.00     0.040 A 
HETATM   28  C   UNL     1      -1.829   8.780 -24.988  1.00  0.00     0.352 A 
HETATM   29  C   UNL     1       1.195   8.213 -28.244  1.00  0.00     0.012 A 
ENDBRANCH  20  21
ENDBRANCH  17  20
ENDBRANCH  15  16
ENDBRANCH  12  15
BRANCH   6  30
HETATM   30  S   UNL     1      -5.901   3.828 -33.854  1.00  0.00    -0.082 SA
BRANCH  30  31
HETATM   31  C   UNL     1      -6.470   2.294 -33.059  1.00  0.00     0.185 C 
BRANCH  31  32
HETATM   32  C   UNL     1      -6.396   1.033 -33.919  1.00  0.00     0.231 C 
HETATM   33  N   UNL     1      -5.993  -0.110 -33.258  1.00  0.00    -0.327 N 
HETATM   34  H   UNL     1      -5.680   0.037 -32.305  1.00  0.00     0.169 HD
HETATM   35  O   UNL     1      -6.739   1.092 -35.100  1.00  0.00    -0.272 OA
BRANCH  33  36
HETATM   36  C   UNL     1      -5.785  -1.395 -33.791  1.00  0.00     0.034 A 
HETATM   37  C   UNL     1      -4.530  -1.999 -33.912  1.00  0.00     0.032 A 
HETATM   38  C   UNL     1      -4.416  -3.291 -34.437  1.00  0.00     0.044 A 
HETATM   39  C   UNL     1      -5.556  -3.975 -34.839  1.00  0.00     0.116 A 
HETATM   40  F   UNL     1      -5.445  -5.214 -35.335  1.00  0.00    -0.206 F 
HETATM   41  C   UNL     1      -6.810  -3.392 -34.731  1.00  0.00     0.044 A 
HETATM   42  C   UNL     1      -6.924  -2.100 -34.210  1.00  0.00     0.032 A 
ENDBRANCH  33  36
ENDBRANCH  31  32
ENDBRANCH  30  31
ENDBRANCH   6  30
TORSDOF 8
ENDMDL
MODEL 4
REMARK VINA RESULT:     -10.0      5.192      9.094
REMARK  8 active torsions:
REMARK  status: ('A' for Active; 'I' for Inactive)
REMARK    1  A    between atoms: C_6  and  S_7 
REMARK    2  A    between atoms: S_7  and  C_8 
REMARK    3  A    between atoms: C_8  and  C_9 
REMARK       I    between atoms: C_9  and  N_10 
REMARK    4  A    between atoms: N_10  and  C_11 
REMARK    5  A    between atoms: C_24  and  C_25 
REMARK    6  A    between atoms: C_25  and  C_26 
REMARK       I    between atoms: C_26  and  N_27 
REMARK    7  A    between atoms: N_27  and  C_28 
REMARK    8  A    between atoms: C_28  and  C_29 
ROOT
HETATM    1  C   UNL     1     -10.601   0.807 -33.518  1.00  0.00     0.001 A 
HETATM    2  C   UNL     1      -9.867   1.990 -33.583  1.00  0.00     0.018 A 
HETATM    3  C   UNL     1      -8.709   2.117 -32.812  1.00  0.00     0.039 A 
HETATM    4  C   UNL     1      -8.270   1.085 -31.980  1.00  0.00     0.073 A 
HETATM    5  N   UNL     1      -7.101   1.191 -31.214  1.00  0.00    -0.223 NA
HETATM    6  C   UNL     1      -6.417   2.287 -31.275  1.00  0.00     0.178 A 
HETATM    7  N   UNL     1      -6.776   3.369 -32.069  1.00  0.00    -0.241 N 
HETATM    8  C   UNL     1      -7.891   3.329 -32.843  1.00  0.00     0.147 A 
HETATM    9  N   UNL     1      -8.164   4.375 -33.556  1.00  0.00    -0.256 NA
HETATM   10  C   UNL     1      -6.202   4.611 -32.238  1.00  0.00     0.257 A 
HETATM   11  O   UNL     1      -5.265   5.120 -31.644  1.00  0.00    -0.270 OA
HETATM   12  C   UNL     1      -7.033   5.309 -33.301  1.00  0.00     0.211 A 
HETATM   13  C   UNL     1      -9.015  -0.093 -31.923  1.00  0.00     0.032 A 
HETATM   14  C   UNL     1     -10.176  -0.233 -32.689  1.00  0.00     0.002 A 
ENDROOT
BRANCH  12  15
HETATM   15  C   UNL     1      -7.550   6.648 -32.801  1.00  0.00     0.140 C 
BRANCH  15  16
HETATM   16  C   UNL     1      -9.056   6.641 -32.657  1.00  0.00     0.220 C 
HETATM   17  N   UNL     1      -9.710   6.769 -33.864  1.00  0.00    -0.357 N 
HETATM   18  H   UNL     1      -9.213   6.512 -34.705  1.00  0.00     0.162 HD
HETATM   19  O   UNL     1      -9.639   6.502 -31.588  1.00  0.00    -0.274 OA
BRANCH  17  20
HETATM   20  C   UNL     1     -11.155   6.796 -33.912  1.00  0.00     0.161 C 
BRANCH  20  21
HETATM   21  C   UNL     1     -11.785   5.463 -34.248  1.00  0.00    -0.038 A 
HETATM   22  C   UNL     1     -12.525   4.809 -33.246  1.00  0.00     0.048 A 
HETATM   23  C   UNL     1     -13.145   3.616 -33.555  1.00  0.00     0.105 A 
HETATM   24  C   UNL     1     -13.053   3.055 -34.805  1.00  0.00     0.105 A 
HETATM   25  O   UNL     1     -13.905   2.873 -32.707  1.00  0.00    -0.323 OA
HETATM   26  O   UNL     1     -13.737   1.884 -34.901  1.00  0.00    -0.323 OA
HETATM   27  C   UNL     1     -12.345   3.661 -35.818  1.00  0.00     0.040 A 
HETATM   28  C   UNL     1     -14.298   1.789 -33.576  1.00  0.00     0.352 A 
HETATM   29  C   UNL     1     -11.719   4.883 -35.538  1.00  0.00     0.012 A 
ENDBRANCH  20  21
ENDBRANCH  17  20
ENDBRANCH  15  16
ENDBRANCH  12  15
BRANCH   6  30
HETATM   30  S   UNL     1      -4.939   2.363 -30.348  1.00  0.00    -0.082 SA
BRANCH  30  31
HETATM   31  C   UNL     1      -3.769   1.667 -31.554  1.00  0.00     0.185 C 
BRANCH  31  32
HETATM   32  C   UNL     1      -4.002   0.207 -31.940  1.00  0.00     0.231 C 
HETATM   33  N   UNL     1      -4.685   0.010 -33.124  1.00  0.00    -0.327 N 
HETATM   34  H   UNL     1      -5.056   0.853 -33.547  1.00  0.00     0.169 HD
HETATM   35  O   UNL     1      -3.539  -0.683 -31.225  1.00  0.00    -0.272 OA
BRANCH  33  36
HETATM   36  C   UNL     1      -5.086  -1.207 -33.704  1.00  0.00     0.034 A 
HETATM   37  C   UNL     1      -4.230  -2.292 -33.919  1.00  0.00     0.032 A 
HETATM   38  C   UNL     1      -4.718  -3.475 -34.485  1.00  0.00     0.044 A 
HETATM   39  C   UNL     1      -6.058  -3.570 -34.836  1.00  0.00     0.116 A 
HETATM   40  F   UNL     1      -6.523  -4.705 -35.372  1.00  0.00    -0.206 F 
HETATM   41  C   UNL     1      -6.922  -2.504 -34.636  1.00  0.00     0.044 A 
HETATM   42  C   UNL     1      -6.435  -1.321 -34.073  1.00  0.00     0.032 A 
ENDBRANCH  33  36
ENDBRANCH  31  32
ENDBRANCH  30  31
ENDBRANCH   6  30
TORSDOF 8
ENDMDL
MODEL 5
REMARK VINA RESULT:      -9.9      6.704     10.744
REMARK  8 active torsions:
REMARK  status: ('A' for Active; 'I' for Inactive)
REMARK    1  A    between atoms: C_6  and  S_7 
REMARK    2  A    between atoms: S_7  and  C_8 
REMARK    3  A    between atoms: C_8  and  C_9 
REMARK       I    between atoms: C_9  and  N_10 
REMARK    4  A    between atoms: N_10  and  C_11 
REMARK    5  A    between atoms: C_24  and  C_25 
REMARK    6  A    between atoms: C_25  and  C_26 
REMARK       I    between atoms: C_26  and  N_27 
REMARK    7  A    between atoms: N_27  and  C_28 
REMARK    8  A    between atoms: C_28  and  C_29 
ROOT
HETATM    1  C   UNL     1     -13.899   0.785 -34.368  1.00  0.00     0.001 A 
HETATM    2  C   UNL     1     -13.298   2.013 -34.644  1.00  0.00     0.018 A 
HETATM    3  C   UNL     1     -11.948   2.195 -34.335  1.00  0.00     0.039 A 
HETATM    4  C   UNL     1     -11.188   1.175 -33.760  1.00  0.00     0.073 A 
HETATM    5  N   UNL     1      -9.828   1.338 -33.460  1.00  0.00    -0.223 NA
HETATM    6  C   UNL     1      -9.267   2.474 -33.718  1.00  0.00     0.178 A 
HETATM    7  N   UNL     1      -9.943   3.548 -34.286  1.00  0.00    -0.241 N 
HETATM    8  C   UNL     1     -11.257   3.455 -34.608  1.00  0.00     0.147 A 
HETATM    9  N   UNL     1     -11.821   4.496 -35.132  1.00  0.00    -0.256 NA
HETATM   10  C   UNL     1      -9.531   4.827 -34.597  1.00  0.00     0.257 A 
HETATM   11  O   UNL     1      -8.470   5.380 -34.359  1.00  0.00    -0.270 OA
HETATM   12  C   UNL     1     -10.723   5.493 -35.263  1.00  0.00     0.211 A 
HETATM   13  C   UNL     1     -11.801  -0.047 -33.487  1.00  0.00     0.032 A 
HETATM   14  C   UNL     1     -13.152  -0.243 -33.791  1.00  0.00     0.002 A 
ENDROOT
BRANCH  12  15
HETATM   15  C   UNL     1     -11.092   6.787 -34.555  1.00  0.00     0.140 C 
BRANCH  15  16
HETATM   16  C   UNL     1     -11.528   6.534 -33.130  1.00  0.00     0.220 C 
HETATM   17  N   UNL     1     -12.831   6.094 -33.038  1.00  0.00    -0.357 N 
HETATM   18  H   UNL     1     -13.245   5.659 -33.851  1.00  0.00     0.162 HD
HETATM   19  O   UNL     1     -10.796   6.671 -32.156  1.00  0.00    -0.274 OA
BRANCH  17  20
HETATM   20  C   UNL     1     -13.419   5.815 -31.746  1.00  0.00     0.161 C 
BRANCH  20  21
HETATM   21  C   UNL     1     -14.547   4.810 -31.786  1.00  0.00    -0.038 A 
HETATM   22  C   UNL     1     -15.840   5.278 -32.087  1.00  0.00     0.048 A 
HETATM   23  C   UNL     1     -16.870   4.364 -32.174  1.00  0.00     0.105 A 
HETATM   24  C   UNL     1     -16.665   3.021 -31.970  1.00  0.00     0.105 A 
HETATM   25  O   UNL     1     -18.165   4.653 -32.470  1.00  0.00    -0.323 OA
HETATM   26  O   UNL     1     -17.806   2.295 -32.106  1.00  0.00    -0.323 OA
HETATM   27  C   UNL     1     -15.418   2.517 -31.679  1.00  0.00     0.040 A 
HETATM   28  C   UNL     1     -18.747   3.332 -32.449  1.00  0.00     0.352 A 
HETATM   29  C   UNL     1     -14.350   3.420 -31.602  1.00  0.00     0.012 A 
ENDBRANCH  20  21
ENDBRANCH  17  20
ENDBRANCH  15  16
ENDBRANCH  12  15
BRANCH   6  30
HETATM   30  S   UNL     1      -7.560   2.623 -33.381  1.00  0.00    -0.082 SA
BRANCH  30  31
HETATM   31  C   UNL     1      -7.453   1.661 -31.842  1.00  0.00     0.185 C 
BRANCH  31  32
HETATM   32  C   UNL     1      -6.937   0.230 -31.986  1.00  0.00     0.231 C 
HETATM   33  N   UNL     1      -6.745  -0.201 -33.283  1.00  0.00    -0.327 N 
HETATM   34  H   UNL     1      -7.076   0.438 -33.998  1.00  0.00     0.169 HD
HETATM   35  O   UNL     1      -6.679  -0.418 -30.972  1.00  0.00    -0.272 OA
BRANCH  33  36
HETATM   36  C   UNL     1      -6.331  -1.470 -33.725  1.00  0.00     0.034 A 
HETATM   37  C   UNL     1      -7.198  -2.449 -34.219  1.00  0.00     0.032 A 
HETATM   38  C   UNL     1      -6.698  -3.681 -34.656  1.00  0.00     0.044 A 
HETATM   39  C   UNL     1      -5.333  -3.930 -34.599  1.00  0.00     0.116 A 
HETATM   40  F   UNL     1      -4.856  -5.107 -35.024  1.00  0.00    -0.206 F 
HETATM   41  C   UNL     1      -4.456  -2.974 -34.107  1.00  0.00     0.044 A 
HETATM   42  C   UNL     1      -4.956  -1.745 -33.668  1.00  0.00     0.032 A 
ENDBRANCH  33  36
ENDBRANCH  31  32
ENDBRANCH  30  31
ENDBRANCH   6  30
TORSDOF 8
ENDMDL
MODEL 6
REMARK VINA RESULT:      -9.9      3.601      9.394
REMARK  8 active torsions:
REMARK  status: ('A' for Active; 'I' for Inactive)
REMARK    1  A    between atoms: C_6  and  S_7 
REMARK    2  A    between atoms: S_7  and  C_8 
REMARK    3  A    between atoms: C_8  and  C_9 
REMARK       I    between atoms: C_9  and  N_10 
REMARK    4  A    between atoms: N_10  and  C_11 
REMARK    5  A    between atoms: C_24  and  C_25 
REMARK    6  A    between atoms: C_25  and  C_26 
REMARK       I    between atoms: C_26  and  N_27 
REMARK    7  A    between atoms: N_27  and  C_28 
REMARK    8  A    between atoms: C_28  and  C_29 
ROOT
HETATM    1  C   UNL     1      -5.204   9.287 -30.202  1.00  0.00     0.001 A 
HETATM    2  C   UNL     1      -4.698   8.374 -31.125  1.00  0.00     0.018 A 
HETATM    3  C   UNL     1      -4.874   7.007 -30.898  1.00  0.00     0.039 A 
HETATM    4  C   UNL     1      -5.546   6.536 -29.768  1.00  0.00     0.073 A 
HETATM    5  N   UNL     1      -5.745   5.168 -29.534  1.00  0.00    -0.223 NA
HETATM    6  C   UNL     1      -5.279   4.319 -30.391  1.00  0.00     0.178 A 
HETATM    7  N   UNL     1      -4.595   4.691 -31.541  1.00  0.00    -0.241 N 
HETATM    8  C   UNL     1      -4.376   5.998 -31.833  1.00  0.00     0.147 A 
HETATM    9  N   UNL     1      -3.728   6.270 -32.921  1.00  0.00    -0.256 NA
HETATM   10  C   UNL     1      -4.005   3.942 -32.538  1.00  0.00     0.257 A 
HETATM   11  O   UNL     1      -3.849   2.734 -32.612  1.00  0.00    -0.270 OA
HETATM   12  C   UNL     1      -3.484   4.945 -33.554  1.00  0.00     0.211 A 
HETATM   13  C   UNL     1      -6.045   7.461 -28.851  1.00  0.00     0.032 A 
HETATM   14  C   UNL     1      -5.876   8.831 -29.066  1.00  0.00     0.002 A 
ENDROOT
BRANCH  12  15
HETATM   15  C   UNL     1      -1.999   4.743 -33.811  1.00  0.00     0.140 C 
BRANCH  15  16
HETATM   16  C   UNL     1      -1.198   5.963 -33.413  1.00  0.00     0.220 C 
HETATM   17  N   UNL     1      -0.842   5.960 -32.081  1.00  0.00    -0.357 N 
HETATM   18  H   UNL     1      -0.815   5.073 -31.598  1.00  0.00     0.162 HD
HETATM   19  O   UNL     1      -0.868   6.848 -34.195  1.00  0.00    -0.274 OA
BRANCH  17  20
HETATM   20  C   UNL     1      -0.083   7.059 -31.526  1.00  0.00     0.161 C 
BRANCH  20  21
HETATM   21  C   UNL     1      -0.259   7.238 -30.035  1.00  0.00    -0.038 A 
HETATM   22  C   UNL     1      -1.552   7.090 -29.499  1.00  0.00     0.048 A 
HETATM   23  C   UNL     1      -1.717   7.203 -28.134  1.00  0.00     0.105 A 
HETATM   24  C   UNL     1      -0.660   7.459 -27.295  1.00  0.00     0.105 A 
HETATM   25  O   UNL     1      -2.893   7.072 -27.463  1.00  0.00    -0.323 OA
HETATM   26  O   UNL     1      -1.037   7.529 -25.991  1.00  0.00    -0.323 OA
HETATM   27  C   UNL     1       0.622   7.606 -27.774  1.00  0.00     0.040 A 
HETATM   28  C   UNL     1      -2.448   7.255 -26.102  1.00  0.00     0.352 A 
HETATM   29  C   UNL     1       0.823   7.478 -29.154  1.00  0.00     0.012 A 
ENDBRANCH  20  21
ENDBRANCH  17  20
ENDBRANCH  15  16
ENDBRANCH  12  15
BRANCH   6  30
HETATM   30  S   UNL     1      -5.592   2.626 -30.095  1.00  0.00    -0.082 SA
BRANCH  30  31
HETATM   31  C   UNL     1      -7.068   2.388 -31.130  1.00  0.00     0.185 C 
BRANCH  31  32
HETATM   32  C   UNL     1      -6.886   1.490 -32.353  1.00  0.00     0.231 C 
HETATM   33  N   UNL     1      -6.454   0.207 -32.084  1.00  0.00    -0.327 N 
HETATM   34  H   UNL     1      -6.196   0.037 -31.119  1.00  0.00     0.169 HD
HETATM   35  O   UNL     1      -7.174   1.929 -33.467  1.00  0.00    -0.272 OA
BRANCH  33  36
HETATM   36  C   UNL     1      -6.152  -0.818 -32.999  1.00  0.00     0.034 A 
HETATM   37  C   UNL     1      -4.861  -1.295 -33.244  1.00  0.00     0.032 A 
HETATM   38  C   UNL     1      -4.652  -2.333 -34.158  1.00  0.00     0.044 A 
HETATM   39  C   UNL     1      -5.734  -2.891 -34.826  1.00  0.00     0.116 A 
HETATM   40  F   UNL     1      -5.533  -3.889 -35.696  1.00  0.00    -0.206 F 
HETATM   41  C   UNL     1      -7.023  -2.429 -34.601  1.00  0.00     0.044 A 
HETATM   42  C   UNL     1      -7.231  -1.391 -33.691  1.00  0.00     0.032 A 
ENDBRANCH  33  36
ENDBRANCH  31  32
ENDBRANCH  30  31
ENDBRANCH   6  30
TORSDOF 8
ENDMDL
MODEL 7
REMARK VINA RESULT:      -9.8      4.916      7.989
REMARK  8 active torsions:
REMARK  status: ('A' for Active; 'I' for Inactive)
REMARK    1  A    between atoms: C_6  and  S_7 
REMARK    2  A    between atoms: S_7  and  C_8 
REMARK    3  A    between atoms: C_8  and  C_9 
REMARK       I    between atoms: C_9  and  N_10 
REMARK    4  A    between atoms: N_10  and  C_11 
REMARK    5  A    between atoms: C_24  and  C_25 
REMARK    6  A    between atoms: C_25  and  C_26 
REMARK       I    between atoms: C_26  and  N_27 
REMARK    7  A    between atoms: N_27  and  C_28 
REMARK    8  A    between atoms: C_28  and  C_29 
ROOT
HETATM    1  C   UNL     1      -5.860  -2.977 -34.736  1.00  0.00     0.001 A 
HETATM    2  C   UNL     1      -6.732  -1.908 -34.536  1.00  0.00     0.018 A 
HETATM    3  C   UNL     1      -6.263  -0.757 -33.898  1.00  0.00     0.039 A 
HETATM    4  C   UNL     1      -4.942  -0.653 -33.459  1.00  0.00     0.073 A 
HETATM    5  N   UNL     1      -4.452   0.501 -32.833  1.00  0.00    -0.223 NA
HETATM    6  C   UNL     1      -5.258   1.496 -32.649  1.00  0.00     0.178 A 
HETATM    7  N   UNL     1      -6.590   1.484 -33.046  1.00  0.00    -0.241 N 
HETATM    8  C   UNL     1      -7.125   0.402 -33.666  1.00  0.00     0.147 A 
HETATM    9  N   UNL     1      -8.373   0.461 -34.006  1.00  0.00    -0.256 NA
HETATM   10  C   UNL     1      -7.595   2.418 -32.908  1.00  0.00     0.257 A 
HETATM   11  O   UNL     1      -7.591   3.477 -32.302  1.00  0.00    -0.270 OA
HETATM   12  C   UNL     1      -8.802   1.833 -33.620  1.00  0.00     0.211 A 
HETATM   13  C   UNL     1      -4.080  -1.731 -33.664  1.00  0.00     0.032 A 
HETATM   14  C   UNL     1      -4.536  -2.889 -34.301  1.00  0.00     0.002 A 
ENDROOT
BRANCH  12  15
HETATM   15  C   UNL     1     -10.007   1.774 -32.695  1.00  0.00     0.140 C 
BRANCH  15  16
HETATM   16  C   UNL     1     -11.029   2.832 -33.048  1.00  0.00     0.220 C 
HETATM   17  N   UNL     1     -11.771   3.244 -31.961  1.00  0.00    -0.357 N 
HETATM   18  H   UNL     1     -11.382   3.106 -31.039  1.00  0.00     0.162 HD
HETATM   19  O   UNL     1     -11.165   3.302 -34.171  1.00  0.00    -0.274 OA
BRANCH  17  20
HETATM   20  C   UNL     1     -12.805   4.242 -32.120  1.00  0.00     0.161 C 
BRANCH  20  21
HETATM   21  C   UNL     1     -14.209   3.681 -32.118  1.00  0.00    -0.038 A 
HETATM   22  C   UNL     1     -15.278   4.575 -31.921  1.00  0.00     0.048 A 
HETATM   23  C   UNL     1     -16.566   4.083 -31.964  1.00  0.00     0.105 A 
HETATM   24  C   UNL     1     -16.827   2.754 -32.189  1.00  0.00     0.105 A 
HETATM   25  O   UNL     1     -17.702   4.816 -31.809  1.00  0.00    -0.323 OA
HETATM   26  O   UNL     1     -18.158   2.479 -32.197  1.00  0.00    -0.323 OA
HETATM   27  C   UNL     1     -15.813   1.844 -32.393  1.00  0.00     0.040 A 
HETATM   28  C   UNL     1     -18.707   3.795 -31.983  1.00  0.00     0.352 A 
HETATM   29  C   UNL     1     -14.496   2.318 -32.371  1.00  0.00     0.012 A 
ENDBRANCH  20  21
ENDBRANCH  17  20
ENDBRANCH  15  16
ENDBRANCH  12  15
BRANCH   6  30
HETATM   30  S   UNL     1      -4.601   2.937 -31.914  1.00  0.00    -0.082 SA
BRANCH  30  31
HETATM   31  C   UNL     1      -3.084   3.134 -32.898  1.00  0.00     0.185 C 
BRANCH  31  32
HETATM   32  C   UNL     1      -2.198   4.321 -32.523  1.00  0.00     0.231 C 
HETATM   33  N   UNL     1      -1.987   4.497 -31.170  1.00  0.00    -0.327 N 
HETATM   34  H   UNL     1      -2.535   3.890 -30.571  1.00  0.00     0.169 HD
HETATM   35  O   UNL     1      -1.695   5.000 -33.419  1.00  0.00    -0.272 OA
BRANCH  33  36
HETATM   36  C   UNL     1      -1.265   5.520 -30.529  1.00  0.00     0.034 A 
HETATM   37  C   UNL     1      -1.724   6.833 -30.389  1.00  0.00     0.032 A 
HETATM   38  C   UNL     1      -0.948   7.784 -29.718  1.00  0.00     0.044 A 
HETATM   39  C   UNL     1       0.283   7.421 -29.189  1.00  0.00     0.116 A 
HETATM   40  F   UNL     1       1.021   8.332 -28.542  1.00  0.00    -0.206 F 
HETATM   41  C   UNL     1       0.759   6.124 -29.321  1.00  0.00     0.044 A 
HETATM   42  C   UNL     1      -0.014   5.175 -29.994  1.00  0.00     0.032 A 
ENDBRANCH  33  36
ENDBRANCH  31  32
ENDBRANCH  30  31
ENDBRANCH   6  30
TORSDOF 8
ENDMDL
MODEL 8
REMARK VINA RESULT:      -9.8      3.175      8.044
REMARK  8 active torsions:
REMARK  status: ('A' for Active; 'I' for Inactive)
REMARK    1  A    between atoms: C_6  and  S_7 
REMARK    2  A    between atoms: S_7  and  C_8 
REMARK    3  A    between atoms: C_8  and  C_9 
REMARK       I    between atoms: C_9  and  N_10 
REMARK    4  A    between atoms: N_10  and  C_11 
REMARK    5  A    between atoms: C_24  and  C_25 
REMARK    6  A    between atoms: C_25  and  C_26 
REMARK       I    between atoms: C_26  and  N_27 
REMARK    7  A    between atoms: N_27  and  C_28 
REMARK    8  A    between atoms: C_28  and  C_29 
ROOT
HETATM    1  C   UNL     1      -2.506   5.250 -33.347  1.00  0.00     0.001 A 
HETATM    2  C   UNL     1      -3.400   5.082 -32.290  1.00  0.00     0.018 A 
HETATM    3  C   UNL     1      -4.752   4.865 -32.570  1.00  0.00     0.039 A 
HETATM    4  C   UNL     1      -5.226   4.811 -33.882  1.00  0.00     0.073 A 
HETATM    5  N   UNL     1      -6.576   4.577 -34.179  1.00  0.00    -0.223 NA
HETATM    6  C   UNL     1      -7.407   4.417 -33.200  1.00  0.00     0.178 A 
HETATM    7  N   UNL     1      -7.030   4.459 -31.864  1.00  0.00    -0.241 N 
HETATM    8  C   UNL     1      -5.738   4.672 -31.507  1.00  0.00     0.147 A 
HETATM    9  N   UNL     1      -5.462   4.700 -30.243  1.00  0.00    -0.256 NA
HETATM   10  C   UNL     1      -7.765   4.347 -30.702  1.00  0.00     0.257 A 
HETATM   11  O   UNL     1      -8.974   4.277 -30.552  1.00  0.00    -0.270 OA
HETATM   12  C   UNL     1      -6.755   4.403 -29.568  1.00  0.00     0.211 A 
HETATM   13  C   UNL     1      -4.321   4.983 -34.930  1.00  0.00     0.032 A 
HETATM   14  C   UNL     1      -2.966   5.201 -34.664  1.00  0.00     0.002 A 
ENDROOT
BRANCH  12  15
HETATM   15  C   UNL     1      -7.104   5.504 -28.579  1.00  0.00     0.140 C 
BRANCH  15  16
HETATM   16  C   UNL     1      -5.864   6.197 -28.061  1.00  0.00     0.220 C 
HETATM   17  N   UNL     1      -5.584   7.368 -28.733  1.00  0.00    -0.357 N 
HETATM   18  H   UNL     1      -6.340   7.830 -29.219  1.00  0.00     0.162 HD
HETATM   19  O   UNL     1      -5.193   5.785 -27.122  1.00  0.00    -0.274 OA
BRANCH  17  20
HETATM   20  C   UNL     1      -4.424   8.154 -28.378  1.00  0.00     0.161 C 
BRANCH  20  21
HETATM   21  C   UNL     1      -3.243   7.963 -29.303  1.00  0.00    -0.038 A 
HETATM   22  C   UNL     1      -2.291   6.983 -28.968  1.00  0.00     0.048 A 
HETATM   23  C   UNL     1      -1.235   6.766 -29.828  1.00  0.00     0.105 A 
HETATM   24  C   UNL     1      -1.090   7.482 -30.992  1.00  0.00     0.105 A 
HETATM   25  O   UNL     1      -0.245   5.850 -29.656  1.00  0.00    -0.323 OA
HETATM   26  O   UNL     1       0.012   7.112 -31.696  1.00  0.00    -0.323 OA
HETATM   27  C   UNL     1      -1.999   8.447 -31.364  1.00  0.00     0.040 A 
HETATM   28  C   UNL     1       0.528   6.058 -30.858  1.00  0.00     0.352 A 
HETATM   29  C   UNL     1      -3.092   8.676 -30.517  1.00  0.00     0.012 A 
ENDBRANCH  20  21
ENDBRANCH  17  20
ENDBRANCH  15  16
ENDBRANCH  12  15
BRANCH   6  30
HETATM   30  S   UNL     1      -9.070   4.075 -33.608  1.00  0.00    -0.082 SA
BRANCH  30  31
HETATM   31  C   UNL     1      -8.936   2.315 -34.044  1.00  0.00     0.185 C 
BRANCH  31  32
HETATM   32  C   UNL     1      -7.930   1.502 -33.230  1.00  0.00     0.231 C 
HETATM   33  N   UNL     1      -6.694   1.330 -33.820  1.00  0.00    -0.327 N 
HETATM   34  H   UNL     1      -6.628   1.663 -34.776  1.00  0.00     0.169 HD
HETATM   35  O   UNL     1      -8.249   1.104 -32.110  1.00  0.00    -0.272 OA
BRANCH  33  36
HETATM   36  C   UNL     1      -5.596   0.595 -33.339  1.00  0.00     0.034 A 
HETATM   37  C   UNL     1      -5.401  -0.768 -33.577  1.00  0.00     0.032 A 
HETATM   38  C   UNL     1      -4.267  -1.418 -33.075  1.00  0.00     0.044 A 
HETATM   39  C   UNL     1      -3.333  -0.703 -32.337  1.00  0.00     0.116 A 
HETATM   40  F   UNL     1      -2.247  -1.326 -31.864  1.00  0.00    -0.206 F 
HETATM   41  C   UNL     1      -3.511   0.649 -32.086  1.00  0.00     0.044 A 
HETATM   42  C   UNL     1      -4.644   1.298 -32.584  1.00  0.00     0.032 A 
ENDBRANCH  33  36
ENDBRANCH  31  32
ENDBRANCH  30  31
ENDBRANCH   6  30
TORSDOF 8
ENDMDL
MODEL 9
REMARK VINA RESULT:      -9.7      4.309     10.364
REMARK  8 active torsions:
REMARK  status: ('A' for Active; 'I' for Inactive)
REMARK    1  A    between atoms: C_6  and  S_7 
REMARK    2  A    between atoms: S_7  and  C_8 
REMARK    3  A    between atoms: C_8  and  C_9 
REMARK       I    between atoms: C_9  and  N_10 
REMARK    4  A    between atoms: N_10  and  C_11 
REMARK    5  A    between atoms: C_24  and  C_25 
REMARK    6  A    between atoms: C_25  and  C_26 
REMARK       I    between atoms: C_26  and  N_27 
REMARK    7  A    between atoms: N_27  and  C_28 
REMARK    8  A    between atoms: C_28  and  C_29 
ROOT
HETATM    1  C   UNL     1      -3.831  -0.933 -32.391  1.00  0.00     0.001 A 
HETATM    2  C   UNL     1      -3.342   0.328 -32.053  1.00  0.00     0.018 A 
HETATM    3  C   UNL     1      -4.074   1.461 -32.416  1.00  0.00     0.039 A 
HETATM    4  C   UNL     1      -5.284   1.359 -33.105  1.00  0.00     0.073 A 
HETATM    5  N   UNL     1      -6.038   2.486 -33.461  1.00  0.00    -0.223 NA
HETATM    6  C   UNL     1      -5.588   3.657 -33.146  1.00  0.00     0.178 A 
HETATM    7  N   UNL     1      -4.394   3.859 -32.465  1.00  0.00    -0.241 N 
HETATM    8  C   UNL     1      -3.621   2.811 -32.083  1.00  0.00     0.147 A 
HETATM    9  N   UNL     1      -2.521   3.076 -31.453  1.00  0.00    -0.256 NA
HETATM   10  C   UNL     1      -3.745   5.013 -32.078  1.00  0.00     0.257 A 
HETATM   11  O   UNL     1      -4.016   6.176 -32.327  1.00  0.00    -0.270 OA
HETATM   12  C   UNL     1      -2.520   4.557 -31.304  1.00  0.00     0.211 A 
HETATM   13  C   UNL     1      -5.760   0.091 -33.439  1.00  0.00     0.032 A 
HETATM   14  C   UNL     1      -5.038  -1.052 -33.082  1.00  0.00     0.002 A 
ENDROOT
BRANCH  12  15
HETATM   15  C   UNL     1      -1.250   5.151 -31.890  1.00  0.00     0.140 C 
BRANCH  15  16
HETATM   16  C   UNL     1      -0.101   5.083 -30.908  1.00  0.00     0.220 C 
HETATM   17  N   UNL     1      -0.423   5.597 -29.670  1.00  0.00    -0.357 N 
HETATM   18  H   UNL     1      -1.399   5.638 -29.410  1.00  0.00     0.162 HD
HETATM   19  O   UNL     1       0.991   4.592 -31.168  1.00  0.00    -0.274 OA
BRANCH  17  20
HETATM   20  C   UNL     1       0.562   5.624 -28.612  1.00  0.00     0.161 C 
BRANCH  20  21
HETATM   21  C   UNL     1       0.360   6.738 -27.610  1.00  0.00    -0.038 A 
HETATM   22  C   UNL     1      -0.949   6.993 -27.159  1.00  0.00     0.048 A 
HETATM   23  C   UNL     1      -1.140   7.974 -26.209  1.00  0.00     0.105 A 
HETATM   24  C   UNL     1      -0.093   8.705 -25.701  1.00  0.00     0.105 A 
HETATM   25  O   UNL     1      -2.333   8.329 -25.662  1.00  0.00    -0.323 OA
HETATM   26  O   UNL     1      -0.495   9.616 -24.776  1.00  0.00    -0.323 OA
HETATM   27  C   UNL     1       1.204   8.487 -26.108  1.00  0.00     0.040 A 
HETATM   28  C   UNL     1      -1.913   9.353 -24.736  1.00  0.00     0.352 A 
HETATM   29  C   UNL     1       1.430   7.484 -27.060  1.00  0.00     0.012 A 
ENDBRANCH  20  21
ENDBRANCH  17  20
ENDBRANCH  15  16
ENDBRANCH  12  15
BRANCH   6  30
HETATM   30  S   UNL     1      -6.579   5.035 -33.557  1.00  0.00    -0.082 SA
BRANCH  30  31
HETATM   31  C   UNL     1      -7.550   5.198 -32.028  1.00  0.00     0.185 C 
BRANCH  31  32
HETATM   32  C   UNL     1      -8.702   4.208 -31.863  1.00  0.00     0.231 C 
HETATM   33  N   UNL     1      -8.882   3.330 -32.913  1.00  0.00    -0.327 N 
HETATM   34  H   UNL     1      -8.304   3.514 -33.726  1.00  0.00     0.169 HD
HETATM   35  O   UNL     1      -9.350   4.214 -30.817  1.00  0.00    -0.272 OA
BRANCH  33  36
HETATM   36  C   UNL     1      -9.880   2.351 -33.066  1.00  0.00     0.034 A 
HETATM   37  C   UNL     1     -11.186   2.622 -33.484  1.00  0.00     0.032 A 
HETATM   38  C   UNL     1     -12.111   1.583 -33.628  1.00  0.00     0.044 A 
HETATM   39  C   UNL     1     -11.729   0.276 -33.355  1.00  0.00     0.116 A 
HETATM   40  F   UNL     1     -12.615  -0.717 -33.500  1.00  0.00    -0.206 F 
HETATM   41  C   UNL     1     -10.439  -0.013 -32.934  1.00  0.00     0.044 A 
HETATM   42  C   UNL     1      -9.516   1.024 -32.787  1.00  0.00     0.032 A 
ENDBRANCH  33  36
ENDBRANCH  31  32
ENDBRANCH  30  31
ENDBRANCH   6  30
TORSDOF 8
ENDMDL
MODEL 10
REMARK VINA RESULT:      -9.7      4.150      8.100
REMARK  8 active torsions:
REMARK  status: ('A' for Active; 'I' for Inactive)
REMARK    1  A    between atoms: C_6  and  S_7 
REMARK    2  A    between atoms: S_7  and  C_8 
REMARK    3  A    between atoms: C_8  and  C_9 
REMARK       I    between atoms: C_9  and  N_10 
REMARK    4  A    between atoms: N_10  and  C_11 
REMARK    5  A    between atoms: C_24  and  C_25 
REMARK    6  A    between atoms: C_25  and  C_26 
REMARK       I    between atoms: C_26  and  N_27 
REMARK    7  A    between atoms: N_27  and  C_28 
REMARK    8  A    between atoms: C_28  and  C_29 
ROOT
HETATM    1  C   UNL     1      -9.322   5.061 -34.105  1.00  0.00     0.001 A 
HETATM    2  C   UNL     1      -8.285   5.748 -33.477  1.00  0.00     0.018 A 
HETATM    3  C   UNL     1      -7.083   5.082 -33.222  1.00  0.00     0.039 A 
HETATM    4  C   UNL     1      -6.899   3.746 -33.585  1.00  0.00     0.073 A 
HETATM    5  N   UNL     1      -5.693   3.070 -33.351  1.00  0.00    -0.223 NA
HETATM    6  C   UNL     1      -4.728   3.706 -32.771  1.00  0.00     0.178 A 
HETATM    7  N   UNL     1      -4.819   5.033 -32.371  1.00  0.00    -0.241 N 
HETATM    8  C   UNL     1      -5.954   5.749 -32.575  1.00  0.00     0.147 A 
HETATM    9  N   UNL     1      -5.967   6.980 -32.174  1.00  0.00    -0.256 NA
HETATM   10  C   UNL     1      -3.925   5.856 -31.719  1.00  0.00     0.257 A 
HETATM   11  O   UNL     1      -2.837   5.590 -31.234  1.00  0.00    -0.270 OA
HETATM   12  C   UNL     1      -4.598   7.216 -31.639  1.00  0.00     0.211 A 
HETATM   13  C   UNL     1      -7.946   3.070 -34.211  1.00  0.00     0.032 A 
HETATM   14  C   UNL     1      -9.153   3.724 -34.472  1.00  0.00     0.002 A 
ENDROOT
BRANCH  12  15
HETATM   15  C   UNL     1      -4.664   7.710 -30.203  1.00  0.00     0.140 C 
BRANCH  15  16
HETATM   16  C   UNL     1      -5.482   6.780 -29.335  1.00  0.00     0.220 C 
HETATM   17  N   UNL     1      -6.832   6.836 -29.612  1.00  0.00    -0.357 N 
HETATM   18  H   UNL     1      -7.118   7.173 -30.521  1.00  0.00     0.162 HD
HETATM   19  O   UNL     1      -5.000   6.028 -28.496  1.00  0.00    -0.274 OA
BRANCH  17  20
HETATM   20  C   UNL     1      -7.765   6.021 -28.866  1.00  0.00     0.161 C 
BRANCH  20  21
HETATM   21  C   UNL     1      -8.263   4.808 -29.619  1.00  0.00    -0.038 A 
HETATM   22  C   UNL     1      -7.379   3.727 -29.791  1.00  0.00     0.048 A 
HETATM   23  C   UNL     1      -7.836   2.596 -30.435  1.00  0.00     0.105 A 
HETATM   24  C   UNL     1      -9.121   2.503 -30.911  1.00  0.00     0.105 A 
HETATM   25  O   UNL     1      -7.115   1.466 -30.665  1.00  0.00    -0.323 OA
HETATM   26  O   UNL     1      -9.370   1.307 -31.507  1.00  0.00    -0.323 OA
HETATM   27  C   UNL     1     -10.023   3.533 -30.760  1.00  0.00     0.040 A 
HETATM   28  C   UNL     1      -8.103   0.645 -31.322  1.00  0.00     0.352 A 
HETATM   29  C   UNL     1      -9.590   4.688 -30.096  1.00  0.00     0.012 A 
ENDBRANCH  20  21
ENDBRANCH  17  20
ENDBRANCH  15  16
ENDBRANCH  12  15
BRANCH   6  30
HETATM   30  S   UNL     1      -3.223   2.848 -32.545  1.00  0.00    -0.082 SA
BRANCH  30  31
HETATM   31  C   UNL     1      -3.736   1.626 -31.300  1.00  0.00     0.185 C 
BRANCH  31  32
HETATM   32  C   UNL     1      -3.920   0.196 -31.808  1.00  0.00     0.231 C 
HETATM   33  N   UNL     1      -4.682   0.070 -32.953  1.00  0.00    -0.327 N 
HETATM   34  H   UNL     1      -5.129   0.925 -33.264  1.00  0.00     0.169 HD
HETATM   35  O   UNL     1      -3.356  -0.726 -31.220  1.00  0.00    -0.272 OA
BRANCH  33  36
HETATM   36  C   UNL     1      -5.061  -1.110 -33.619  1.00  0.00     0.034 A 
HETATM   37  C   UNL     1      -4.178  -2.142 -33.948  1.00  0.00     0.032 A 
HETATM   38  C   UNL     1      -4.644  -3.292 -34.595  1.00  0.00     0.044 A 
HETATM   39  C   UNL     1      -5.991  -3.406 -34.910  1.00  0.00     0.116 A 
HETATM   40  F   UNL     1      -6.436  -4.511 -35.524  1.00  0.00    -0.206 F 
HETATM   41  C   UNL     1      -6.883  -2.392 -34.597  1.00  0.00     0.044 A 
HETATM   42  C   UNL     1      -6.418  -1.242 -33.954  1.00  0.00     0.032 A 
ENDBRANCH  33  36
ENDBRANCH  31  32
ENDBRANCH  30  31
ENDBRANCH   6  30
TORSDOF 8
ENDMDL
