MODEL 1
REMARK VINA RESULT:     -10.1      0.000      0.000
REMARK  6 active torsions:
REMARK  status: ('A' for Active; 'I' for Inactive)
REMARK    1  A    between atoms: N_9  and  C_10 
REMARK    2  A    between atoms: C_10  and  C_11 
REMARK       I    between atoms: C_11  and  N_12 
REMARK    3  A    between atoms: N_12  and  C_13 
REMARK    4  A    between atoms: C_14  and  C_15 
REMARK       I    between atoms: C_15  and  N_16 
REMARK    5  A    between atoms: N_16  and  C_17 
REMARK    6  A    between atoms: C_17  and  C_18 
ROOT
HETATM    1  C   UNL     1      -5.929   2.214 -32.152  1.00  0.00     0.240 C 
HETATM    2  N   UNL     1      -5.821   0.871 -31.833  1.00  0.00    -0.325 N 
HETATM    3  O   UNL     1      -6.337   2.647 -33.230  1.00  0.00    -0.271 OA
HETATM    4  H   UNL     1      -5.930   0.668 -30.845  1.00  0.00     0.169 HD
ENDROOT
BRANCH   1   5
HETATM    5  C   UNL     1      -5.558   3.130 -30.982  1.00  0.00     0.240 C 
BRANCH   5   6
HETATM    6  N   UNL     1      -4.650   4.141 -31.456  1.00  0.00    -0.259 N 
HETATM    7  C   UNL     1      -5.051   5.405 -31.751  1.00  0.00     0.326 C 
HETATM    8  N   UNL     1      -3.948   6.147 -32.071  1.00  0.00    -0.320 N 
HETATM    9  O   UNL     1      -6.200   5.813 -31.752  1.00  0.00    -0.247 OA
HETATM   10  C   UNL     1      -2.752   5.342 -32.190  1.00  0.00     0.144 C 
HETATM   11  H   UNL     1      -4.014   7.139 -32.249  1.00  0.00     0.165 HD
HETATM   12  C   UNL     1      -1.606   5.928 -31.385  1.00  0.00    -0.014 A 
HETATM   13  C   UNL     1      -3.306   3.997 -31.659  1.00  0.00     0.261 C 
HETATM   14  C   UNL     1      -2.401   5.160 -33.678  1.00  0.00     0.047 C 
HETATM   15  C   UNL     1      -0.564   6.632 -32.028  1.00  0.00    -0.049 A 
HETATM   16  C   UNL     1      -1.573   5.807 -29.983  1.00  0.00     0.011 A 
HETATM   17  C   UNL     1       0.496   7.152 -31.268  1.00  0.00     0.007 A 
HETATM   18  C   UNL     1      -0.502   6.787 -33.530  1.00  0.00     0.039 C 
HETATM   19  C   UNL     1       0.523   6.998 -29.884  1.00  0.00     0.001 A 
HETATM   20  C   UNL     1      -0.512   6.330 -29.242  1.00  0.00     0.001 A 
HETATM   21  C   UNL     1      -1.805   6.445 -34.242  1.00  0.00     0.008 C 
HETATM   22  O   UNL     1      -2.675   2.957 -31.519  1.00  0.00    -0.270 OA
ENDBRANCH   5   6
ENDBRANCH   1   5
BRANCH   2  23
HETATM   23  C   UNL     1      -6.146  -0.197 -32.702  1.00  0.00     0.050 A 
HETATM   24  C   UNL     1      -7.429  -0.575 -33.139  1.00  0.00     0.058 A 
HETATM   25  C   UNL     1      -7.550  -1.641 -34.058  1.00  0.00     0.019 A 
HETATM   26  C   UNL     1      -6.435  -2.320 -34.545  1.00  0.00     0.001 A 
HETATM   27  C   UNL     1      -5.169  -1.926 -34.138  1.00  0.00     0.002 A 
HETATM   28  C   UNL     1      -5.027  -0.867 -33.239  1.00  0.00     0.030 A 
BRANCH  24  29
HETATM   29  C   UNL     1      -8.716   0.143 -32.923  1.00  0.00     0.254 C 
HETATM   30  N   UNL     1      -9.371   0.629 -34.022  1.00  0.00    -0.351 N 
HETATM   31  H   UNL     1      -9.026   0.387 -34.949  1.00  0.00     0.163 HD
HETATM   32  O   UNL     1      -9.060   0.395 -31.770  1.00  0.00    -0.268 OA
BRANCH  30  33
HETATM   33  C   UNL     1     -10.359   1.681 -33.925  1.00  0.00     0.187 C 
BRANCH  33  34
HETATM   34  C   UNL     1     -11.749   1.167 -34.014  1.00  0.00     0.070 A 
HETATM   35  O   UNL     1     -12.008   0.010 -33.333  1.00  0.00    -0.325 OA
HETATM   36  C   UNL     1     -13.290  -0.341 -33.615  1.00  0.00     0.142 A 
HETATM   37  C   UNL     1     -13.867   0.580 -34.456  1.00  0.00     0.027 A 
HETATM   38  C   UNL     1     -12.872   1.551 -34.717  1.00  0.00     0.036 A 
ENDBRANCH  33  34
ENDBRANCH  30  33
ENDBRANCH  24  29
ENDBRANCH   2  23
TORSDOF 6
ENDMDL
MODEL 2
REMARK VINA RESULT:     -10.0      3.026      5.193
REMARK  6 active torsions:
REMARK  status: ('A' for Active; 'I' for Inactive)
REMARK    1  A    between atoms: N_9  and  C_10 
REMARK    2  A    between atoms: C_10  and  C_11 
REMARK       I    between atoms: C_11  and  N_12 
REMARK    3  A    between atoms: N_12  and  C_13 
REMARK    4  A    between atoms: C_14  and  C_15 
REMARK       I    between atoms: C_15  and  N_16 
REMARK    5  A    between atoms: N_16  and  C_17 
REMARK    6  A    between atoms: C_17  and  C_18 
ROOT
HETATM    1  C   UNL     1      -3.396   4.973 -34.410  1.00  0.00     0.240 C 
HETATM    2  N   UNL     1      -4.109   4.514 -33.315  1.00  0.00    -0.325 N 
HETATM    3  O   UNL     1      -3.901   5.361 -35.463  1.00  0.00    -0.271 OA
HETATM    4  H   UNL     1      -3.652   4.673 -32.423  1.00  0.00     0.169 HD
ENDROOT
BRANCH   1   5
HETATM    5  C   UNL     1      -1.887   5.024 -34.151  1.00  0.00     0.240 C 
BRANCH   5   6
HETATM    6  N   UNL     1      -1.645   5.832 -32.986  1.00  0.00    -0.259 N 
HETATM    7  C   UNL     1      -1.489   7.180 -33.050  1.00  0.00     0.326 C 
HETATM    8  N   UNL     1      -1.380   7.666 -31.775  1.00  0.00    -0.320 N 
HETATM    9  O   UNL     1      -1.436   7.851 -34.066  1.00  0.00    -0.247 OA
HETATM   10  C   UNL     1      -1.265   6.614 -30.788  1.00  0.00     0.144 C 
HETATM   11  H   UNL     1      -1.335   8.658 -31.592  1.00  0.00     0.165 HD
HETATM   12  C   UNL     1      -2.247   6.813 -29.649  1.00  0.00    -0.014 A 
HETATM   13  C   UNL     1      -1.551   5.392 -31.694  1.00  0.00     0.261 C 
HETATM   14  C   UNL     1       0.194   6.520 -30.306  1.00  0.00     0.047 C 
HETATM   15  C   UNL     1      -1.807   7.313 -28.402  1.00  0.00    -0.049 A 
HETATM   16  C   UNL     1      -3.616   6.532 -29.817  1.00  0.00     0.011 A 
HETATM   17  C   UNL     1      -2.728   7.474 -27.354  1.00  0.00     0.007 A 
HETATM   18  C   UNL     1      -0.354   7.615 -28.121  1.00  0.00     0.039 C 
HETATM   19  C   UNL     1      -4.074   7.165 -27.534  1.00  0.00     0.001 A 
HETATM   20  C   UNL     1      -4.518   6.698 -28.766  1.00  0.00     0.001 A 
HETATM   21  C   UNL     1       0.518   7.679 -29.369  1.00  0.00     0.008 C 
HETATM   22  O   UNL     1      -1.606   4.221 -31.339  1.00  0.00    -0.270 OA
ENDBRANCH   5   6
ENDBRANCH   1   5
BRANCH   2  23
HETATM   23  C   UNL     1      -5.519   4.409 -33.253  1.00  0.00     0.050 A 
HETATM   24  C   UNL     1      -6.279   3.229 -33.163  1.00  0.00     0.058 A 
HETATM   25  C   UNL     1      -7.684   3.329 -33.053  1.00  0.00     0.019 A 
HETATM   26  C   UNL     1      -8.331   4.563 -33.027  1.00  0.00     0.001 A 
HETATM   27  C   UNL     1      -7.579   5.726 -33.084  1.00  0.00     0.002 A 
HETATM   28  C   UNL     1      -6.188   5.648 -33.181  1.00  0.00     0.030 A 
BRANCH  24  29
HETATM   29  C   UNL     1      -5.786   1.839 -32.953  1.00  0.00     0.254 C 
HETATM   30  N   UNL     1      -6.698   0.819 -33.016  1.00  0.00    -0.351 N 
HETATM   31  H   UNL     1      -7.649   1.026 -33.315  1.00  0.00     0.163 HD
HETATM   32  O   UNL     1      -4.622   1.678 -32.593  1.00  0.00    -0.268 OA
BRANCH  30  33
HETATM   33  C   UNL     1      -6.445  -0.475 -32.422  1.00  0.00     0.187 C 
BRANCH  33  34
HETATM   34  C   UNL     1      -6.037  -1.491 -33.423  1.00  0.00     0.070 A 
HETATM   35  O   UNL     1      -4.716  -1.845 -33.419  1.00  0.00    -0.325 OA
HETATM   36  C   UNL     1      -4.528  -2.702 -34.456  1.00  0.00     0.142 A 
HETATM   37  C   UNL     1      -5.712  -2.919 -35.122  1.00  0.00     0.027 A 
HETATM   38  C   UNL     1      -6.685  -2.134 -34.458  1.00  0.00     0.036 A 
ENDBRANCH  33  34
ENDBRANCH  30  33
ENDBRANCH  24  29
ENDBRANCH   2  23
TORSDOF 6
ENDMDL
MODEL 3
REMARK VINA RESULT:     -10.0      2.410      8.606
REMARK  6 active torsions:
REMARK  status: ('A' for Active; 'I' for Inactive)
REMARK    1  A    between atoms: N_9  and  C_10 
REMARK    2  A    between atoms: C_10  and  C_11 
REMARK       I    between atoms: C_11  and  N_12 
REMARK    3  A    between atoms: N_12  and  C_13 
REMARK    4  A    between atoms: C_14  and  C_15 
REMARK       I    between atoms: C_15  and  N_16 
REMARK    5  A    between atoms: N_16  and  C_17 
REMARK    6  A    between atoms: C_17  and  C_18 
ROOT
HETATM    1  C   UNL     1      -9.766   2.772 -33.897  1.00  0.00     0.240 C 
HETATM    2  N   UNL     1      -9.512   3.293 -32.638  1.00  0.00    -0.325 N 
HETATM    3  O   UNL     1      -9.761   3.426 -34.939  1.00  0.00    -0.271 OA
HETATM    4  H   UNL     1      -9.100   2.631 -31.989  1.00  0.00     0.169 HD
ENDROOT
BRANCH   1   5
HETATM    5  C   UNL     1      -9.981   1.255 -33.875  1.00  0.00     0.240 C 
BRANCH   5   6
HETATM    6  N   UNL     1      -8.742   0.617 -33.519  1.00  0.00    -0.259 N 
HETATM    7  C   UNL     1      -8.429   0.287 -32.239  1.00  0.00     0.326 C 
HETATM    8  N   UNL     1      -7.242  -0.393 -32.243  1.00  0.00    -0.320 N 
HETATM    9  O   UNL     1      -9.080   0.563 -31.246  1.00  0.00    -0.247 OA
HETATM   10  C   UNL     1      -6.600  -0.382 -33.539  1.00  0.00     0.144 C 
HETATM   11  H   UNL     1      -6.865  -0.799 -31.398  1.00  0.00     0.165 HD
HETATM   12  C   UNL     1      -6.188  -1.778 -33.966  1.00  0.00    -0.014 A 
HETATM   13  C   UNL     1      -7.741   0.249 -34.375  1.00  0.00     0.261 C 
HETATM   14  C   UNL     1      -5.420   0.606 -33.519  1.00  0.00     0.047 C 
HETATM   15  C   UNL     1      -4.837  -2.184 -33.883  1.00  0.00    -0.049 A 
HETATM   16  C   UNL     1      -7.143  -2.705 -34.425  1.00  0.00     0.011 A 
HETATM   17  C   UNL     1      -4.472  -3.475 -34.299  1.00  0.00     0.007 A 
HETATM   18  C   UNL     1      -3.740  -1.250 -33.430  1.00  0.00     0.039 C 
HETATM   19  C   UNL     1      -5.429  -4.368 -34.775  1.00  0.00     0.001 A 
HETATM   20  C   UNL     1      -6.764  -3.984 -34.834  1.00  0.00     0.001 A 
HETATM   21  C   UNL     1      -4.246   0.014 -32.745  1.00  0.00     0.008 C 
HETATM   22  O   UNL     1      -7.725   0.461 -35.581  1.00  0.00    -0.270 OA
ENDBRANCH   5   6
ENDBRANCH   1   5
BRANCH   2  23
HETATM   23  C   UNL     1      -9.228   4.651 -32.366  1.00  0.00     0.050 A 
HETATM   24  C   UNL     1      -7.966   5.274 -32.377  1.00  0.00     0.058 A 
HETATM   25  C   UNL     1      -7.888   6.663 -32.134  1.00  0.00     0.019 A 
HETATM   26  C   UNL     1      -9.026   7.430 -31.891  1.00  0.00     0.001 A 
HETATM   27  C   UNL     1     -10.272   6.822 -31.912  1.00  0.00     0.002 A 
HETATM   28  C   UNL     1     -10.371   5.451 -32.162  1.00  0.00     0.030 A 
BRANCH  24  29
HETATM   29  C   UNL     1      -6.667   4.697 -32.825  1.00  0.00     0.254 C 
HETATM   30  N   UNL     1      -5.898   5.439 -33.679  1.00  0.00    -0.351 N 
HETATM   31  H   UNL     1      -6.175   6.396 -33.888  1.00  0.00     0.163 HD
HETATM   32  O   UNL     1      -6.410   3.532 -32.528  1.00  0.00    -0.268 OA
BRANCH  30  33
HETATM   33  C   UNL     1      -4.870   4.841 -34.502  1.00  0.00     0.187 C 
BRANCH  33  34
HETATM   34  C   UNL     1      -3.501   5.205 -34.058  1.00  0.00     0.070 A 
HETATM   35  O   UNL     1      -3.014   6.397 -34.520  1.00  0.00    -0.325 OA
HETATM   36  C   UNL     1      -1.732   6.501 -34.086  1.00  0.00     0.142 A 
HETATM   37  C   UNL     1      -1.386   5.400 -33.338  1.00  0.00     0.027 A 
HETATM   38  C   UNL     1      -2.527   4.562 -33.324  1.00  0.00     0.036 A 
ENDBRANCH  33  34
ENDBRANCH  30  33
ENDBRANCH  24  29
ENDBRANCH   2  23
TORSDOF 6
ENDMDL
MODEL 4
REMARK VINA RESULT:      -9.8      2.707      8.322
REMARK  6 active torsions:
REMARK  status: ('A' for Active; 'I' for Inactive)
REMARK    1  A    between atoms: N_9  and  C_10 
REMARK    2  A    between atoms: C_10  and  C_11 
REMARK       I    between atoms: C_11  and  N_12 
REMARK    3  A    between atoms: N_12  and  C_13 
REMARK    4  A    between atoms: C_14  and  C_15 
REMARK       I    between atoms: C_15  and  N_16 
REMARK    5  A    between atoms: N_16  and  C_17 
REMARK    6  A    between atoms: C_17  and  C_18 
ROOT
HETATM    1  C   UNL     1      -9.250   2.878 -33.579  1.00  0.00     0.240 C 
HETATM    2  N   UNL     1     -10.044   3.091 -32.464  1.00  0.00    -0.325 N 
HETATM    3  O   UNL     1      -8.460   3.699 -34.044  1.00  0.00    -0.271 OA
HETATM    4  H   UNL     1     -10.264   2.249 -31.943  1.00  0.00     0.169 HD
ENDROOT
BRANCH   1   5
HETATM    5  C   UNL     1      -9.395   1.461 -34.144  1.00  0.00     0.240 C 
BRANCH   5   6
HETATM    6  N   UNL     1      -8.277   0.670 -33.703  1.00  0.00    -0.259 N 
HETATM    7  C   UNL     1      -8.129   0.266 -32.415  1.00  0.00     0.326 C 
HETATM    8  N   UNL     1      -7.033  -0.550 -32.339  1.00  0.00    -0.320 N 
HETATM    9  O   UNL     1      -8.837   0.585 -31.475  1.00  0.00    -0.247 OA
HETATM   10  C   UNL     1      -6.272  -0.574 -33.569  1.00  0.00     0.144 C 
HETATM   11  H   UNL     1      -6.788  -1.024 -31.481  1.00  0.00     0.165 HD
HETATM   12  C   UNL     1      -5.983  -1.995 -34.015  1.00  0.00    -0.014 A 
HETATM   13  C   UNL     1      -7.247   0.213 -34.479  1.00  0.00     0.261 C 
HETATM   14  C   UNL     1      -4.994   0.267 -33.398  1.00  0.00     0.047 C 
HETATM   15  C   UNL     1      -4.702  -2.560 -33.826  1.00  0.00    -0.049 A 
HETATM   16  C   UNL     1      -6.990  -2.787 -34.599  1.00  0.00     0.011 A 
HETATM   17  C   UNL     1      -4.450  -3.872 -34.260  1.00  0.00     0.007 A 
HETATM   18  C   UNL     1      -3.554  -1.776 -33.234  1.00  0.00     0.039 C 
HETATM   19  C   UNL     1      -5.453  -4.629 -34.860  1.00  0.00     0.001 A 
HETATM   20  C   UNL     1      -6.722  -4.089 -35.025  1.00  0.00     0.001 A 
HETATM   21  C   UNL     1      -3.976  -0.483 -32.546  1.00  0.00     0.008 C 
HETATM   22  O   UNL     1      -7.092   0.459 -35.668  1.00  0.00    -0.270 OA
ENDBRANCH   5   6
ENDBRANCH   1   5
BRANCH   2  23
HETATM   23  C   UNL     1     -10.076   4.287 -31.710  1.00  0.00     0.050 A 
HETATM   24  C   UNL     1      -9.154   4.697 -30.729  1.00  0.00     0.058 A 
HETATM   25  C   UNL     1      -9.322   5.960 -30.120  1.00  0.00     0.019 A 
HETATM   26  C   UNL     1     -10.371   6.808 -30.469  1.00  0.00     0.001 A 
HETATM   27  C   UNL     1     -11.261   6.417 -31.457  1.00  0.00     0.002 A 
HETATM   28  C   UNL     1     -11.105   5.177 -32.080  1.00  0.00     0.030 A 
BRANCH  24  29
HETATM   29  C   UNL     1      -7.857   4.057 -30.370  1.00  0.00     0.254 C 
HETATM   30  N   UNL     1      -6.869   4.035 -31.317  1.00  0.00    -0.351 N 
HETATM   31  H   UNL     1      -7.005   4.553 -32.183  1.00  0.00     0.163 HD
HETATM   32  O   UNL     1      -7.779   3.452 -29.303  1.00  0.00    -0.268 OA
BRANCH  30  33
HETATM   33  C   UNL     1      -5.768   3.100 -31.257  1.00  0.00     0.187 C 
BRANCH  33  34
HETATM   34  C   UNL     1      -4.560   3.595 -31.963  1.00  0.00     0.070 A 
HETATM   35  O   UNL     1      -4.772   4.531 -32.937  1.00  0.00    -0.325 OA
HETATM   36  C   UNL     1      -3.572   4.781 -33.520  1.00  0.00     0.142 A 
HETATM   37  C   UNL     1      -2.583   4.032 -32.928  1.00  0.00     0.027 A 
HETATM   38  C   UNL     1      -3.222   3.263 -31.925  1.00  0.00     0.036 A 
ENDBRANCH  33  34
ENDBRANCH  30  33
ENDBRANCH  24  29
ENDBRANCH   2  23
TORSDOF 6
ENDMDL
MODEL 5
REMARK VINA RESULT:      -9.8      2.361      8.809
REMARK  6 active torsions:
REMARK  status: ('A' for Active; 'I' for Inactive)
REMARK    1  A    between atoms: N_9  and  C_10 
REMARK    2  A    between atoms: C_10  and  C_11 
REMARK       I    between atoms: C_11  and  N_12 
REMARK    3  A    between atoms: N_12  and  C_13 
REMARK    4  A    between atoms: C_14  and  C_15 
REMARK       I    between atoms: C_15  and  N_16 
REMARK    5  A    between atoms: N_16  and  C_17 
REMARK    6  A    between atoms: C_17  and  C_18 
ROOT
HETATM    1  C   UNL     1      -8.204   4.433 -33.398  1.00  0.00     0.240 C 
HETATM    2  N   UNL     1      -7.718   4.701 -32.128  1.00  0.00    -0.325 N 
HETATM    3  O   UNL     1      -8.130   5.206 -34.353  1.00  0.00    -0.271 OA
HETATM    4  H   UNL     1      -7.427   3.878 -31.612  1.00  0.00     0.169 HD
ENDROOT
BRANCH   1   5
HETATM    5  C   UNL     1      -8.784   3.022 -33.521  1.00  0.00     0.240 C 
BRANCH   5   6
HETATM    6  N   UNL     1      -7.794   2.074 -33.087  1.00  0.00    -0.259 N 
HETATM    7  C   UNL     1      -7.800   1.526 -31.844  1.00  0.00     0.326 C 
HETATM    8  N   UNL     1      -6.801   0.594 -31.775  1.00  0.00    -0.320 N 
HETATM    9  O   UNL     1      -8.551   1.822 -30.931  1.00  0.00    -0.247 OA
HETATM   10  C   UNL     1      -5.941   0.613 -32.939  1.00  0.00     0.144 C 
HETATM   11  H   UNL     1      -6.680   0.011 -30.959  1.00  0.00     0.165 HD
HETATM   12  C   UNL     1      -5.757  -0.778 -33.516  1.00  0.00    -0.014 A 
HETATM   13  C   UNL     1      -6.750   1.590 -33.827  1.00  0.00     0.261 C 
HETATM   14  C   UNL     1      -4.606   1.289 -32.579  1.00  0.00     0.047 C 
HETATM   15  C   UNL     1      -4.560  -1.494 -33.293  1.00  0.00    -0.049 A 
HETATM   16  C   UNL     1      -6.782  -1.393 -34.259  1.00  0.00     0.011 A 
HETATM   17  C   UNL     1      -4.401  -2.774 -33.850  1.00  0.00     0.007 A 
HETATM   18  C   UNL     1      -3.395  -0.903 -32.533  1.00  0.00     0.039 C 
HETATM   19  C   UNL     1      -5.418  -3.354 -34.604  1.00  0.00     0.001 A 
HETATM   20  C   UNL     1      -6.609  -2.666 -34.805  1.00  0.00     0.001 A 
HETATM   21  C   UNL     1      -3.746   0.350 -31.740  1.00  0.00     0.008 C 
HETATM   22  O   UNL     1      -6.468   1.938 -34.967  1.00  0.00    -0.270 OA
ENDBRANCH   5   6
ENDBRANCH   1   5
BRANCH   2  23
HETATM   23  C   UNL     1      -7.084   5.905 -31.741  1.00  0.00     0.050 A 
HETATM   24  C   UNL     1      -5.736   6.256 -31.940  1.00  0.00     0.058 A 
HETATM   25  C   UNL     1      -5.296   7.535 -31.532  1.00  0.00     0.019 A 
HETATM   26  C   UNL     1      -6.163   8.455 -30.945  1.00  0.00     0.001 A 
HETATM   27  C   UNL     1      -7.498   8.120 -30.778  1.00  0.00     0.002 A 
HETATM   28  C   UNL     1      -7.955   6.865 -31.186  1.00  0.00     0.030 A 
BRANCH  24  29
HETATM   29  C   UNL     1      -4.709   5.524 -32.734  1.00  0.00     0.254 C 
HETATM   30  N   UNL     1      -3.773   4.794 -32.053  1.00  0.00    -0.351 N 
HETATM   31  H   UNL     1      -3.875   4.678 -31.046  1.00  0.00     0.163 HD
HETATM   32  O   UNL     1      -4.656   5.721 -33.946  1.00  0.00    -0.268 OA
BRANCH  30  33
HETATM   33  C   UNL     1      -2.513   4.412 -32.651  1.00  0.00     0.187 C 
BRANCH  33  34
HETATM   34  C   UNL     1      -1.354   5.089 -32.019  1.00  0.00     0.070 A 
HETATM   35  O   UNL     1      -0.821   4.475 -30.920  1.00  0.00    -0.325 OA
HETATM   36  C   UNL     1       0.154   5.289 -30.439  1.00  0.00     0.142 A 
HETATM   37  C   UNL     1       0.270   6.415 -31.220  1.00  0.00     0.027 A 
HETATM   38  C   UNL     1      -0.706   6.288 -32.237  1.00  0.00     0.036 A 
ENDBRANCH  33  34
ENDBRANCH  30  33
ENDBRANCH  24  29
ENDBRANCH   2  23
TORSDOF 6
ENDMDL
MODEL 6
REMARK VINA RESULT:      -9.7      1.766      3.005
REMARK  6 active torsions:
REMARK  status: ('A' for Active; 'I' for Inactive)
REMARK    1  A    between atoms: N_9  and  C_10 
REMARK    2  A    between atoms: C_10  and  C_11 
REMARK       I    between atoms: C_11  and  N_12 
REMARK    3  A    between atoms: N_12  and  C_13 
REMARK    4  A    between atoms: C_14  and  C_15 
REMARK       I    between atoms: C_15  and  N_16 
REMARK    5  A    between atoms: N_16  and  C_17 
REMARK    6  A    between atoms: C_17  and  C_18 
ROOT
HETATM    1  C   UNL     1      -7.132   2.889 -32.694  1.00  0.00     0.240 C 
HETATM    2  N   UNL     1      -6.875   1.650 -32.128  1.00  0.00    -0.325 N 
HETATM    3  O   UNL     1      -7.321   3.085 -33.893  1.00  0.00    -0.271 OA
HETATM    4  H   UNL     1      -7.194   1.556 -31.170  1.00  0.00     0.169 HD
ENDROOT
BRANCH   1   5
HETATM    5  C   UNL     1      -7.236   4.004 -31.649  1.00  0.00     0.240 C 
BRANCH   5   6
HETATM    6  N   UNL     1      -5.936   4.593 -31.469  1.00  0.00    -0.259 N 
HETATM    7  C   UNL     1      -5.040   4.125 -30.561  1.00  0.00     0.326 C 
HETATM    8  N   UNL     1      -3.872   4.823 -30.704  1.00  0.00    -0.320 N 
HETATM    9  O   UNL     1      -5.240   3.247 -29.740  1.00  0.00    -0.247 OA
HETATM   10  C   UNL     1      -4.001   5.943 -31.610  1.00  0.00     0.144 C 
HETATM   11  H   UNL     1      -3.046   4.581 -30.175  1.00  0.00     0.165 HD
HETATM   12  C   UNL     1      -2.897   5.946 -32.651  1.00  0.00    -0.014 A 
HETATM   13  C   UNL     1      -5.419   5.653 -32.161  1.00  0.00     0.261 C 
HETATM   14  C   UNL     1      -4.060   7.253 -30.802  1.00  0.00     0.047 C 
HETATM   15  C   UNL     1      -1.807   6.838 -32.538  1.00  0.00    -0.049 A 
HETATM   16  C   UNL     1      -2.920   5.044 -33.731  1.00  0.00     0.011 A 
HETATM   17  C   UNL     1      -0.803   6.837 -33.520  1.00  0.00     0.007 A 
HETATM   18  C   UNL     1      -1.712   7.860 -31.429  1.00  0.00     0.039 C 
HETATM   19  C   UNL     1      -0.859   5.954 -34.595  1.00  0.00     0.001 A 
HETATM   20  C   UNL     1      -1.914   5.056 -34.698  1.00  0.00     0.001 A 
HETATM   21  C   UNL     1      -2.676   7.612 -30.274  1.00  0.00     0.008 C 
HETATM   22  O   UNL     1      -6.016   6.305 -33.009  1.00  0.00    -0.270 OA
ENDBRANCH   5   6
ENDBRANCH   1   5
BRANCH   2  23
HETATM   23  C   UNL     1      -6.777   0.437 -32.847  1.00  0.00     0.050 A 
HETATM   24  C   UNL     1      -7.836  -0.326 -33.374  1.00  0.00     0.058 A 
HETATM   25  C   UNL     1      -7.536  -1.489 -34.117  1.00  0.00     0.019 A 
HETATM   26  C   UNL     1      -6.222  -1.894 -34.345  1.00  0.00     0.001 A 
HETATM   27  C   UNL     1      -5.178  -1.126 -33.853  1.00  0.00     0.002 A 
HETATM   28  C   UNL     1      -5.455   0.034 -33.126  1.00  0.00     0.030 A 
BRANCH  24  29
HETATM   29  C   UNL     1      -9.279   0.038 -33.438  1.00  0.00     0.254 C 
HETATM   30  N   UNL     1      -9.661   0.988 -34.347  1.00  0.00    -0.351 N 
HETATM   31  H   UNL     1      -8.978   1.327 -35.022  1.00  0.00     0.163 HD
HETATM   32  O   UNL     1     -10.037  -0.419 -32.584  1.00  0.00    -0.268 OA
BRANCH  30  33
HETATM   33  C   UNL     1     -10.901   1.720 -34.218  1.00  0.00     0.187 C 
BRANCH  33  34
HETATM   34  C   UNL     1     -10.690   3.186 -34.121  1.00  0.00     0.070 A 
HETATM   35  O   UNL     1     -10.347   3.823 -35.281  1.00  0.00    -0.325 OA
HETATM   36  C   UNL     1     -10.108   5.123 -34.969  1.00  0.00     0.142 A 
HETATM   37  C   UNL     1     -10.305   5.339 -33.625  1.00  0.00     0.027 A 
HETATM   38  C   UNL     1     -10.677   4.088 -33.078  1.00  0.00     0.036 A 
ENDBRANCH  33  34
ENDBRANCH  30  33
ENDBRANCH  24  29
ENDBRANCH   2  23
TORSDOF 6
ENDMDL
MODEL 7
REMARK VINA RESULT:      -9.7      2.381      9.736
REMARK  6 active torsions:
REMARK  status: ('A' for Active; 'I' for Inactive)
REMARK    1  A    between atoms: N_9  and  C_10 
REMARK    2  A    between atoms: C_10  and  C_11 
REMARK       I    between atoms: C_11  and  N_12 
REMARK    3  A    between atoms: N_12  and  C_13 
REMARK    4  A    between atoms: C_14  and  C_15 
REMARK       I    between atoms: C_15  and  N_16 
REMARK    5  A    between atoms: N_16  and  C_17 
REMARK    6  A    between atoms: C_17  and  C_18 
ROOT
HETATM    1  C   UNL     1      -4.786   5.355 -31.497  1.00  0.00     0.240 C 
HETATM    2  N   UNL     1      -4.545   5.877 -32.757  1.00  0.00    -0.325 N 
HETATM    3  O   UNL     1      -3.914   4.956 -30.725  1.00  0.00    -0.271 OA
HETATM    4  H   UNL     1      -5.232   6.556 -33.065  1.00  0.00     0.169 HD
ENDROOT
BRANCH   1   5
HETATM    5  C   UNL     1      -6.269   5.394 -31.116  1.00  0.00     0.240 C 
BRANCH   5   6
HETATM    6  N   UNL     1      -6.952   4.332 -31.806  1.00  0.00    -0.259 N 
HETATM    7  C   UNL     1      -7.527   4.501 -33.025  1.00  0.00     0.326 C 
HETATM    8  N   UNL     1      -7.998   3.291 -33.454  1.00  0.00    -0.320 N 
HETATM    9  O   UNL     1      -7.627   5.553 -33.633  1.00  0.00    -0.247 OA
HETATM   10  C   UNL     1      -7.925   2.271 -32.431  1.00  0.00     0.144 C 
HETATM   11  H   UNL     1      -8.396   3.178 -34.376  1.00  0.00     0.165 HD
HETATM   12  C   UNL     1      -7.265   1.008 -32.952  1.00  0.00    -0.014 A 
HETATM   13  C   UNL     1      -7.108   3.046 -31.368  1.00  0.00     0.261 C 
HETATM   14  C   UNL     1      -9.332   2.015 -31.860  1.00  0.00     0.047 C 
HETATM   15  C   UNL     1      -8.044  -0.123 -33.285  1.00  0.00    -0.049 A 
HETATM   16  C   UNL     1      -5.872   0.946 -33.142  1.00  0.00     0.011 A 
HETATM   17  C   UNL     1      -7.413  -1.289 -33.751  1.00  0.00     0.007 A 
HETATM   18  C   UNL     1      -9.541  -0.159 -33.088  1.00  0.00     0.039 C 
HETATM   19  C   UNL     1      -6.030  -1.337 -33.906  1.00  0.00     0.001 A 
HETATM   20  C   UNL     1      -5.261  -0.220 -33.606  1.00  0.00     0.001 A 
HETATM   21  C   UNL     1     -10.167   1.211 -32.850  1.00  0.00     0.008 C 
HETATM   22  O   UNL     1      -6.734   2.615 -30.284  1.00  0.00    -0.270 OA
ENDBRANCH   5   6
ENDBRANCH   1   5
BRANCH   2  23
HETATM   23  C   UNL     1      -3.266   6.011 -33.346  1.00  0.00     0.050 A 
HETATM   24  C   UNL     1      -2.244   6.901 -32.964  1.00  0.00     0.058 A 
HETATM   25  C   UNL     1      -1.006   6.850 -33.641  1.00  0.00     0.019 A 
HETATM   26  C   UNL     1      -0.770   5.939 -34.669  1.00  0.00     0.001 A 
HETATM   27  C   UNL     1      -1.765   5.041 -35.024  1.00  0.00     0.002 A 
HETATM   28  C   UNL     1      -2.993   5.069 -34.358  1.00  0.00     0.030 A 
BRANCH  24  29
HETATM   29  C   UNL     1      -2.207   7.788 -31.768  1.00  0.00     0.254 C 
HETATM   30  N   UNL     1      -1.606   7.310 -30.634  1.00  0.00    -0.351 N 
HETATM   31  H   UNL     1      -1.107   6.423 -30.677  1.00  0.00     0.163 HD
HETATM   32  O   UNL     1      -2.836   8.844 -31.801  1.00  0.00    -0.268 OA
BRANCH  30  33
HETATM   33  C   UNL     1      -1.876   7.869 -29.328  1.00  0.00     0.187 C 
BRANCH  33  34
HETATM   34  C   UNL     1      -0.635   8.206 -28.586  1.00  0.00     0.070 A 
HETATM   35  O   UNL     1      -0.740   9.207 -27.660  1.00  0.00    -0.325 OA
HETATM   36  C   UNL     1       0.505   9.427 -27.165  1.00  0.00     0.142 A 
HETATM   37  C   UNL     1       1.412   8.573 -27.747  1.00  0.00     0.027 A 
HETATM   38  C   UNL     1       0.677   7.788 -28.667  1.00  0.00     0.036 A 
ENDBRANCH  33  34
ENDBRANCH  30  33
ENDBRANCH  24  29
ENDBRANCH   2  23
TORSDOF 6
ENDMDL
MODEL 8
REMARK VINA RESULT:      -9.5      3.705      6.832
REMARK  6 active torsions:
REMARK  status: ('A' for Active; 'I' for Inactive)
REMARK    1  A    between atoms: N_9  and  C_10 
REMARK    2  A    between atoms: C_10  and  C_11 
REMARK       I    between atoms: C_11  and  N_12 
REMARK    3  A    between atoms: N_12  and  C_13 
REMARK    4  A    between atoms: C_14  and  C_15 
REMARK       I    between atoms: C_15  and  N_16 
REMARK    5  A    between atoms: N_16  and  C_17 
REMARK    6  A    between atoms: C_17  and  C_18 
ROOT
HETATM    1  C   UNL     1      -9.772   3.596 -32.767  1.00  0.00     0.240 C 
HETATM    2  N   UNL     1      -9.960   2.565 -33.673  1.00  0.00    -0.325 N 
HETATM    3  O   UNL     1     -10.626   3.998 -31.978  1.00  0.00    -0.271 OA
HETATM    4  H   UNL     1      -9.115   2.052 -33.901  1.00  0.00     0.169 HD
ENDROOT
BRANCH   1   5
HETATM    5  C   UNL     1      -8.344   4.149 -32.791  1.00  0.00     0.240 C 
BRANCH   5   6
HETATM    6  N   UNL     1      -7.427   3.072 -32.529  1.00  0.00    -0.259 N 
HETATM    7  C   UNL     1      -7.354   2.449 -31.324  1.00  0.00     0.326 C 
HETATM    8  N   UNL     1      -6.469   1.410 -31.426  1.00  0.00    -0.320 N 
HETATM    9  O   UNL     1      -7.957   2.765 -30.313  1.00  0.00    -0.247 OA
HETATM   10  C   UNL     1      -5.753   1.411 -32.682  1.00  0.00     0.144 C 
HETATM   11  H   UNL     1      -6.324   0.766 -30.661  1.00  0.00     0.165 HD
HETATM   12  C   UNL     1      -5.799   0.048 -33.348  1.00  0.00    -0.014 A 
HETATM   13  C   UNL     1      -6.539   2.526 -33.414  1.00  0.00     0.261 C 
HETATM   14  C   UNL     1      -4.315   1.912 -32.452  1.00  0.00     0.047 C 
HETATM   15  C   UNL     1      -4.675  -0.808 -33.309  1.00  0.00    -0.049 A 
HETATM   16  C   UNL     1      -6.967  -0.401 -33.992  1.00  0.00     0.011 A 
HETATM   17  C   UNL     1      -4.731  -2.058 -33.946  1.00  0.00     0.007 A 
HETATM   18  C   UNL     1      -3.371  -0.398 -32.666  1.00  0.00     0.039 C 
HETATM   19  C   UNL     1      -5.889  -2.473 -34.601  1.00  0.00     0.001 A 
HETATM   20  C   UNL     1      -7.006  -1.647 -34.620  1.00  0.00     0.001 A 
HETATM   21  C   UNL     1      -3.480   0.832 -31.773  1.00  0.00     0.008 C 
HETATM   22  O   UNL     1      -6.350   2.914 -34.560  1.00  0.00    -0.270 OA
ENDBRANCH   5   6
ENDBRANCH   1   5
BRANCH   2  23
HETATM   23  C   UNL     1     -11.162   1.837 -33.833  1.00  0.00     0.050 A 
HETATM   24  C   UNL     1     -12.308   2.236 -34.547  1.00  0.00     0.058 A 
HETATM   25  C   UNL     1     -13.398   1.342 -34.643  1.00  0.00     0.019 A 
HETATM   26  C   UNL     1     -13.363   0.079 -34.056  1.00  0.00     0.001 A 
HETATM   27  C   UNL     1     -12.223  -0.326 -33.380  1.00  0.00     0.002 A 
HETATM   28  C   UNL     1     -11.130   0.539 -33.284  1.00  0.00     0.030 A 
BRANCH  24  29
HETATM   29  C   UNL     1     -12.468   3.430 -35.423  1.00  0.00     0.254 C 
HETATM   30  N   UNL     1     -12.710   4.637 -34.823  1.00  0.00    -0.351 N 
HETATM   31  H   UNL     1     -12.657   4.702 -33.808  1.00  0.00     0.163 HD
HETATM   32  O   UNL     1     -12.521   3.262 -36.639  1.00  0.00    -0.268 OA
BRANCH  30  33
HETATM   33  C   UNL     1     -13.297   5.747 -35.540  1.00  0.00     0.187 C 
BRANCH  33  34
HETATM   34  C   UNL     1     -12.303   6.796 -35.879  1.00  0.00     0.070 A 
HETATM   35  O   UNL     1     -12.707   7.740 -36.781  1.00  0.00    -0.325 OA
HETATM   36  C   UNL     1     -11.639   8.542 -37.027  1.00  0.00     0.142 A 
HETATM   37  C   UNL     1     -10.554   8.139 -36.286  1.00  0.00     0.027 A 
HETATM   38  C   UNL     1     -10.981   7.009 -35.548  1.00  0.00     0.036 A 
ENDBRANCH  33  34
ENDBRANCH  30  33
ENDBRANCH  24  29
ENDBRANCH   2  23
TORSDOF 6
ENDMDL
MODEL 9
REMARK VINA RESULT:      -9.5      2.573      8.973
REMARK  6 active torsions:
REMARK  status: ('A' for Active; 'I' for Inactive)
REMARK    1  A    between atoms: N_9  and  C_10 
REMARK    2  A    between atoms: C_10  and  C_11 
REMARK       I    between atoms: C_11  and  N_12 
REMARK    3  A    between atoms: N_12  and  C_13 
REMARK    4  A    between atoms: C_14  and  C_15 
REMARK       I    between atoms: C_15  and  N_16 
REMARK    5  A    between atoms: N_16  and  C_17 
REMARK    6  A    between atoms: C_17  and  C_18 
ROOT
HETATM    1  C   UNL     1      -6.998   4.005 -30.422  1.00  0.00     0.240 C 
HETATM    2  N   UNL     1      -7.125   5.384 -30.378  1.00  0.00    -0.325 N 
HETATM    3  O   UNL     1      -6.136   3.361 -29.826  1.00  0.00    -0.271 OA
HETATM    4  H   UNL     1      -8.075   5.719 -30.501  1.00  0.00     0.169 HD
ENDROOT
BRANCH   1   5
HETATM    5  C   UNL     1      -8.107   3.337 -31.242  1.00  0.00     0.240 C 
BRANCH   5   6
HETATM    6  N   UNL     1      -7.512   2.369 -32.124  1.00  0.00    -0.259 N 
HETATM    7  C   UNL     1      -6.938   2.712 -33.306  1.00  0.00     0.326 C 
HETATM    8  N   UNL     1      -6.376   1.593 -33.857  1.00  0.00    -0.320 N 
HETATM    9  O   UNL     1      -6.935   3.823 -33.809  1.00  0.00    -0.247 OA
HETATM   10  C   UNL     1      -6.723   0.386 -33.139  1.00  0.00     0.144 C 
HETATM   11  H   UNL     1      -5.828   1.642 -34.705  1.00  0.00     0.165 HD
HETATM   12  C   UNL     1      -5.493  -0.442 -32.818  1.00  0.00    -0.014 A 
HETATM   13  C   UNL     1      -7.424   1.021 -31.913  1.00  0.00     0.261 C 
HETATM   14  C   UNL     1      -7.778  -0.401 -33.938  1.00  0.00     0.047 C 
HETATM   15  C   UNL     1      -5.192  -1.601 -33.568  1.00  0.00    -0.049 A 
HETATM   16  C   UNL     1      -4.613  -0.059 -31.789  1.00  0.00     0.011 A 
HETATM   17  C   UNL     1      -4.058  -2.364 -33.245  1.00  0.00     0.007 A 
HETATM   18  C   UNL     1      -6.094  -2.104 -34.672  1.00  0.00     0.039 C 
HETATM   19  C   UNL     1      -3.215  -1.981 -32.205  1.00  0.00     0.001 A 
HETATM   20  C   UNL     1      -3.490  -0.828 -31.480  1.00  0.00     0.001 A 
HETATM   21  C   UNL     1      -7.131  -1.088 -35.136  1.00  0.00     0.008 C 
HETATM   22  O   UNL     1      -7.894   0.421 -30.954  1.00  0.00    -0.270 OA
ENDBRANCH   5   6
ENDBRANCH   1   5
BRANCH   2  23
HETATM   23  C   UNL     1      -6.273   6.252 -29.657  1.00  0.00     0.050 A 
HETATM   24  C   UNL     1      -4.919   6.527 -29.922  1.00  0.00     0.058 A 
HETATM   25  C   UNL     1      -4.244   7.473 -29.119  1.00  0.00     0.019 A 
HETATM   26  C   UNL     1      -4.886   8.142 -28.078  1.00  0.00     0.001 A 
HETATM   27  C   UNL     1      -6.229   7.894 -27.837  1.00  0.00     0.002 A 
HETATM   28  C   UNL     1      -6.916   6.970 -28.628  1.00  0.00     0.030 A 
BRANCH  24  29
HETATM   29  C   UNL     1      -4.114   6.101 -31.102  1.00  0.00     0.254 C 
HETATM   30  N   UNL     1      -3.452   4.905 -31.027  1.00  0.00    -0.351 N 
HETATM   31  H   UNL     1      -3.620   4.298 -30.227  1.00  0.00     0.163 HD
HETATM   32  O   UNL     1      -3.962   6.897 -32.026  1.00  0.00    -0.268 OA
BRANCH  30  33
HETATM   33  C   UNL     1      -2.332   4.593 -31.887  1.00  0.00     0.187 C 
BRANCH  33  34
HETATM   34  C   UNL     1      -1.060   5.185 -31.404  1.00  0.00     0.070 A 
HETATM   35  O   UNL     1      -0.357   4.444 -30.494  1.00  0.00    -0.325 OA
HETATM   36  C   UNL     1       0.710   5.190 -30.109  1.00  0.00     0.142 A 
HETATM   37  C   UNL     1       0.717   6.397 -30.768  1.00  0.00     0.027 A 
HETATM   38  C   UNL     1      -0.428   6.395 -31.600  1.00  0.00     0.036 A 
ENDBRANCH  33  34
ENDBRANCH  30  33
ENDBRANCH  24  29
ENDBRANCH   2  23
TORSDOF 6
ENDMDL
MODEL 10
REMARK VINA RESULT:      -9.4      4.107      6.808
REMARK  6 active torsions:
REMARK  status: ('A' for Active; 'I' for Inactive)
REMARK    1  A    between atoms: N_9  and  C_10 
REMARK    2  A    between atoms: C_10  and  C_11 
REMARK       I    between atoms: C_11  and  N_12 
REMARK    3  A    between atoms: N_12  and  C_13 
REMARK    4  A    between atoms: C_14  and  C_15 
REMARK       I    between atoms: C_15  and  N_16 
REMARK    5  A    between atoms: N_16  and  C_17 
REMARK    6  A    between atoms: C_17  and  C_18 
ROOT
HETATM    1  C   UNL     1      -9.036   4.127 -30.937  1.00  0.00     0.240 C 
HETATM    2  N   UNL     1      -9.257   5.258 -31.705  1.00  0.00    -0.325 N 
HETATM    3  O   UNL     1      -9.923   3.432 -30.443  1.00  0.00    -0.271 OA
HETATM    4  H   UNL     1      -8.536   5.441 -32.395  1.00  0.00     0.169 HD
ENDROOT
BRANCH   1   5
HETATM    5  C   UNL     1      -7.550   3.772 -30.824  1.00  0.00     0.240 C 
BRANCH   5   6
HETATM    6  N   UNL     1      -7.214   2.846 -31.872  1.00  0.00    -0.259 N 
HETATM    7  C   UNL     1      -6.681   3.244 -33.057  1.00  0.00     0.326 C 
HETATM    8  N   UNL     1      -6.380   2.130 -33.792  1.00  0.00    -0.320 N 
HETATM    9  O   UNL     1      -6.514   4.395 -33.420  1.00  0.00    -0.247 OA
HETATM   10  C   UNL     1      -6.885   0.915 -33.193  1.00  0.00     0.144 C 
HETATM   11  H   UNL     1      -5.900   2.199 -34.679  1.00  0.00     0.165 HD
HETATM   12  C   UNL     1      -5.807  -0.149 -33.101  1.00  0.00    -0.014 A 
HETATM   13  C   UNL     1      -7.359   1.487 -31.835  1.00  0.00     0.261 C 
HETATM   14  C   UNL     1      -8.126   0.437 -33.970  1.00  0.00     0.047 C 
HETATM   15  C   UNL     1      -5.784  -1.229 -34.012  1.00  0.00    -0.049 A 
HETATM   16  C   UNL     1      -4.793  -0.067 -32.128  1.00  0.00     0.011 A 
HETATM   17  C   UNL     1      -4.787  -2.212 -33.900  1.00  0.00     0.007 A 
HETATM   18  C   UNL     1      -6.846  -1.414 -35.071  1.00  0.00     0.039 C 
HETATM   19  C   UNL     1      -3.809  -2.126 -32.913  1.00  0.00     0.001 A 
HETATM   20  C   UNL     1      -3.810  -1.053 -32.030  1.00  0.00     0.001 A 
HETATM   21  C   UNL     1      -7.712  -0.181 -35.301  1.00  0.00     0.008 C 
HETATM   22  O   UNL     1      -7.855   0.852 -30.913  1.00  0.00    -0.270 OA
ENDBRANCH   5   6
ENDBRANCH   1   5
BRANCH   2  23
HETATM   23  C   UNL     1     -10.531   5.787 -32.019  1.00  0.00     0.050 A 
HETATM   24  C   UNL     1     -11.310   5.508 -33.157  1.00  0.00     0.058 A 
HETATM   25  C   UNL     1     -12.591   6.093 -33.268  1.00  0.00     0.019 A 
HETATM   26  C   UNL     1     -13.101   6.932 -32.280  1.00  0.00     0.001 A 
HETATM   27  C   UNL     1     -12.347   7.182 -31.144  1.00  0.00     0.002 A 
HETATM   28  C   UNL     1     -11.083   6.603 -31.010  1.00  0.00     0.030 A 
BRANCH  24  29
HETATM   29  C   UNL     1     -11.055   4.484 -34.209  1.00  0.00     0.254 C 
HETATM   30  N   UNL     1     -12.104   4.107 -35.003  1.00  0.00    -0.351 N 
HETATM   31  H   UNL     1     -12.984   4.614 -34.931  1.00  0.00     0.163 HD
HETATM   32  O   UNL     1      -9.963   3.920 -34.225  1.00  0.00    -0.268 OA
BRANCH  30  33
HETATM   33  C   UNL     1     -12.103   2.860 -35.737  1.00  0.00     0.187 C 
BRANCH  33  34
HETATM   34  C   UNL     1     -12.663   1.735 -34.948  1.00  0.00     0.070 A 
HETATM   35  O   UNL     1     -14.013   1.541 -35.048  1.00  0.00    -0.325 OA
HETATM   36  C   UNL     1     -14.339   0.540 -34.190  1.00  0.00     0.142 A 
HETATM   37  C   UNL     1     -13.217   0.073 -33.547  1.00  0.00     0.027 A 
HETATM   38  C   UNL     1     -12.136   0.847 -34.033  1.00  0.00     0.036 A 
ENDBRANCH  33  34
ENDBRANCH  30  33
ENDBRANCH  24  29
ENDBRANCH   2  23
TORSDOF 6
ENDMDL
