MODEL 1
REMARK VINA RESULT:      -9.6      0.000      0.000
REMARK  4 active torsions:
REMARK  status: ('A' for Active; 'I' for Inactive)
REMARK    1  A    between atoms: C_4  and  N_5 
REMARK       I    between atoms: N_5  and  C_6 
REMARK       I    between atoms: C_6  and  N_7 
REMARK    2  A    between atoms: N_7  and  C_8 
REMARK    3  A    between atoms: C_8  and  C_9 
REMARK       I    between atoms: C_9  and  N_10 
REMARK    4  A    between atoms: N_10  and  C_11 
ROOT
HETATM    1  N   UNL     1      -3.996   1.800 -31.396  1.00  0.00    -0.307 N 
HETATM    2  C   UNL     1      -3.274   2.839 -31.921  1.00  0.00     0.321 C 
HETATM    3  N   UNL     1      -3.396   3.968 -31.142  1.00  0.00    -0.334 N 
HETATM    4  O   UNL     1      -2.581   2.812 -32.931  1.00  0.00    -0.247 OA
HETATM    5  H   UNL     1      -4.109   1.796 -30.386  1.00  0.00     0.170 HD
HETATM    6  H   UNL     1      -4.312   4.099 -30.733  1.00  0.00     0.164 HD
ENDROOT
BRANCH   3   7
HETATM    7  C   UNL     1      -2.690   5.170 -31.536  1.00  0.00     0.227 C 
BRANCH   7   8
HETATM    8  C   UNL     1      -1.526   5.463 -30.585  1.00  0.00     0.239 C 
HETATM    9  N   UNL     1      -1.768   6.543 -29.765  1.00  0.00    -0.324 N 
HETATM   10  H   UNL     1      -2.726   6.905 -29.730  1.00  0.00     0.169 HD
HETATM   11  O   UNL     1      -0.535   4.736 -30.563  1.00  0.00    -0.271 OA
BRANCH   9  12
HETATM   12  C   UNL     1      -0.905   7.171 -28.838  1.00  0.00     0.064 A 
HETATM   13  C   UNL     1      -1.462   7.474 -27.584  1.00  0.00     0.093 A 
HETATM   14  C   UNL     1      -0.651   8.112 -26.622  1.00  0.00    -0.005 A 
HETATM   15  N   UNL     1      -2.755   7.161 -27.323  1.00  0.00    -0.258 NA
HETATM   16  C   UNL     1      -1.212   8.415 -25.374  1.00  0.00     0.015 A 
HETATM   17  C   UNL     1       0.681   8.438 -26.923  1.00  0.00     0.014 A 
HETATM   18  C   UNL     1      -2.536   8.087 -25.111  1.00  0.00     0.020 A 
HETATM   19  C   UNL     1      -3.259   7.465 -26.108  1.00  0.00     0.117 A 
HETATM   20  C   UNL     1       1.212   8.135 -28.173  1.00  0.00     0.003 A 
HETATM   21  C   UNL     1       0.421   7.505 -29.132  1.00  0.00     0.032 A 
ENDBRANCH   9  12
ENDBRANCH   7   8
ENDBRANCH   3   7
BRANCH   1  22
HETATM   22  C   UNL     1      -4.219   0.536 -31.995  1.00  0.00     0.066 A 
HETATM   23  C   UNL     1      -3.500  -0.604 -31.616  1.00  0.00     0.038 A 
HETATM   24  C   UNL     1      -3.719  -1.826 -32.258  1.00  0.00    -0.059 A 
HETATM   25  C   UNL     1      -2.955  -3.050 -31.847  1.00  0.00     0.048 C 
HETATM   26  C   UNL     1      -4.697  -1.899 -33.254  1.00  0.00     0.020 A 
HETATM   27  C   UNL     1      -5.422  -0.757 -33.636  1.00  0.00    -0.005 A 
HETATM   28  C   UNL     1      -5.177   0.487 -33.018  1.00  0.00     0.093 A 
HETATM   29  C   UNL     1      -6.407  -0.818 -34.632  1.00  0.00     0.015 A 
HETATM   30  N   UNL     1      -5.854   1.608 -33.373  1.00  0.00    -0.258 NA
HETATM   31  C   UNL     1      -6.797   1.505 -34.335  1.00  0.00     0.117 A 
HETATM   32  C   UNL     1      -7.109   0.328 -34.986  1.00  0.00     0.020 A 
ENDBRANCH   1  22
TORSDOF 4
ENDMDL
MODEL 2
REMARK VINA RESULT:      -9.6      6.352     10.194
REMARK  4 active torsions:
REMARK  status: ('A' for Active; 'I' for Inactive)
REMARK    1  A    between atoms: C_4  and  N_5 
REMARK       I    between atoms: N_5  and  C_6 
REMARK       I    between atoms: C_6  and  N_7 
REMARK    2  A    between atoms: N_7  and  C_8 
REMARK    3  A    between atoms: C_8  and  C_9 
REMARK       I    between atoms: C_9  and  N_10 
REMARK    4  A    between atoms: N_10  and  C_11 
ROOT
HETATM    1  N   UNL     1      -6.700   0.670 -34.460  1.00  0.00    -0.307 N 
HETATM    2  C   UNL     1      -7.667   1.241 -33.676  1.00  0.00     0.321 C 
HETATM    3  N   UNL     1      -7.894   2.548 -34.046  1.00  0.00    -0.334 N 
HETATM    4  O   UNL     1      -8.290   0.700 -32.771  1.00  0.00    -0.247 OA
HETATM    5  H   UNL     1      -6.625   1.022 -35.410  1.00  0.00     0.170 HD
HETATM    6  H   UNL     1      -7.067   3.052 -34.337  1.00  0.00     0.164 HD
ENDROOT
BRANCH   3   7
HETATM    7  C   UNL     1      -8.896   3.314 -33.333  1.00  0.00     0.227 C 
BRANCH   7   8
HETATM    8  C   UNL     1     -10.293   3.067 -33.911  1.00  0.00     0.239 C 
HETATM    9  N   UNL     1     -11.117   2.392 -33.037  1.00  0.00    -0.324 N 
HETATM   10  H   UNL     1     -10.804   2.301 -32.066  1.00  0.00     0.169 HD
HETATM   11  O   UNL     1     -10.602   3.504 -35.017  1.00  0.00    -0.271 OA
BRANCH   9  12
HETATM   12  C   UNL     1     -12.427   1.902 -33.244  1.00  0.00     0.064 A 
HETATM   13  C   UNL     1     -13.468   2.675 -32.701  1.00  0.00     0.093 A 
HETATM   14  C   UNL     1     -14.796   2.227 -32.866  1.00  0.00    -0.005 A 
HETATM   15  N   UNL     1     -13.185   3.815 -32.027  1.00  0.00    -0.258 NA
HETATM   16  C   UNL     1     -15.831   2.999 -32.319  1.00  0.00     0.015 A 
HETATM   17  C   UNL     1     -15.061   1.034 -33.556  1.00  0.00     0.014 A 
HETATM   18  C   UNL     1     -15.534   4.172 -31.635  1.00  0.00     0.020 A 
HETATM   19  C   UNL     1     -14.208   4.534 -31.518  1.00  0.00     0.117 A 
HETATM   20  C   UNL     1     -14.016   0.280 -34.081  1.00  0.00     0.003 A 
HETATM   21  C   UNL     1     -12.699   0.711 -33.924  1.00  0.00     0.032 A 
ENDBRANCH   9  12
ENDBRANCH   7   8
ENDBRANCH   3   7
BRANCH   1  22
HETATM   22  C   UNL     1      -6.111  -0.605 -34.282  1.00  0.00     0.066 A 
HETATM   23  C   UNL     1      -6.624  -1.755 -34.895  1.00  0.00     0.038 A 
HETATM   24  C   UNL     1      -6.039  -3.003 -34.664  1.00  0.00    -0.059 A 
HETATM   25  C   UNL     1      -6.584  -4.234 -35.327  1.00  0.00     0.048 C 
HETATM   26  C   UNL     1      -4.910  -3.078 -33.844  1.00  0.00     0.020 A 
HETATM   27  C   UNL     1      -4.391  -1.926 -33.227  1.00  0.00    -0.005 A 
HETATM   28  C   UNL     1      -5.001  -0.670 -33.428  1.00  0.00     0.093 A 
HETATM   29  C   UNL     1      -3.257  -1.988 -32.405  1.00  0.00     0.015 A 
HETATM   30  N   UNL     1      -4.528   0.457 -32.838  1.00  0.00    -0.258 NA
HETATM   31  C   UNL     1      -3.431   0.354 -32.055  1.00  0.00     0.117 A 
HETATM   32  C   UNL     1      -2.766  -0.831 -31.812  1.00  0.00     0.020 A 
ENDBRANCH   1  22
TORSDOF 4
ENDMDL
MODEL 3
REMARK VINA RESULT:      -9.5      2.980      4.307
REMARK  4 active torsions:
REMARK  status: ('A' for Active; 'I' for Inactive)
REMARK    1  A    between atoms: C_4  and  N_5 
REMARK       I    between atoms: N_5  and  C_6 
REMARK       I    between atoms: C_6  and  N_7 
REMARK    2  A    between atoms: N_7  and  C_8 
REMARK    3  A    between atoms: C_8  and  C_9 
REMARK       I    between atoms: C_9  and  N_10 
REMARK    4  A    between atoms: N_10  and  C_11 
ROOT
HETATM    1  N   UNL     1      -6.333   1.383 -30.804  1.00  0.00    -0.307 N 
HETATM    2  C   UNL     1      -5.613   2.447 -30.331  1.00  0.00     0.321 C 
HETATM    3  N   UNL     1      -6.416   3.304 -29.609  1.00  0.00    -0.334 N 
HETATM    4  O   UNL     1      -4.415   2.647 -30.482  1.00  0.00    -0.247 OA
HETATM    5  H   UNL     1      -7.129   1.093 -30.244  1.00  0.00     0.170 HD
HETATM    6  H   UNL     1      -7.355   3.404 -29.971  1.00  0.00     0.164 HD
ENDROOT
BRANCH   3   7
HETATM    7  C   UNL     1      -5.824   4.487 -29.018  1.00  0.00     0.227 C 
BRANCH   7   8
HETATM    8  C   UNL     1      -5.377   5.477 -30.098  1.00  0.00     0.239 C 
HETATM    9  N   UNL     1      -4.019   5.706 -30.078  1.00  0.00    -0.324 N 
HETATM   10  H   UNL     1      -3.441   5.079 -29.510  1.00  0.00     0.169 HD
HETATM   11  O   UNL     1      -6.184   5.936 -30.903  1.00  0.00    -0.271 OA
BRANCH   9  12
HETATM   12  C   UNL     1      -3.256   6.619 -30.843  1.00  0.00     0.064 A 
HETATM   13  C   UNL     1      -2.697   6.113 -32.029  1.00  0.00     0.093 A 
HETATM   14  C   UNL     1      -1.916   6.976 -32.827  1.00  0.00    -0.005 A 
HETATM   15  N   UNL     1      -2.905   4.821 -32.379  1.00  0.00    -0.258 NA
HETATM   16  C   UNL     1      -1.357   6.466 -34.007  1.00  0.00     0.015 A 
HETATM   17  C   UNL     1      -1.705   8.307 -32.434  1.00  0.00     0.014 A 
HETATM   18  C   UNL     1      -1.579   5.141 -34.364  1.00  0.00     0.020 A 
HETATM   19  C   UNL     1      -2.353   4.367 -33.525  1.00  0.00     0.117 A 
HETATM   20  C   UNL     1      -2.263   8.787 -31.253  1.00  0.00     0.003 A 
HETATM   21  C   UNL     1      -3.036   7.944 -30.455  1.00  0.00     0.032 A 
ENDBRANCH   9  12
ENDBRANCH   7   8
ENDBRANCH   3   7
BRANCH   1  22
HETATM   22  C   UNL     1      -5.876   0.383 -31.696  1.00  0.00     0.066 A 
HETATM   23  C   UNL     1      -4.797  -0.454 -31.387  1.00  0.00     0.038 A 
HETATM   24  C   UNL     1      -4.349  -1.403 -32.310  1.00  0.00    -0.059 A 
HETATM   25  C   UNL     1      -3.198  -2.306 -31.976  1.00  0.00     0.048 C 
HETATM   26  C   UNL     1      -5.022  -1.531 -33.528  1.00  0.00     0.020 A 
HETATM   27  C   UNL     1      -6.106  -0.694 -33.842  1.00  0.00    -0.005 A 
HETATM   28  C   UNL     1      -6.538   0.292 -32.929  1.00  0.00     0.093 A 
HETATM   29  C   UNL     1      -6.791  -0.814 -35.059  1.00  0.00     0.015 A 
HETATM   30  N   UNL     1      -7.575   1.120 -33.209  1.00  0.00    -0.258 NA
HETATM   31  C   UNL     1      -8.210   0.969 -34.392  1.00  0.00     0.117 A 
HETATM   32  C   UNL     1      -7.861   0.027 -35.340  1.00  0.00     0.020 A 
ENDBRANCH   1  22
TORSDOF 4
ENDMDL
MODEL 4
REMARK VINA RESULT:      -9.5      2.924      4.910
REMARK  4 active torsions:
REMARK  status: ('A' for Active; 'I' for Inactive)
REMARK    1  A    between atoms: C_4  and  N_5 
REMARK       I    between atoms: N_5  and  C_6 
REMARK       I    between atoms: C_6  and  N_7 
REMARK    2  A    between atoms: N_7  and  C_8 
REMARK    3  A    between atoms: C_8  and  C_9 
REMARK       I    between atoms: C_9  and  N_10 
REMARK    4  A    between atoms: N_10  and  C_11 
ROOT
HETATM    1  N   UNL     1      -5.993   1.918 -30.687  1.00  0.00    -0.307 N 
HETATM    2  C   UNL     1      -6.308   3.226 -30.430  1.00  0.00     0.321 C 
HETATM    3  N   UNL     1      -5.586   3.706 -29.360  1.00  0.00    -0.334 N 
HETATM    4  O   UNL     1      -7.100   3.924 -31.051  1.00  0.00    -0.247 OA
HETATM    5  H   UNL     1      -5.048   1.627 -30.451  1.00  0.00     0.170 HD
HETATM    6  H   UNL     1      -5.431   3.032 -28.622  1.00  0.00     0.164 HD
ENDROOT
BRANCH   3   7
HETATM    7  C   UNL     1      -5.778   5.081 -28.946  1.00  0.00     0.227 C 
BRANCH   7   8
HETATM    8  C   UNL     1      -4.820   6.019 -29.688  1.00  0.00     0.239 C 
HETATM    9  N   UNL     1      -3.695   5.372 -30.150  1.00  0.00    -0.324 N 
HETATM   10  H   UNL     1      -3.697   4.348 -30.133  1.00  0.00     0.169 HD
HETATM   11  O   UNL     1      -5.112   7.199 -29.869  1.00  0.00    -0.271 OA
BRANCH   9  12
HETATM   12  C   UNL     1      -2.553   5.912 -30.785  1.00  0.00     0.064 A 
HETATM   13  C   UNL     1      -2.467   5.713 -32.173  1.00  0.00     0.093 A 
HETATM   14  C   UNL     1      -1.342   6.219 -32.858  1.00  0.00    -0.005 A 
HETATM   15  N   UNL     1      -3.445   5.038 -32.823  1.00  0.00    -0.258 NA
HETATM   16  C   UNL     1      -1.258   6.015 -34.242  1.00  0.00     0.015 A 
HETATM   17  C   UNL     1      -0.335   6.903 -32.158  1.00  0.00     0.014 A 
HETATM   18  C   UNL     1      -2.268   5.327 -34.904  1.00  0.00     0.020 A 
HETATM   19  C   UNL     1      -3.331   4.864 -34.158  1.00  0.00     0.117 A 
HETATM   20  C   UNL     1      -0.436   7.084 -30.782  1.00  0.00     0.003 A 
HETATM   21  C   UNL     1      -1.542   6.588 -30.094  1.00  0.00     0.032 A 
ENDBRANCH   9  12
ENDBRANCH   7   8
ENDBRANCH   3   7
BRANCH   1  22
HETATM   22  C   UNL     1      -6.632   1.060 -31.615  1.00  0.00     0.066 A 
HETATM   23  C   UNL     1      -8.019   1.068 -31.803  1.00  0.00     0.038 A 
HETATM   24  C   UNL     1      -8.619   0.179 -32.699  1.00  0.00    -0.059 A 
HETATM   25  C   UNL     1     -10.104   0.193 -32.907  1.00  0.00     0.048 C 
HETATM   26  C   UNL     1      -7.806  -0.688 -33.435  1.00  0.00     0.020 A 
HETATM   27  C   UNL     1      -6.413  -0.699 -33.250  1.00  0.00    -0.005 A 
HETATM   28  C   UNL     1      -5.807   0.170 -32.319  1.00  0.00     0.093 A 
HETATM   29  C   UNL     1      -5.587  -1.562 -33.984  1.00  0.00     0.015 A 
HETATM   30  N   UNL     1      -4.466   0.176 -32.113  1.00  0.00    -0.258 NA
HETATM   31  C   UNL     1      -3.706  -0.670 -32.842  1.00  0.00     0.117 A 
HETATM   32  C   UNL     1      -4.212  -1.547 -33.781  1.00  0.00     0.020 A 
ENDBRANCH   1  22
TORSDOF 4
ENDMDL
MODEL 5
REMARK VINA RESULT:      -9.5      2.801      9.244
REMARK  4 active torsions:
REMARK  status: ('A' for Active; 'I' for Inactive)
REMARK    1  A    between atoms: C_4  and  N_5 
REMARK       I    between atoms: N_5  and  C_6 
REMARK       I    between atoms: C_6  and  N_7 
REMARK    2  A    between atoms: N_7  and  C_8 
REMARK    3  A    between atoms: C_8  and  C_9 
REMARK       I    between atoms: C_9  and  N_10 
REMARK    4  A    between atoms: N_10  and  C_11 
ROOT
HETATM    1  N   UNL     1      -4.052   4.792 -30.498  1.00  0.00    -0.307 N 
HETATM    2  C   UNL     1      -5.420   4.818 -30.551  1.00  0.00     0.321 C 
HETATM    3  N   UNL     1      -5.948   3.578 -30.269  1.00  0.00    -0.334 N 
HETATM    4  O   UNL     1      -6.125   5.790 -30.789  1.00  0.00    -0.247 OA
HETATM    5  H   UNL     1      -3.639   4.121 -29.857  1.00  0.00     0.170 HD
HETATM    6  H   UNL     1      -5.408   2.801 -30.627  1.00  0.00     0.164 HD
ENDROOT
BRANCH   3   7
HETATM    7  C   UNL     1      -7.387   3.413 -30.267  1.00  0.00     0.227 C 
BRANCH   7   8
HETATM    8  C   UNL     1      -7.816   2.289 -31.215  1.00  0.00     0.239 C 
HETATM    9  N   UNL     1      -6.786   1.851 -32.019  1.00  0.00    -0.324 N 
HETATM   10  H   UNL     1      -5.838   2.160 -31.784  1.00  0.00     0.169 HD
HETATM   11  O   UNL     1      -8.954   1.829 -31.171  1.00  0.00    -0.271 OA
BRANCH   9  12
HETATM   12  C   UNL     1      -6.816   0.911 -33.075  1.00  0.00     0.064 A 
HETATM   13  C   UNL     1      -5.854  -0.113 -33.016  1.00  0.00     0.093 A 
HETATM   14  C   UNL     1      -5.828  -1.073 -34.049  1.00  0.00    -0.005 A 
HETATM   15  N   UNL     1      -4.972  -0.156 -31.988  1.00  0.00    -0.258 NA
HETATM   16  C   UNL     1      -4.865  -2.090 -33.988  1.00  0.00     0.015 A 
HETATM   17  C   UNL     1      -6.745  -0.998 -35.109  1.00  0.00     0.014 A 
HETATM   18  C   UNL     1      -3.967  -2.132 -32.928  1.00  0.00     0.020 A 
HETATM   19  C   UNL     1      -4.061  -1.152 -31.962  1.00  0.00     0.117 A 
HETATM   20  C   UNL     1      -7.685   0.027 -35.152  1.00  0.00     0.003 A 
HETATM   21  C   UNL     1      -7.721   0.983 -34.138  1.00  0.00     0.032 A 
ENDBRANCH   9  12
ENDBRANCH   7   8
ENDBRANCH   3   7
BRANCH   1  22
HETATM   22  C   UNL     1      -3.171   5.838 -30.864  1.00  0.00     0.066 A 
HETATM   23  C   UNL     1      -2.915   6.927 -30.021  1.00  0.00     0.038 A 
HETATM   24  C   UNL     1      -2.071   7.961 -30.434  1.00  0.00    -0.059 A 
HETATM   25  C   UNL     1      -1.790   9.123 -29.527  1.00  0.00     0.048 C 
HETATM   26  C   UNL     1      -1.454   7.870 -31.685  1.00  0.00     0.020 A 
HETATM   27  C   UNL     1      -1.706   6.779 -32.534  1.00  0.00    -0.005 A 
HETATM   28  C   UNL     1      -2.588   5.751 -32.137  1.00  0.00     0.093 A 
HETATM   29  C   UNL     1      -1.092   6.674 -33.789  1.00  0.00     0.015 A 
HETATM   30  N   UNL     1      -2.858   4.691 -32.940  1.00  0.00    -0.258 NA
HETATM   31  C   UNL     1      -2.243   4.628 -34.141  1.00  0.00     0.117 A 
HETATM   32  C   UNL     1      -1.359   5.582 -34.606  1.00  0.00     0.020 A 
ENDBRANCH   1  22
TORSDOF 4
ENDMDL
MODEL 6
REMARK VINA RESULT:      -9.3      6.231     10.082
REMARK  4 active torsions:
REMARK  status: ('A' for Active; 'I' for Inactive)
REMARK    1  A    between atoms: C_4  and  N_5 
REMARK       I    between atoms: N_5  and  C_6 
REMARK       I    between atoms: C_6  and  N_7 
REMARK    2  A    between atoms: N_7  and  C_8 
REMARK    3  A    between atoms: C_8  and  C_9 
REMARK       I    between atoms: C_9  and  N_10 
REMARK    4  A    between atoms: N_10  and  C_11 
ROOT
HETATM    1  N   UNL     1      -7.472   0.150 -33.267  1.00  0.00    -0.307 N 
HETATM    2  C   UNL     1      -7.483   1.379 -33.871  1.00  0.00     0.321 C 
HETATM    3  N   UNL     1      -8.606   2.093 -33.515  1.00  0.00    -0.334 N 
HETATM    4  O   UNL     1      -6.627   1.837 -34.617  1.00  0.00    -0.247 OA
HETATM    5  H   UNL     1      -7.933   0.087 -32.365  1.00  0.00     0.170 HD
HETATM    6  H   UNL     1      -9.443   1.535 -33.410  1.00  0.00     0.164 HD
ENDROOT
BRANCH   3   7
HETATM    7  C   UNL     1      -8.786   3.427 -34.050  1.00  0.00     0.227 C 
BRANCH   7   8
HETATM    8  C   UNL     1     -10.232   3.902 -33.871  1.00  0.00     0.239 C 
HETATM    9  N   UNL     1     -10.888   3.236 -32.860  1.00  0.00    -0.324 N 
HETATM   10  H   UNL     1     -10.324   2.662 -32.227  1.00  0.00     0.169 HD
HETATM   11  O   UNL     1     -10.678   4.825 -34.550  1.00  0.00    -0.271 OA
BRANCH   9  12
HETATM   12  C   UNL     1     -12.244   3.324 -32.467  1.00  0.00     0.064 A 
HETATM   13  C   UNL     1     -13.119   2.395 -33.057  1.00  0.00     0.093 A 
HETATM   14  C   UNL     1     -14.486   2.444 -32.712  1.00  0.00    -0.005 A 
HETATM   15  N   UNL     1     -12.645   1.487 -33.944  1.00  0.00    -0.258 NA
HETATM   16  C   UNL     1     -15.355   1.518 -33.306  1.00  0.00     0.015 A 
HETATM   17  C   UNL     1     -14.953   3.404 -31.801  1.00  0.00     0.014 A 
HETATM   18  C   UNL     1     -14.862   0.585 -34.210  1.00  0.00     0.020 A 
HETATM   19  C   UNL     1     -13.512   0.608 -34.492  1.00  0.00     0.117 A 
HETATM   20  C   UNL     1     -14.072   4.319 -31.233  1.00  0.00     0.003 A 
HETATM   21  C   UNL     1     -12.719   4.282 -31.566  1.00  0.00     0.032 A 
ENDBRANCH   9  12
ENDBRANCH   7   8
ENDBRANCH   3   7
BRANCH   1  22
HETATM   22  C   UNL     1      -6.554  -0.902 -33.506  1.00  0.00     0.066 A 
HETATM   23  C   UNL     1      -6.844  -1.961 -34.375  1.00  0.00     0.038 A 
HETATM   24  C   UNL     1      -5.929  -3.001 -34.555  1.00  0.00    -0.059 A 
HETATM   25  C   UNL     1      -6.236  -4.132 -35.493  1.00  0.00     0.048 C 
HETATM   26  C   UNL     1      -4.704  -2.946 -33.886  1.00  0.00     0.020 A 
HETATM   27  C   UNL     1      -4.407  -1.884 -33.014  1.00  0.00    -0.005 A 
HETATM   28  C   UNL     1      -5.344  -0.851 -32.800  1.00  0.00     0.093 A 
HETATM   29  C   UNL     1      -3.180  -1.816 -32.339  1.00  0.00     0.015 A 
HETATM   30  N   UNL     1      -5.089   0.181 -31.957  1.00  0.00    -0.258 NA
HETATM   31  C   UNL     1      -3.893   0.211 -31.328  1.00  0.00     0.117 A 
HETATM   32  C   UNL     1      -2.916  -0.752 -31.485  1.00  0.00     0.020 A 
ENDBRANCH   1  22
TORSDOF 4
ENDMDL
MODEL 7
REMARK VINA RESULT:      -9.1      2.785      9.295
REMARK  4 active torsions:
REMARK  status: ('A' for Active; 'I' for Inactive)
REMARK    1  A    between atoms: C_4  and  N_5 
REMARK       I    between atoms: N_5  and  C_6 
REMARK       I    between atoms: C_6  and  N_7 
REMARK    2  A    between atoms: N_7  and  C_8 
REMARK    3  A    between atoms: C_8  and  C_9 
REMARK       I    between atoms: C_9  and  N_10 
REMARK    4  A    between atoms: N_10  and  C_11 
ROOT
HETATM    1  N   UNL     1      -4.102   4.416 -30.787  1.00  0.00    -0.307 N 
HETATM    2  C   UNL     1      -5.468   4.320 -30.818  1.00  0.00     0.321 C 
HETATM    3  N   UNL     1      -5.910   3.313 -29.988  1.00  0.00    -0.334 N 
HETATM    4  O   UNL     1      -6.237   5.021 -31.462  1.00  0.00    -0.247 OA
HETATM    5  H   UNL     1      -3.651   4.145 -29.918  1.00  0.00     0.170 HD
HETATM    6  H   UNL     1      -5.310   2.499 -29.959  1.00  0.00     0.164 HD
ENDROOT
BRANCH   3   7
HETATM    7  C   UNL     1      -7.333   3.068 -29.881  1.00  0.00     0.227 C 
BRANCH   7   8
HETATM    8  C   UNL     1      -7.821   2.150 -31.006  1.00  0.00     0.239 C 
HETATM    9  N   UNL     1      -6.784   1.557 -31.694  1.00  0.00    -0.324 N 
HETATM   10  H   UNL     1      -5.847   1.623 -31.287  1.00  0.00     0.169 HD
HETATM   11  O   UNL     1      -9.021   1.957 -31.184  1.00  0.00    -0.271 OA
BRANCH   9  12
HETATM   12  C   UNL     1      -6.832   0.736 -32.844  1.00  0.00     0.064 A 
HETATM   13  C   UNL     1      -5.865  -0.282 -32.915  1.00  0.00     0.093 A 
HETATM   14  C   UNL     1      -5.856  -1.125 -34.046  1.00  0.00    -0.005 A 
HETATM   15  N   UNL     1      -4.963  -0.431 -31.915  1.00  0.00    -0.258 NA
HETATM   16  C   UNL     1      -4.888  -2.137 -34.114  1.00  0.00     0.015 A 
HETATM   17  C   UNL     1      -6.793  -0.941 -35.074  1.00  0.00     0.014 A 
HETATM   18  C   UNL     1      -3.969  -2.288 -33.082  1.00  0.00     0.020 A 
HETATM   19  C   UNL     1      -4.048  -1.419 -32.014  1.00  0.00     0.117 A 
HETATM   20  C   UNL     1      -7.739   0.077 -34.988  1.00  0.00     0.003 A 
HETATM   21  C   UNL     1      -7.757   0.917 -33.876  1.00  0.00     0.032 A 
ENDBRANCH   9  12
ENDBRANCH   7   8
ENDBRANCH   3   7
BRANCH   1  22
HETATM   22  C   UNL     1      -3.293   5.236 -31.611  1.00  0.00     0.066 A 
HETATM   23  C   UNL     1      -2.808   4.799 -32.850  1.00  0.00     0.038 A 
HETATM   24  C   UNL     1      -1.980   5.621 -33.618  1.00  0.00    -0.059 A 
HETATM   25  C   UNL     1      -1.468   5.157 -34.949  1.00  0.00     0.048 C 
HETATM   26  C   UNL     1      -1.677   6.902 -33.147  1.00  0.00     0.020 A 
HETATM   27  C   UNL     1      -2.162   7.346 -31.905  1.00  0.00    -0.005 A 
HETATM   28  C   UNL     1      -2.968   6.504 -31.109  1.00  0.00     0.093 A 
HETATM   29  C   UNL     1      -1.868   8.629 -31.424  1.00  0.00     0.015 A 
HETATM   30  N   UNL     1      -3.442   6.902 -29.902  1.00  0.00    -0.258 NA
HETATM   31  C   UNL     1      -3.137   8.147 -29.476  1.00  0.00     0.117 A 
HETATM   32  C   UNL     1      -2.364   9.040 -30.192  1.00  0.00     0.020 A 
ENDBRANCH   1  22
TORSDOF 4
ENDMDL
MODEL 8
REMARK VINA RESULT:      -9.1      2.749      3.984
REMARK  4 active torsions:
REMARK  status: ('A' for Active; 'I' for Inactive)
REMARK    1  A    between atoms: C_4  and  N_5 
REMARK       I    between atoms: N_5  and  C_6 
REMARK       I    between atoms: C_6  and  N_7 
REMARK    2  A    between atoms: N_7  and  C_8 
REMARK    3  A    between atoms: C_8  and  C_9 
REMARK       I    between atoms: C_9  and  N_10 
REMARK    4  A    between atoms: N_10  and  C_11 
ROOT
HETATM    1  N   UNL     1      -5.079   3.162 -32.930  1.00  0.00    -0.307 N 
HETATM    2  C   UNL     1      -4.867   4.254 -33.730  1.00  0.00     0.321 C 
HETATM    3  N   UNL     1      -3.538   4.616 -33.728  1.00  0.00    -0.334 N 
HETATM    4  O   UNL     1      -5.706   4.849 -34.394  1.00  0.00    -0.247 OA
HETATM    5  H   UNL     1      -4.304   2.512 -32.840  1.00  0.00     0.170 HD
HETATM    6  H   UNL     1      -3.072   4.499 -32.838  1.00  0.00     0.164 HD
ENDROOT
BRANCH   3   7
HETATM    7  C   UNL     1      -3.119   5.747 -34.530  1.00  0.00     0.227 C 
BRANCH   7   8
HETATM    8  C   UNL     1      -2.371   6.778 -33.680  1.00  0.00     0.239 C 
HETATM    9  N   UNL     1      -2.647   6.659 -32.335  1.00  0.00    -0.324 N 
HETATM   10  H   UNL     1      -3.139   5.816 -32.026  1.00  0.00     0.169 HD
HETATM   11  O   UNL     1      -1.577   7.561 -34.197  1.00  0.00    -0.271 OA
BRANCH   9  12
HETATM   12  C   UNL     1      -2.231   7.481 -31.263  1.00  0.00     0.064 A 
HETATM   13  C   UNL     1      -1.260   6.933 -30.406  1.00  0.00     0.093 A 
HETATM   14  C   UNL     1      -0.817   7.704 -29.311  1.00  0.00    -0.005 A 
HETATM   15  N   UNL     1      -0.780   5.688 -30.635  1.00  0.00    -0.258 NA
HETATM   16  C   UNL     1       0.148   7.153 -28.457  1.00  0.00     0.015 A 
HETATM   17  C   UNL     1      -1.342   8.987 -29.088  1.00  0.00     0.014 A 
HETATM   18  C   UNL     1       0.642   5.877 -28.700  1.00  0.00     0.020 A 
HETATM   19  C   UNL     1       0.152   5.192 -29.793  1.00  0.00     0.117 A 
HETATM   20  C   UNL     1      -2.307   9.509 -29.945  1.00  0.00     0.003 A 
HETATM   21  C   UNL     1      -2.754   8.757 -31.030  1.00  0.00     0.032 A 
ENDBRANCH   9  12
ENDBRANCH   7   8
ENDBRANCH   3   7
BRANCH   1  22
HETATM   22  C   UNL     1      -6.331   2.600 -32.580  1.00  0.00     0.066 A 
HETATM   23  C   UNL     1      -7.226   3.252 -31.723  1.00  0.00     0.038 A 
HETATM   24  C   UNL     1      -8.436   2.648 -31.369  1.00  0.00    -0.059 A 
HETATM   25  C   UNL     1      -9.399   3.349 -30.458  1.00  0.00     0.048 C 
HETATM   26  C   UNL     1      -8.754   1.403 -31.917  1.00  0.00     0.020 A 
HETATM   27  C   UNL     1      -7.859   0.745 -32.779  1.00  0.00    -0.005 A 
HETATM   28  C   UNL     1      -6.620   1.334 -33.109  1.00  0.00     0.093 A 
HETATM   29  C   UNL     1      -8.168  -0.503 -33.338  1.00  0.00     0.015 A 
HETATM   30  N   UNL     1      -5.732   0.719 -33.930  1.00  0.00    -0.258 NA
HETATM   31  C   UNL     1      -6.070  -0.481 -34.450  1.00  0.00     0.117 A 
HETATM   32  C   UNL     1      -7.263  -1.126 -34.188  1.00  0.00     0.020 A 
ENDBRANCH   1  22
TORSDOF 4
ENDMDL
MODEL 9
REMARK VINA RESULT:      -9.1      2.275      3.626
REMARK  4 active torsions:
REMARK  status: ('A' for Active; 'I' for Inactive)
REMARK    1  A    between atoms: C_4  and  N_5 
REMARK       I    between atoms: N_5  and  C_6 
REMARK       I    between atoms: C_6  and  N_7 
REMARK    2  A    between atoms: N_7  and  C_8 
REMARK    3  A    between atoms: C_8  and  C_9 
REMARK       I    between atoms: C_9  and  N_10 
REMARK    4  A    between atoms: N_10  and  C_11 
ROOT
HETATM    1  N   UNL     1      -6.181   2.217 -30.914  1.00  0.00    -0.307 N 
HETATM    2  C   UNL     1      -6.312   3.577 -31.004  1.00  0.00     0.321 C 
HETATM    3  N   UNL     1      -5.725   4.201 -29.926  1.00  0.00    -0.334 N 
HETATM    4  O   UNL     1      -6.849   4.203 -31.909  1.00  0.00    -0.247 OA
HETATM    5  H   UNL     1      -5.358   1.875 -30.427  1.00  0.00     0.170 HD
HETATM    6  H   UNL     1      -5.823   3.705 -29.049  1.00  0.00     0.164 HD
ENDROOT
BRANCH   3   7
HETATM    7  C   UNL     1      -5.753   5.648 -29.853  1.00  0.00     0.227 C 
BRANCH   7   8
HETATM    8  C   UNL     1      -4.535   6.259 -30.550  1.00  0.00     0.239 C 
HETATM    9  N   UNL     1      -3.352   5.659 -30.177  1.00  0.00    -0.324 N 
HETATM   10  H   UNL     1      -3.412   4.781 -29.654  1.00  0.00     0.169 HD
HETATM   11  O   UNL     1      -4.671   7.147 -31.389  1.00  0.00    -0.271 OA
BRANCH   9  12
HETATM   12  C   UNL     1      -2.026   6.007 -30.525  1.00  0.00     0.064 A 
HETATM   13  C   UNL     1      -1.308   6.737 -29.562  1.00  0.00     0.093 A 
HETATM   14  C   UNL     1       0.016   7.123 -29.860  1.00  0.00    -0.005 A 
HETATM   15  N   UNL     1      -1.893   7.064 -28.385  1.00  0.00    -0.258 NA
HETATM   16  C   UNL     1       0.727   7.854 -28.898  1.00  0.00     0.015 A 
HETATM   17  C   UNL     1       0.593   6.783 -31.093  1.00  0.00     0.014 A 
HETATM   18  C   UNL     1       0.124   8.182 -27.690  1.00  0.00     0.020 A 
HETATM   19  C   UNL     1      -1.175   7.766 -27.482  1.00  0.00     0.117 A 
HETATM   20  C   UNL     1      -0.137   6.064 -32.035  1.00  0.00     0.003 A 
HETATM   21  C   UNL     1      -1.447   5.678 -31.754  1.00  0.00     0.032 A 
ENDBRANCH   9  12
ENDBRANCH   7   8
ENDBRANCH   3   7
BRANCH   1  22
HETATM   22  C   UNL     1      -6.777   1.252 -31.762  1.00  0.00     0.066 A 
HETATM   23  C   UNL     1      -8.164   1.174 -31.943  1.00  0.00     0.038 A 
HETATM   24  C   UNL     1      -8.718   0.183 -32.757  1.00  0.00    -0.059 A 
HETATM   25  C   UNL     1     -10.203   0.105 -32.958  1.00  0.00     0.048 C 
HETATM   26  C   UNL     1      -7.864  -0.702 -33.419  1.00  0.00     0.020 A 
HETATM   27  C   UNL     1      -6.472  -0.628 -33.242  1.00  0.00    -0.005 A 
HETATM   28  C   UNL     1      -5.910   0.347 -32.391  1.00  0.00     0.093 A 
HETATM   29  C   UNL     1      -5.604  -1.508 -33.903  1.00  0.00     0.015 A 
HETATM   30  N   UNL     1      -4.570   0.437 -32.193  1.00  0.00    -0.258 NA
HETATM   31  C   UNL     1      -3.769  -0.429 -32.852  1.00  0.00     0.117 A 
HETATM   32  C   UNL     1      -4.232  -1.408 -33.709  1.00  0.00     0.020 A 
ENDBRANCH   1  22
TORSDOF 4
ENDMDL
MODEL 10
REMARK VINA RESULT:      -9.0      1.527      2.023
REMARK  4 active torsions:
REMARK  status: ('A' for Active; 'I' for Inactive)
REMARK    1  A    between atoms: C_4  and  N_5 
REMARK       I    between atoms: N_5  and  C_6 
REMARK       I    between atoms: C_6  and  N_7 
REMARK    2  A    between atoms: N_7  and  C_8 
REMARK    3  A    between atoms: C_8  and  C_9 
REMARK       I    between atoms: C_9  and  N_10 
REMARK    4  A    between atoms: N_10  and  C_11 
ROOT
HETATM    1  N   UNL     1      -4.195   2.094 -31.379  1.00  0.00    -0.307 N 
HETATM    2  C   UNL     1      -3.374   3.099 -31.817  1.00  0.00     0.321 C 
HETATM    3  N   UNL     1      -3.559   4.245 -31.076  1.00  0.00    -0.334 N 
HETATM    4  O   UNL     1      -2.556   3.033 -32.725  1.00  0.00    -0.247 OA
HETATM    5  H   UNL     1      -4.441   2.110 -30.394  1.00  0.00     0.170 HD
HETATM    6  H   UNL     1      -4.516   4.412 -30.793  1.00  0.00     0.164 HD
ENDROOT
BRANCH   3   7
HETATM    7  C   UNL     1      -2.767   5.416 -31.388  1.00  0.00     0.227 C 
BRANCH   7   8
HETATM    8  C   UNL     1      -2.903   6.481 -30.295  1.00  0.00     0.239 C 
HETATM    9  N   UNL     1      -1.876   7.399 -30.317  1.00  0.00    -0.324 N 
HETATM   10  H   UNL     1      -1.262   7.403 -31.136  1.00  0.00     0.169 HD
HETATM   11  O   UNL     1      -3.880   6.495 -29.550  1.00  0.00    -0.271 OA
BRANCH   9  12
HETATM   12  C   UNL     1      -1.604   8.456 -29.417  1.00  0.00     0.064 A 
HETATM   13  C   UNL     1      -0.577   8.223 -28.485  1.00  0.00     0.093 A 
HETATM   14  C   UNL     1      -0.271   9.238 -27.554  1.00  0.00    -0.005 A 
HETATM   15  N   UNL     1       0.086   7.042 -28.488  1.00  0.00    -0.258 NA
HETATM   16  C   UNL     1       0.751   9.001 -26.624  1.00  0.00     0.015 A 
HETATM   17  C   UNL     1      -0.983  10.448 -27.564  1.00  0.00     0.014 A 
HETATM   18  C   UNL     1       1.432   7.790 -26.636  1.00  0.00     0.020 A 
HETATM   19  C   UNL     1       1.067   6.852 -27.580  1.00  0.00     0.117 A 
HETATM   20  C   UNL     1      -2.000  10.655 -28.491  1.00  0.00     0.003 A 
HETATM   21  C   UNL     1      -2.313   9.660 -29.416  1.00  0.00     0.032 A 
ENDBRANCH   9  12
ENDBRANCH   7   8
ENDBRANCH   3   7
BRANCH   1  22
HETATM   22  C   UNL     1      -4.380   0.828 -31.987  1.00  0.00     0.066 A 
HETATM   23  C   UNL     1      -3.641  -0.298 -31.603  1.00  0.00     0.038 A 
HETATM   24  C   UNL     1      -3.823  -1.521 -32.253  1.00  0.00    -0.059 A 
HETATM   25  C   UNL     1      -3.037  -2.729 -31.836  1.00  0.00     0.048 C 
HETATM   26  C   UNL     1      -4.784  -1.612 -33.263  1.00  0.00     0.020 A 
HETATM   27  C   UNL     1      -5.529  -0.485 -33.651  1.00  0.00    -0.005 A 
HETATM   28  C   UNL     1      -5.322   0.761 -33.024  1.00  0.00     0.093 A 
HETATM   29  C   UNL     1      -6.498  -0.565 -34.661  1.00  0.00     0.015 A 
HETATM   30  N   UNL     1      -6.019   1.868 -33.384  1.00  0.00    -0.258 NA
HETATM   31  C   UNL     1      -6.946   1.748 -34.360  1.00  0.00     0.117 A 
HETATM   32  C   UNL     1      -7.221   0.566 -35.021  1.00  0.00     0.020 A 
ENDBRANCH   1  22
TORSDOF 4
ENDMDL
