MODEL 1
REMARK VINA RESULT:      -9.2      0.000      0.000
REMARK  5 active torsions:
REMARK  status: ('A' for Active; 'I' for Inactive)
REMARK    1  A    between atoms: C_4  and  C_5 
REMARK    2  A    between atoms: C_5  and  O_6 
REMARK    3  A    between atoms: O_6  and  C_7 
REMARK    4  A    between atoms: C_8  and  N_9 
REMARK       I    between atoms: N_9  and  C_10 
REMARK       I    between atoms: C_10  and  N_11 
REMARK    5  A    between atoms: N_11  and  C_12 
ROOT
HETATM    1  C   UNL     1      -3.126   5.020 -33.243  1.00  0.00     0.037 A 
HETATM    2  C   UNL     1      -3.144   6.197 -32.486  1.00  0.00     0.052 A 
HETATM    3  C   UNL     1      -2.182   7.192 -32.701  1.00  0.00     0.046 A 
HETATM    4  C   UNL     1      -2.249   8.419 -31.967  1.00  0.00     0.099 C 
HETATM    5  N   UNL     1      -2.316   9.417 -31.376  1.00  0.00    -0.191 NA
HETATM    6  C   UNL     1      -1.172   6.993 -33.645  1.00  0.00     0.023 A 
HETATM    7  C   UNL     1      -1.134   5.809 -34.380  1.00  0.00     0.004 A 
HETATM    8  C   UNL     1      -2.115   4.832 -34.187  1.00  0.00     0.029 A 
ENDROOT
BRANCH   1   9
HETATM    9  N   UNL     1      -4.147   4.088 -33.005  1.00  0.00    -0.309 N 
HETATM   10  C   UNL     1      -5.268   3.859 -33.750  1.00  0.00     0.326 C 
HETATM   11  N   UNL     1      -6.165   2.961 -33.239  1.00  0.00    -0.291 N 
HETATM   12  O   UNL     1      -5.571   4.441 -34.791  1.00  0.00    -0.247 OA
HETATM   13  H   UNL     1      -7.031   2.989 -33.750  1.00  0.00     0.172 HD
HETATM   14  H   UNL     1      -4.136   3.580 -32.124  1.00  0.00     0.170 HD
BRANCH  11  15
HETATM   15  C   UNL     1      -6.020   2.051 -32.181  1.00  0.00     0.165 A 
HETATM   16  C   UNL     1      -5.557   0.744 -32.400  1.00  0.00     0.115 A 
HETATM   17  C   UNL     1      -5.469  -0.113 -31.296  1.00  0.00     0.042 A 
HETATM   18  C   UNL     1      -5.804   0.333 -30.027  1.00  0.00     0.022 A 
HETATM   19  C   UNL     1      -6.248   1.632 -29.901  1.00  0.00     0.119 A 
HETATM   20  N   UNL     1      -6.370   2.486 -30.942  1.00  0.00    -0.240 NA
BRANCH  16  21
HETATM   21  O   UNL     1      -5.340   0.107 -33.586  1.00  0.00    -0.343 OA
BRANCH  21  22
HETATM   22  C   UNL     1      -6.392  -0.646 -34.185  1.00  0.00     0.214 C 
BRANCH  22  23
HETATM   23  C   UNL     1      -5.951  -2.088 -34.330  1.00  0.00    -0.034 A 
HETATM   24  C   UNL     1      -4.630  -2.489 -34.062  1.00  0.00     0.009 A 
HETATM   25  C   UNL     1      -4.241  -3.822 -34.193  1.00  0.00     0.001 A 
HETATM   26  C   UNL     1      -5.166  -4.778 -34.597  1.00  0.00     0.000 A 
HETATM   27  C   UNL     1      -6.481  -4.402 -34.863  1.00  0.00     0.001 A 
HETATM   28  C   UNL     1      -6.875  -3.067 -34.723  1.00  0.00     0.009 A 
ENDBRANCH  22  23
ENDBRANCH  21  22
ENDBRANCH  16  21
ENDBRANCH  11  15
ENDBRANCH   1   9
TORSDOF 5
ENDMDL
MODEL 2
REMARK VINA RESULT:      -8.9      1.453      2.052
REMARK  5 active torsions:
REMARK  status: ('A' for Active; 'I' for Inactive)
REMARK    1  A    between atoms: C_4  and  C_5 
REMARK    2  A    between atoms: C_5  and  O_6 
REMARK    3  A    between atoms: O_6  and  C_7 
REMARK    4  A    between atoms: C_8  and  N_9 
REMARK       I    between atoms: N_9  and  C_10 
REMARK       I    between atoms: C_10  and  N_11 
REMARK    5  A    between atoms: N_11  and  C_12 
ROOT
HETATM    1  C   UNL     1      -3.062   4.698 -33.070  1.00  0.00     0.037 A 
HETATM    2  C   UNL     1      -3.021   5.933 -32.415  1.00  0.00     0.052 A 
HETATM    3  C   UNL     1      -2.169   6.949 -32.868  1.00  0.00     0.046 A 
HETATM    4  C   UNL     1      -2.184   8.230 -32.231  1.00  0.00     0.099 C 
HETATM    5  N   UNL     1      -2.209   9.272 -31.718  1.00  0.00    -0.191 NA
HETATM    6  C   UNL     1      -1.321   6.714 -33.954  1.00  0.00     0.023 A 
HETATM    7  C   UNL     1      -1.337   5.473 -34.590  1.00  0.00     0.004 A 
HETATM    8  C   UNL     1      -2.213   4.474 -34.156  1.00  0.00     0.029 A 
ENDROOT
BRANCH   1   9
HETATM    9  N   UNL     1      -3.971   3.745 -32.589  1.00  0.00    -0.309 N 
HETATM   10  C   UNL     1      -3.737   2.725 -31.712  1.00  0.00     0.326 C 
HETATM   11  N   UNL     1      -4.777   1.865 -31.486  1.00  0.00    -0.291 N 
HETATM   12  O   UNL     1      -2.660   2.473 -31.174  1.00  0.00    -0.247 OA
HETATM   13  H   UNL     1      -4.468   1.053 -30.980  1.00  0.00     0.172 HD
HETATM   14  H   UNL     1      -4.899   3.716 -33.003  1.00  0.00     0.170 HD
BRANCH  11  15
HETATM   15  C   UNL     1      -6.132   1.988 -31.827  1.00  0.00     0.165 A 
HETATM   16  C   UNL     1      -6.857   0.904 -32.345  1.00  0.00     0.115 A 
HETATM   17  C   UNL     1      -8.197   1.115 -32.690  1.00  0.00     0.042 A 
HETATM   18  C   UNL     1      -8.790   2.354 -32.496  1.00  0.00     0.022 A 
HETATM   19  C   UNL     1      -8.006   3.364 -31.980  1.00  0.00     0.119 A 
HETATM   20  N   UNL     1      -6.703   3.210 -31.655  1.00  0.00    -0.240 NA
BRANCH  16  21
HETATM   21  O   UNL     1      -6.393  -0.317 -32.741  1.00  0.00    -0.343 OA
BRANCH  21  22
HETATM   22  C   UNL     1      -6.506  -0.704 -34.108  1.00  0.00     0.214 C 
BRANCH  22  23
HETATM   23  C   UNL     1      -6.004  -2.125 -34.266  1.00  0.00    -0.034 A 
HETATM   24  C   UNL     1      -6.831  -3.152 -34.757  1.00  0.00     0.009 A 
HETATM   25  C   UNL     1      -6.352  -4.453 -34.904  1.00  0.00     0.001 A 
HETATM   26  C   UNL     1      -5.038  -4.753 -34.561  1.00  0.00     0.000 A 
HETATM   27  C   UNL     1      -4.202  -3.749 -34.077  1.00  0.00     0.001 A 
HETATM   28  C   UNL     1      -4.678  -2.440 -33.938  1.00  0.00     0.009 A 
ENDBRANCH  22  23
ENDBRANCH  21  22
ENDBRANCH  16  21
ENDBRANCH  11  15
ENDBRANCH   1   9
TORSDOF 5
ENDMDL
MODEL 3
REMARK VINA RESULT:      -8.8      2.625      7.158
REMARK  5 active torsions:
REMARK  status: ('A' for Active; 'I' for Inactive)
REMARK    1  A    between atoms: C_4  and  C_5 
REMARK    2  A    between atoms: C_5  and  O_6 
REMARK    3  A    between atoms: O_6  and  C_7 
REMARK    4  A    between atoms: C_8  and  N_9 
REMARK       I    between atoms: N_9  and  C_10 
REMARK       I    between atoms: C_10  and  N_11 
REMARK    5  A    between atoms: N_11  and  C_12 
ROOT
HETATM    1  C   UNL     1      -5.134  -0.445 -33.464  1.00  0.00     0.037 A 
HETATM    2  C   UNL     1      -4.356  -1.604 -33.367  1.00  0.00     0.052 A 
HETATM    3  C   UNL     1      -4.760  -2.785 -34.002  1.00  0.00     0.046 A 
HETATM    4  C   UNL     1      -3.924  -3.945 -33.950  1.00  0.00     0.099 C 
HETATM    5  N   UNL     1      -3.236  -4.880 -33.915  1.00  0.00    -0.191 NA
HETATM    6  C   UNL     1      -5.970  -2.821 -34.701  1.00  0.00     0.023 A 
HETATM    7  C   UNL     1      -6.763  -1.677 -34.774  1.00  0.00     0.004 A 
HETATM    8  C   UNL     1      -6.339  -0.490 -34.168  1.00  0.00     0.029 A 
ENDROOT
BRANCH   1   9
HETATM    9  N   UNL     1      -4.644   0.712 -32.841  1.00  0.00    -0.309 N 
HETATM   10  C   UNL     1      -4.436   0.927 -31.508  1.00  0.00     0.326 C 
HETATM   11  N   UNL     1      -4.049   2.188 -31.148  1.00  0.00    -0.291 N 
HETATM   12  O   UNL     1      -4.640   0.112 -30.609  1.00  0.00    -0.247 OA
HETATM   13  H   UNL     1      -4.097   2.307 -30.151  1.00  0.00     0.172 HD
HETATM   14  H   UNL     1      -4.519   1.546 -33.408  1.00  0.00     0.170 HD
BRANCH  11  15
HETATM   15  C   UNL     1      -3.599   3.250 -31.946  1.00  0.00     0.165 A 
HETATM   16  C   UNL     1      -4.429   3.844 -32.909  1.00  0.00     0.115 A 
HETATM   17  C   UNL     1      -3.896   4.879 -33.687  1.00  0.00     0.042 A 
HETATM   18  C   UNL     1      -2.595   5.315 -33.486  1.00  0.00     0.022 A 
HETATM   19  C   UNL     1      -1.849   4.678 -32.518  1.00  0.00     0.119 A 
HETATM   20  N   UNL     1      -2.316   3.661 -31.760  1.00  0.00    -0.240 NA
BRANCH  16  21
HETATM   21  O   UNL     1      -5.659   3.438 -33.337  1.00  0.00    -0.343 OA
BRANCH  21  22
HETATM   22  C   UNL     1      -6.815   3.757 -32.565  1.00  0.00     0.214 C 
BRANCH  22  23
HETATM   23  C   UNL     1      -7.820   2.630 -32.686  1.00  0.00    -0.034 A 
HETATM   24  C   UNL     1      -8.035   1.715 -31.639  1.00  0.00     0.009 A 
HETATM   25  C   UNL     1      -8.971   0.688 -31.762  1.00  0.00     0.001 A 
HETATM   26  C   UNL     1      -9.706   0.554 -32.935  1.00  0.00     0.000 A 
HETATM   27  C   UNL     1      -9.510   1.454 -33.982  1.00  0.00     0.001 A 
HETATM   28  C   UNL     1      -8.580   2.491 -33.856  1.00  0.00     0.009 A 
ENDBRANCH  22  23
ENDBRANCH  21  22
ENDBRANCH  16  21
ENDBRANCH  11  15
ENDBRANCH   1   9
TORSDOF 5
ENDMDL
MODEL 4
REMARK VINA RESULT:      -8.7      3.071      9.138
REMARK  5 active torsions:
REMARK  status: ('A' for Active; 'I' for Inactive)
REMARK    1  A    between atoms: C_4  and  C_5 
REMARK    2  A    between atoms: C_5  and  O_6 
REMARK    3  A    between atoms: O_6  and  C_7 
REMARK    4  A    between atoms: C_8  and  N_9 
REMARK       I    between atoms: N_9  and  C_10 
REMARK       I    between atoms: C_10  and  N_11 
REMARK    5  A    between atoms: N_11  and  C_12 
ROOT
HETATM    1  C   UNL     1      -5.659   0.775 -33.122  1.00  0.00     0.037 A 
HETATM    2  C   UNL     1      -4.952  -0.398 -33.406  1.00  0.00     0.052 A 
HETATM    3  C   UNL     1      -5.631  -1.559 -33.799  1.00  0.00     0.046 A 
HETATM    4  C   UNL     1      -4.892  -2.734 -34.149  1.00  0.00     0.099 C 
HETATM    5  N   UNL     1      -4.287  -3.680 -34.444  1.00  0.00    -0.191 NA
HETATM    6  C   UNL     1      -7.026  -1.560 -33.867  1.00  0.00     0.023 A 
HETATM    7  C   UNL     1      -7.737  -0.401 -33.556  1.00  0.00     0.004 A 
HETATM    8  C   UNL     1      -7.053   0.765 -33.197  1.00  0.00     0.029 A 
ENDROOT
BRANCH   1   9
HETATM    9  N   UNL     1      -4.910   1.910 -32.780  1.00  0.00    -0.309 N 
HETATM   10  C   UNL     1      -4.676   2.419 -31.534  1.00  0.00     0.326 C 
HETATM   11  N   UNL     1      -3.997   3.606 -31.480  1.00  0.00    -0.291 N 
HETATM   12  O   UNL     1      -5.085   1.945 -30.476  1.00  0.00    -0.247 OA
HETATM   13  H   UNL     1      -4.028   3.995 -30.553  1.00  0.00     0.172 HD
HETATM   14  H   UNL     1      -4.577   2.509 -33.530  1.00  0.00     0.170 HD
BRANCH  11  15
HETATM   15  C   UNL     1      -3.289   4.281 -32.485  1.00  0.00     0.165 A 
HETATM   16  C   UNL     1      -1.933   4.607 -32.331  1.00  0.00     0.115 A 
HETATM   17  C   UNL     1      -1.305   5.309 -33.368  1.00  0.00     0.042 A 
HETATM   18  C   UNL     1      -2.003   5.642 -34.519  1.00  0.00     0.022 A 
HETATM   19  C   UNL     1      -3.332   5.282 -34.588  1.00  0.00     0.119 A 
HETATM   20  N   UNL     1      -3.983   4.624 -33.603  1.00  0.00    -0.240 NA
BRANCH  16  21
HETATM   21  O   UNL     1      -1.154   4.496 -31.217  1.00  0.00    -0.343 OA
BRANCH  21  22
HETATM   22  C   UNL     1       0.080   5.208 -31.147  1.00  0.00     0.214 C 
BRANCH  22  23
HETATM   23  C   UNL     1       0.050   6.137 -29.950  1.00  0.00    -0.034 A 
HETATM   24  C   UNL     1      -0.561   7.403 -30.012  1.00  0.00     0.009 A 
HETATM   25  C   UNL     1      -0.588   8.244 -28.900  1.00  0.00     0.001 A 
HETATM   26  C   UNL     1      -0.002   7.836 -27.706  1.00  0.00     0.000 A 
HETATM   27  C   UNL     1       0.604   6.584 -27.624  1.00  0.00     0.001 A 
HETATM   28  C   UNL     1       0.622   5.735 -28.736  1.00  0.00     0.009 A 
ENDBRANCH  22  23
ENDBRANCH  21  22
ENDBRANCH  16  21
ENDBRANCH  11  15
ENDBRANCH   1   9
TORSDOF 5
ENDMDL
MODEL 5
REMARK VINA RESULT:      -8.6      1.996      2.461
REMARK  5 active torsions:
REMARK  status: ('A' for Active; 'I' for Inactive)
REMARK    1  A    between atoms: C_4  and  C_5 
REMARK    2  A    between atoms: C_5  and  O_6 
REMARK    3  A    between atoms: O_6  and  C_7 
REMARK    4  A    between atoms: C_8  and  N_9 
REMARK       I    between atoms: N_9  and  C_10 
REMARK       I    between atoms: C_10  and  N_11 
REMARK    5  A    between atoms: N_11  and  C_12 
ROOT
HETATM    1  C   UNL     1      -1.460   5.277 -31.013  1.00  0.00     0.037 A 
HETATM    2  C   UNL     1      -1.943   6.421 -30.368  1.00  0.00     0.052 A 
HETATM    3  C   UNL     1      -1.064   7.440 -29.978  1.00  0.00     0.046 A 
HETATM    4  C   UNL     1      -1.577   8.634 -29.379  1.00  0.00     0.099 C 
HETATM    5  N   UNL     1      -2.000   9.605 -28.903  1.00  0.00    -0.191 NA
HETATM    6  C   UNL     1       0.308   7.297 -30.196  1.00  0.00     0.023 A 
HETATM    7  C   UNL     1       0.796   6.144 -30.811  1.00  0.00     0.004 A 
HETATM    8  C   UNL     1      -0.087   5.145 -31.229  1.00  0.00     0.029 A 
ENDROOT
BRANCH   1   9
HETATM    9  N   UNL     1      -2.403   4.320 -31.415  1.00  0.00    -0.309 N 
HETATM   10  C   UNL     1      -2.732   3.943 -32.685  1.00  0.00     0.326 C 
HETATM   11  N   UNL     1      -3.768   3.058 -32.809  1.00  0.00    -0.291 N 
HETATM   12  O   UNL     1      -2.232   4.386 -33.718  1.00  0.00    -0.247 OA
HETATM   13  H   UNL     1      -4.059   2.978 -33.768  1.00  0.00     0.172 HD
HETATM   14  H   UNL     1      -3.008   3.916 -30.704  1.00  0.00     0.170 HD
BRANCH  11  15
HETATM   15  C   UNL     1      -4.407   2.283 -31.830  1.00  0.00     0.165 A 
HETATM   16  C   UNL     1      -4.374   0.881 -31.872  1.00  0.00     0.115 A 
HETATM   17  C   UNL     1      -5.062   0.178 -30.875  1.00  0.00     0.042 A 
HETATM   18  C   UNL     1      -5.729   0.857 -29.866  1.00  0.00     0.022 A 
HETATM   19  C   UNL     1      -5.710   2.234 -29.900  1.00  0.00     0.119 A 
HETATM   20  N   UNL     1      -5.078   2.952 -30.855  1.00  0.00    -0.240 NA
BRANCH  16  21
HETATM   21  O   UNL     1      -3.906   0.071 -32.865  1.00  0.00    -0.343 OA
BRANCH  21  22
HETATM   22  C   UNL     1      -3.644  -1.303 -32.588  1.00  0.00     0.214 C 
BRANCH  22  23
HETATM   23  C   UNL     1      -4.562  -2.164 -33.433  1.00  0.00    -0.034 A 
HETATM   24  C   UNL     1      -5.815  -1.699 -33.873  1.00  0.00     0.009 A 
HETATM   25  C   UNL     1      -6.645  -2.500 -34.656  1.00  0.00     0.001 A 
HETATM   26  C   UNL     1      -6.238  -3.782 -35.012  1.00  0.00     0.000 A 
HETATM   27  C   UNL     1      -4.999  -4.258 -34.591  1.00  0.00     0.001 A 
HETATM   28  C   UNL     1      -4.161  -3.452 -33.813  1.00  0.00     0.009 A 
ENDBRANCH  22  23
ENDBRANCH  21  22
ENDBRANCH  16  21
ENDBRANCH  11  15
ENDBRANCH   1   9
TORSDOF 5
ENDMDL
MODEL 6
REMARK VINA RESULT:      -8.5     16.074     17.747
REMARK  5 active torsions:
REMARK  status: ('A' for Active; 'I' for Inactive)
REMARK    1  A    between atoms: C_4  and  C_5 
REMARK    2  A    between atoms: C_5  and  O_6 
REMARK    3  A    between atoms: O_6  and  C_7 
REMARK    4  A    between atoms: C_8  and  N_9 
REMARK       I    between atoms: N_9  and  C_10 
REMARK       I    between atoms: C_10  and  N_11 
REMARK    5  A    between atoms: N_11  and  C_12 
ROOT
HETATM    1  C   UNL     1      -7.912 -14.333 -37.972  1.00  0.00     0.037 A 
HETATM    2  C   UNL     1      -8.490 -13.205 -38.563  1.00  0.00     0.052 A 
HETATM    3  C   UNL     1      -9.576 -13.340 -39.438  1.00  0.00     0.046 A 
HETATM    4  C   UNL     1     -10.201 -12.174 -39.985  1.00  0.00     0.099 C 
HETATM    5  N   UNL     1     -10.712 -11.225 -40.417  1.00  0.00    -0.191 NA
HETATM    6  C   UNL     1     -10.057 -14.611 -39.759  1.00  0.00     0.023 A 
HETATM    7  C   UNL     1      -9.464 -15.740 -39.195  1.00  0.00     0.004 A 
HETATM    8  C   UNL     1      -8.403 -15.599 -38.295  1.00  0.00     0.029 A 
ENDROOT
BRANCH   1   9
HETATM    9  N   UNL     1      -6.858 -14.117 -37.071  1.00  0.00    -0.309 N 
HETATM   10  C   UNL     1      -6.925 -13.618 -35.802  1.00  0.00     0.326 C 
HETATM   11  N   UNL     1      -5.731 -13.405 -35.168  1.00  0.00    -0.291 N 
HETATM   12  O   UNL     1      -7.951 -13.275 -35.218  1.00  0.00    -0.247 OA
HETATM   13  H   UNL     1      -5.862 -12.874 -34.325  1.00  0.00     0.172 HD
HETATM   14  H   UNL     1      -5.907 -14.236 -37.409  1.00  0.00     0.170 HD
BRANCH  11  15
HETATM   15  C   UNL     1      -4.442 -13.836 -35.516  1.00  0.00     0.165 A 
HETATM   16  C   UNL     1      -3.703 -13.193 -36.521  1.00  0.00     0.115 A 
HETATM   17  C   UNL     1      -2.436 -13.701 -36.831  1.00  0.00     0.042 A 
HETATM   18  C   UNL     1      -1.924 -14.790 -36.141  1.00  0.00     0.022 A 
HETATM   19  C   UNL     1      -2.716 -15.361 -35.168  1.00  0.00     0.119 A 
HETATM   20  N   UNL     1      -3.953 -14.917 -34.852  1.00  0.00    -0.240 NA
BRANCH  16  21
HETATM   21  O   UNL     1      -4.114 -12.226 -37.391  1.00  0.00    -0.343 OA
BRANCH  21  22
HETATM   22  C   UNL     1      -3.577 -12.191 -38.711  1.00  0.00     0.214 C 
BRANCH  22  23
HETATM   23  C   UNL     1      -4.572 -12.810 -39.671  1.00  0.00    -0.034 A 
HETATM   24  C   UNL     1      -4.610 -14.197 -39.904  1.00  0.00     0.009 A 
HETATM   25  C   UNL     1      -5.538 -14.754 -40.784  1.00  0.00     0.001 A 
HETATM   26  C   UNL     1      -6.443 -13.934 -41.449  1.00  0.00     0.000 A 
HETATM   27  C   UNL     1      -6.424 -12.558 -41.228  1.00  0.00     0.001 A 
HETATM   28  C   UNL     1      -5.501 -11.999 -40.338  1.00  0.00     0.009 A 
ENDBRANCH  22  23
ENDBRANCH  21  22
ENDBRANCH  16  21
ENDBRANCH  11  15
ENDBRANCH   1   9
TORSDOF 5
ENDMDL
MODEL 7
REMARK VINA RESULT:      -8.2     16.052     17.539
REMARK  5 active torsions:
REMARK  status: ('A' for Active; 'I' for Inactive)
REMARK    1  A    between atoms: C_4  and  C_5 
REMARK    2  A    between atoms: C_5  and  O_6 
REMARK    3  A    between atoms: O_6  and  C_7 
REMARK    4  A    between atoms: C_8  and  N_9 
REMARK       I    between atoms: N_9  and  C_10 
REMARK       I    between atoms: C_10  and  N_11 
REMARK    5  A    between atoms: N_11  and  C_12 
ROOT
HETATM    1  C   UNL     1      -2.227 -14.199 -38.830  1.00  0.00     0.037 A 
HETATM    2  C   UNL     1      -0.904 -14.276 -38.383  1.00  0.00     0.052 A 
HETATM    3  C   UNL     1       0.137 -14.532 -39.285  1.00  0.00     0.046 A 
HETATM    4  C   UNL     1       1.493 -14.543 -38.826  1.00  0.00     0.099 C 
HETATM    5  N   UNL     1       2.591 -14.539 -38.451  1.00  0.00    -0.191 NA
HETATM    6  C   UNL     1      -0.150 -14.757 -40.634  1.00  0.00     0.023 A 
HETATM    7  C   UNL     1      -1.471 -14.711 -41.078  1.00  0.00     0.004 A 
HETATM    8  C   UNL     1      -2.504 -14.421 -40.181  1.00  0.00     0.029 A 
ENDROOT
BRANCH   1   9
HETATM    9  N   UNL     1      -3.211 -13.894 -37.879  1.00  0.00    -0.309 N 
HETATM   10  C   UNL     1      -3.806 -12.689 -37.640  1.00  0.00     0.326 C 
HETATM   11  N   UNL     1      -4.664 -12.633 -36.576  1.00  0.00    -0.291 N 
HETATM   12  O   UNL     1      -3.579 -11.643 -38.246  1.00  0.00    -0.247 OA
HETATM   13  H   UNL     1      -4.911 -11.683 -36.362  1.00  0.00     0.172 HD
HETATM   14  H   UNL     1      -3.456 -14.608 -37.197  1.00  0.00     0.170 HD
BRANCH  11  15
HETATM   15  C   UNL     1      -5.222 -13.675 -35.819  1.00  0.00     0.165 A 
HETATM   16  C   UNL     1      -6.589 -13.984 -35.898  1.00  0.00     0.115 A 
HETATM   17  C   UNL     1      -7.075 -15.017 -35.088  1.00  0.00     0.042 A 
HETATM   18  C   UNL     1      -6.220 -15.726 -34.258  1.00  0.00     0.022 A 
HETATM   19  C   UNL     1      -4.892 -15.358 -34.243  1.00  0.00     0.119 A 
HETATM   20  N   UNL     1      -4.384 -14.353 -34.991  1.00  0.00    -0.240 NA
BRANCH  16  21
HETATM   21  O   UNL     1      -7.581 -13.295 -36.532  1.00  0.00    -0.343 OA
BRANCH  21  22
HETATM   22  C   UNL     1      -8.220 -13.868 -37.670  1.00  0.00     0.214 C 
BRANCH  22  23
HETATM   23  C   UNL     1      -7.363 -13.628 -38.897  1.00  0.00    -0.034 A 
HETATM   24  C   UNL     1      -6.799 -14.691 -39.625  1.00  0.00     0.009 A 
HETATM   25  C   UNL     1      -6.019 -14.454 -40.756  1.00  0.00     0.001 A 
HETATM   26  C   UNL     1      -5.786 -13.150 -41.179  1.00  0.00     0.000 A 
HETATM   27  C   UNL     1      -6.339 -12.084 -40.473  1.00  0.00     0.001 A 
HETATM   28  C   UNL     1      -7.131 -12.320 -39.344  1.00  0.00     0.009 A 
ENDBRANCH  22  23
ENDBRANCH  21  22
ENDBRANCH  16  21
ENDBRANCH  11  15
ENDBRANCH   1   9
TORSDOF 5
ENDMDL
MODEL 8
REMARK VINA RESULT:      -7.9     16.122     17.744
REMARK  5 active torsions:
REMARK  status: ('A' for Active; 'I' for Inactive)
REMARK    1  A    between atoms: C_4  and  C_5 
REMARK    2  A    between atoms: C_5  and  O_6 
REMARK    3  A    between atoms: O_6  and  C_7 
REMARK    4  A    between atoms: C_8  and  N_9 
REMARK       I    between atoms: N_9  and  C_10 
REMARK       I    between atoms: C_10  and  N_11 
REMARK    5  A    between atoms: N_11  and  C_12 
ROOT
HETATM    1  C   UNL     1      -2.231 -14.578 -38.623  1.00  0.00     0.037 A 
HETATM    2  C   UNL     1      -0.878 -14.409 -38.308  1.00  0.00     0.052 A 
HETATM    3  C   UNL     1       0.116 -14.792 -39.217  1.00  0.00     0.046 A 
HETATM    4  C   UNL     1       1.493 -14.553 -38.912  1.00  0.00     0.099 C 
HETATM    5  N   UNL     1       2.609 -14.347 -38.663  1.00  0.00    -0.191 NA
HETATM    6  C   UNL     1      -0.242 -15.389 -40.429  1.00  0.00     0.023 A 
HETATM    7  C   UNL     1      -1.588 -15.588 -40.734  1.00  0.00     0.004 A 
HETATM    8  C   UNL     1      -2.578 -15.172 -39.838  1.00  0.00     0.029 A 
ENDROOT
BRANCH   1   9
HETATM    9  N   UNL     1      -3.171 -14.129 -37.684  1.00  0.00    -0.309 N 
HETATM   10  C   UNL     1      -3.555 -12.845 -37.426  1.00  0.00     0.326 C 
HETATM   11  N   UNL     1      -4.417 -12.666 -36.379  1.00  0.00    -0.291 N 
HETATM   12  O   UNL     1      -3.136 -11.840 -37.999  1.00  0.00    -0.247 OA
HETATM   13  H   UNL     1      -4.501 -11.691 -36.145  1.00  0.00     0.172 HD
HETATM   14  H   UNL     1      -3.552 -14.805 -37.027  1.00  0.00     0.170 HD
BRANCH  11  15
HETATM   15  C   UNL     1      -5.165 -13.611 -35.662  1.00  0.00     0.165 A 
HETATM   16  C   UNL     1      -6.377 -14.114 -36.159  1.00  0.00     0.115 A 
HETATM   17  C   UNL     1      -7.080 -15.032 -35.370  1.00  0.00     0.042 A 
HETATM   18  C   UNL     1      -6.572 -15.447 -34.148  1.00  0.00     0.022 A 
HETATM   19  C   UNL     1      -5.374 -14.905 -33.736  1.00  0.00     0.119 A 
HETATM   20  N   UNL     1      -4.673 -14.000 -34.455  1.00  0.00    -0.240 NA
BRANCH  16  21
HETATM   21  O   UNL     1      -7.085 -13.699 -37.249  1.00  0.00    -0.343 OA
BRANCH  21  22
HETATM   22  C   UNL     1      -7.750 -14.661 -38.065  1.00  0.00     0.214 C 
BRANCH  22  23
HETATM   23  C   UNL     1      -8.794 -13.961 -38.910  1.00  0.00    -0.034 A 
HETATM   24  C   UNL     1      -8.775 -12.567 -39.105  1.00  0.00     0.009 A 
HETATM   25  C   UNL     1      -9.739 -11.938 -39.892  1.00  0.00     0.001 A 
HETATM   26  C   UNL     1     -10.741 -12.689 -40.497  1.00  0.00     0.000 A 
HETATM   27  C   UNL     1     -10.773 -14.071 -40.320  1.00  0.00     0.001 A 
HETATM   28  C   UNL     1      -9.802 -14.705 -39.539  1.00  0.00     0.009 A 
ENDBRANCH  22  23
ENDBRANCH  21  22
ENDBRANCH  16  21
ENDBRANCH  11  15
ENDBRANCH   1   9
TORSDOF 5
ENDMDL
MODEL 9
REMARK VINA RESULT:      -7.8     16.676     18.878
REMARK  5 active torsions:
REMARK  status: ('A' for Active; 'I' for Inactive)
REMARK    1  A    between atoms: C_4  and  C_5 
REMARK    2  A    between atoms: C_5  and  O_6 
REMARK    3  A    between atoms: O_6  and  C_7 
REMARK    4  A    between atoms: C_8  and  N_9 
REMARK       I    between atoms: N_9  and  C_10 
REMARK       I    between atoms: C_10  and  N_11 
REMARK    5  A    between atoms: N_11  and  C_12 
ROOT
HETATM    1  C   UNL     1      -7.181 -13.762 -40.022  1.00  0.00     0.037 A 
HETATM    2  C   UNL     1      -8.111 -12.839 -40.513  1.00  0.00     0.052 A 
HETATM    3  C   UNL     1      -9.355 -12.684 -39.889  1.00  0.00     0.046 A 
HETATM    4  C   UNL     1     -10.271 -11.690 -40.360  1.00  0.00     0.099 C 
HETATM    5  N   UNL     1     -11.005 -10.874 -40.740  1.00  0.00    -0.191 NA
HETATM    6  C   UNL     1      -9.690 -13.486 -38.795  1.00  0.00     0.023 A 
HETATM    7  C   UNL     1      -8.778 -14.429 -38.321  1.00  0.00     0.004 A 
HETATM    8  C   UNL     1      -7.524 -14.557 -38.926  1.00  0.00     0.029 A 
ENDROOT
BRANCH   1   9
HETATM    9  N   UNL     1      -5.939 -13.831 -40.670  1.00  0.00    -0.309 N 
HETATM   10  C   UNL     1      -4.828 -13.070 -40.443  1.00  0.00     0.326 C 
HETATM   11  N   UNL     1      -3.772 -13.266 -41.290  1.00  0.00    -0.291 N 
HETATM   12  O   UNL     1      -4.726 -12.182 -39.599  1.00  0.00    -0.247 OA
HETATM   13  H   UNL     1      -3.077 -12.550 -41.170  1.00  0.00     0.172 HD
HETATM   14  H   UNL     1      -5.856 -14.435 -41.484  1.00  0.00     0.170 HD
BRANCH  11  15
HETATM   15  C   UNL     1      -3.548 -14.292 -42.221  1.00  0.00     0.165 A 
HETATM   16  C   UNL     1      -2.642 -15.331 -41.959  1.00  0.00     0.115 A 
HETATM   17  C   UNL     1      -2.451 -16.300 -42.951  1.00  0.00     0.042 A 
HETATM   18  C   UNL     1      -3.161 -16.242 -44.141  1.00  0.00     0.022 A 
HETATM   19  C   UNL     1      -4.032 -15.188 -44.316  1.00  0.00     0.119 A 
HETATM   20  N   UNL     1      -4.231 -14.219 -43.395  1.00  0.00    -0.240 NA
BRANCH  16  21
HETATM   21  O   UNL     1      -1.760 -15.449 -40.925  1.00  0.00    -0.343 OA
BRANCH  21  22
HETATM   22  C   UNL     1      -2.106 -16.241 -39.792  1.00  0.00     0.214 C 
BRANCH  22  23
HETATM   23  C   UNL     1      -2.581 -15.332 -38.676  1.00  0.00    -0.034 A 
HETATM   24  C   UNL     1      -1.846 -14.199 -38.281  1.00  0.00     0.009 A 
HETATM   25  C   UNL     1      -2.301 -13.368 -37.258  1.00  0.00     0.001 A 
HETATM   26  C   UNL     1      -3.496 -13.656 -36.609  1.00  0.00     0.000 A 
HETATM   27  C   UNL     1      -4.240 -14.771 -36.988  1.00  0.00     0.001 A 
HETATM   28  C   UNL     1      -3.791 -15.600 -38.021  1.00  0.00     0.009 A 
ENDBRANCH  22  23
ENDBRANCH  21  22
ENDBRANCH  16  21
ENDBRANCH  11  15
ENDBRANCH   1   9
TORSDOF 5
ENDMDL
MODEL 10
REMARK VINA RESULT:      -7.7     16.034     18.109
REMARK  5 active torsions:
REMARK  status: ('A' for Active; 'I' for Inactive)
REMARK    1  A    between atoms: C_4  and  C_5 
REMARK    2  A    between atoms: C_5  and  O_6 
REMARK    3  A    between atoms: O_6  and  C_7 
REMARK    4  A    between atoms: C_8  and  N_9 
REMARK       I    between atoms: N_9  and  C_10 
REMARK       I    between atoms: C_10  and  N_11 
REMARK    5  A    between atoms: N_11  and  C_12 
ROOT
HETATM    1  C   UNL     1      -8.870 -14.708 -39.020  1.00  0.00     0.037 A 
HETATM    2  C   UNL     1      -9.270 -13.400 -39.314  1.00  0.00     0.052 A 
HETATM    3  C   UNL     1     -10.329 -13.164 -40.199  1.00  0.00     0.046 A 
HETATM    4  C   UNL     1     -10.773 -11.825 -40.441  1.00  0.00     0.099 C 
HETATM    5  N   UNL     1     -11.136 -10.737 -40.624  1.00  0.00    -0.191 NA
HETATM    6  C   UNL     1     -10.964 -14.239 -40.828  1.00  0.00     0.023 A 
HETATM    7  C   UNL     1     -10.547 -15.542 -40.561  1.00  0.00     0.004 A 
HETATM    8  C   UNL     1      -9.512 -15.775 -39.651  1.00  0.00     0.029 A 
ENDROOT
BRANCH   1   9
HETATM    9  N   UNL     1      -7.832 -14.869 -38.090  1.00  0.00    -0.309 N 
HETATM   10  C   UNL     1      -6.728 -15.665 -38.191  1.00  0.00     0.326 C 
HETATM   11  N   UNL     1      -5.916 -15.723 -37.091  1.00  0.00    -0.291 N 
HETATM   12  O   UNL     1      -6.446 -16.386 -39.148  1.00  0.00    -0.247 OA
HETATM   13  H   UNL     1      -5.239 -16.461 -37.182  1.00  0.00     0.172 HD
HETATM   14  H   UNL     1      -7.937 -14.438 -37.176  1.00  0.00     0.170 HD
BRANCH  11  15
HETATM   15  C   UNL     1      -5.900 -14.914 -35.945  1.00  0.00     0.165 A 
HETATM   16  C   UNL     1      -4.940 -13.904 -35.778  1.00  0.00     0.115 A 
HETATM   17  C   UNL     1      -4.972 -13.159 -34.593  1.00  0.00     0.042 A 
HETATM   18  C   UNL     1      -5.943 -13.400 -33.632  1.00  0.00     0.022 A 
HETATM   19  C   UNL     1      -6.848 -14.410 -33.878  1.00  0.00     0.119 A 
HETATM   20  N   UNL     1      -6.841 -15.168 -34.997  1.00  0.00    -0.240 NA
BRANCH  16  21
HETATM   21  O   UNL     1      -3.838 -13.644 -36.538  1.00  0.00    -0.343 OA
BRANCH  21  22
HETATM   22  C   UNL     1      -3.793 -12.462 -37.334  1.00  0.00     0.214 C 
BRANCH  22  23
HETATM   23  C   UNL     1      -4.402 -12.752 -38.691  1.00  0.00    -0.034 A 
HETATM   24  C   UNL     1      -5.572 -12.106 -39.130  1.00  0.00     0.009 A 
HETATM   25  C   UNL     1      -6.116 -12.378 -40.385  1.00  0.00     0.001 A 
HETATM   26  C   UNL     1      -5.503 -13.303 -41.222  1.00  0.00     0.000 A 
HETATM   27  C   UNL     1      -4.340 -13.949 -40.808  1.00  0.00     0.001 A 
HETATM   28  C   UNL     1      -3.787 -13.671 -39.553  1.00  0.00     0.009 A 
ENDBRANCH  22  23
ENDBRANCH  21  22
ENDBRANCH  16  21
ENDBRANCH  11  15
ENDBRANCH   1   9
TORSDOF 5
ENDMDL
