MODEL 1
REMARK VINA RESULT:      -8.1      0.000      0.000
REMARK  4 active torsions:
REMARK  status: ('A' for Active; 'I' for Inactive)
REMARK    1  A    between atoms: C_5  and  N_6 
REMARK    2  A    between atoms: N_9  and  C_11 
REMARK    3  A    between atoms: C_11  and  C_12 
REMARK    4  A    between atoms: C_13  and  O_14 
ROOT
HETATM    1  N   UNL     1      -5.777  -0.127 -31.918  1.00  0.00    -0.363 N 
HETATM    2  C   UNL     1      -6.549   1.064 -32.294  1.00  0.00     0.152 C 
HETATM    3  C   UNL     1      -5.742   2.138 -33.051  1.00  0.00     0.255 C 
HETATM    4  N   UNL     1      -4.730   2.771 -32.102  1.00  0.00    -0.066 N 
HETATM    5  H   UNL     1      -5.099   2.619 -31.157  1.00  0.00     0.280 HD
HETATM    6  C   UNL     1      -3.374   2.116 -32.113  1.00  0.00     0.237 C 
HETATM    7  C   UNL     1      -3.406   0.594 -32.008  1.00  0.00     0.047 C 
HETATM    8  C   UNL     1      -4.531   0.009 -31.158  1.00  0.00     0.126 C 
ENDROOT
BRANCH   4   9
HETATM    9  C   UNL     1      -4.661   4.286 -32.183  1.00  0.00     0.276 C 
BRANCH   9  10
HETATM   10  C   UNL     1      -3.423   4.891 -32.786  1.00  0.00     0.002 A 
HETATM   11  C   UNL     1      -2.409   5.418 -31.972  1.00  0.00     0.091 A 
HETATM   12  C   UNL     1      -1.278   6.023 -32.529  1.00  0.00     0.044 A 
HETATM   13 BR   UNL     1       0.082   6.737 -31.420  1.00  0.00    -0.048 Br
HETATM   14  C   UNL     1      -1.142   6.108 -33.911  1.00  0.00     0.022 A 
HETATM   15  C   UNL     1      -2.138   5.586 -34.735  1.00  0.00     0.002 A 
HETATM   16  C   UNL     1      -3.271   4.982 -34.178  1.00  0.00     0.012 A 
BRANCH  11  17
HETATM   17  O   UNL     1      -2.561   5.322 -30.612  1.00  0.00    -0.359 OA
HETATM   18  H   UNL     1      -3.385   5.799 -30.381  1.00  0.00     0.218 HD
ENDBRANCH  11  17
ENDBRANCH   9  10
ENDBRANCH   4   9
BRANCH   1  19
HETATM   19  C   UNL     1      -5.806  -1.148 -32.885  1.00  0.00     0.147 A 
HETATM   20  N   UNL     1      -6.972  -1.486 -33.474  1.00  0.00    -0.132 NA
HETATM   21  N   UNL     1      -7.040  -2.501 -34.400  1.00  0.00    -0.153 NA
HETATM   22  C   UNL     1      -5.929  -3.191 -34.725  1.00  0.00     0.053 A 
HETATM   23  C   UNL     1      -6.059  -4.321 -35.697  1.00  0.00     0.072 C 
HETATM   24  C   UNL     1      -4.710  -2.879 -34.152  1.00  0.00     0.032 A 
HETATM   25  C   UNL     1      -4.651  -1.843 -33.223  1.00  0.00     0.054 A 
ENDBRANCH   1  19
TORSDOF 4
ENDMDL
MODEL 2
REMARK VINA RESULT:      -7.8      1.928      2.914
REMARK  4 active torsions:
REMARK  status: ('A' for Active; 'I' for Inactive)
REMARK    1  A    between atoms: C_5  and  N_6 
REMARK    2  A    between atoms: N_9  and  C_11 
REMARK    3  A    between atoms: C_11  and  C_12 
REMARK    4  A    between atoms: C_13  and  O_14 
ROOT
HETATM    1  N   UNL     1      -5.851   2.468 -31.858  1.00  0.00    -0.363 N 
HETATM    2  C   UNL     1      -5.936   3.711 -32.636  1.00  0.00     0.152 C 
HETATM    3  C   UNL     1      -4.601   4.171 -33.256  1.00  0.00     0.255 C 
HETATM    4  N   UNL     1      -3.657   4.620 -32.146  1.00  0.00    -0.066 N 
HETATM    5  H   UNL     1      -4.257   4.873 -31.354  1.00  0.00     0.280 HD
HETATM    6  C   UNL     1      -2.745   3.539 -31.630  1.00  0.00     0.237 C 
HETATM    7  C   UNL     1      -3.446   2.221 -31.308  1.00  0.00     0.047 C 
HETATM    8  C   UNL     1      -4.871   2.338 -30.775  1.00  0.00     0.126 C 
ENDROOT
BRANCH   4   9
HETATM    9  C   UNL     1      -2.933   5.924 -32.433  1.00  0.00     0.276 C 
BRANCH   9  10
HETATM   10  C   UNL     1      -1.792   6.296 -31.526  1.00  0.00     0.002 A 
HETATM   11  C   UNL     1      -2.009   6.548 -30.163  1.00  0.00     0.091 A 
HETATM   12  C   UNL     1      -0.959   6.940 -29.325  1.00  0.00     0.044 A 
HETATM   13 BR   UNL     1      -1.264   7.284 -27.488  1.00  0.00    -0.048 Br
HETATM   14  C   UNL     1       0.326   7.082 -29.839  1.00  0.00     0.022 A 
HETATM   15  C   UNL     1       0.560   6.832 -31.191  1.00  0.00     0.002 A 
HETATM   16  C   UNL     1      -0.490   6.441 -32.029  1.00  0.00     0.012 A 
BRANCH  11  17
HETATM   17  O   UNL     1      -3.282   6.400 -29.676  1.00  0.00    -0.359 OA
HETATM   18  H   UNL     1      -3.549   5.472 -29.844  1.00  0.00     0.218 HD
ENDBRANCH  11  17
ENDBRANCH   9  10
ENDBRANCH   4   9
BRANCH   1  19
HETATM   19  C   UNL     1      -6.095   1.308 -32.616  1.00  0.00     0.147 A 
HETATM   20  N   UNL     1      -5.969   0.091 -32.045  1.00  0.00    -0.132 NA
HETATM   21  N   UNL     1      -6.169  -1.063 -32.768  1.00  0.00    -0.153 NA
HETATM   22  C   UNL     1      -6.485  -0.992 -34.076  1.00  0.00     0.053 A 
HETATM   23  C   UNL     1      -6.643  -2.272 -34.834  1.00  0.00     0.072 C 
HETATM   24  C   UNL     1      -6.630   0.232 -34.703  1.00  0.00     0.032 A 
HETATM   25  C   UNL     1      -6.435   1.394 -33.960  1.00  0.00     0.054 A 
ENDBRANCH   1  19
TORSDOF 4
ENDMDL
MODEL 3
REMARK VINA RESULT:      -7.7     16.583     18.447
REMARK  4 active torsions:
REMARK  status: ('A' for Active; 'I' for Inactive)
REMARK    1  A    between atoms: C_5  and  N_6 
REMARK    2  A    between atoms: N_9  and  C_11 
REMARK    3  A    between atoms: C_11  and  C_12 
REMARK    4  A    between atoms: C_13  and  O_14 
ROOT
HETATM    1  N   UNL     1      -3.572 -15.025 -38.880  1.00  0.00    -0.363 N 
HETATM    2  C   UNL     1      -4.155 -15.041 -40.228  1.00  0.00     0.152 C 
HETATM    3  C   UNL     1      -4.523 -13.650 -40.782  1.00  0.00     0.255 C 
HETATM    4  N   UNL     1      -5.702 -13.088 -39.994  1.00  0.00    -0.066 N 
HETATM    5  H   UNL     1      -6.181 -13.900 -39.591  1.00  0.00     0.280 HD
HETATM    6  C   UNL     1      -5.311 -12.230 -38.821  1.00  0.00     0.237 C 
HETATM    7  C   UNL     1      -4.239 -12.838 -37.921  1.00  0.00     0.047 C 
HETATM    8  C   UNL     1      -4.273 -14.357 -37.779  1.00  0.00     0.126 C 
ENDROOT
BRANCH   4   9
HETATM    9  C   UNL     1      -6.788 -12.465 -40.854  1.00  0.00     0.276 C 
BRANCH   9  10
HETATM   10  C   UNL     1      -8.207 -12.881 -40.585  1.00  0.00     0.002 A 
HETATM   11  C   UNL     1      -8.597 -14.224 -40.695  1.00  0.00     0.091 A 
HETATM   12  C   UNL     1      -9.927 -14.609 -40.491  1.00  0.00     0.044 A 
HETATM   13 BR   UNL     1     -10.444 -16.424 -40.648  1.00  0.00    -0.048 Br
HETATM   14  C   UNL     1     -10.887 -13.654 -40.170  1.00  0.00     0.022 A 
HETATM   15  C   UNL     1     -10.516 -12.315 -40.053  1.00  0.00     0.002 A 
HETATM   16  C   UNL     1      -9.187 -11.930 -40.258  1.00  0.00     0.012 A 
BRANCH  11  17
HETATM   17  O   UNL     1      -7.636 -15.149 -41.010  1.00  0.00    -0.359 OA
HETATM   18  H   UNL     1      -6.840 -14.652 -41.292  1.00  0.00     0.218 HD
ENDBRANCH  11  17
ENDBRANCH   9  10
ENDBRANCH   4   9
BRANCH   1  19
HETATM   19  C   UNL     1      -2.169 -14.929 -38.871  1.00  0.00     0.147 A 
HETATM   20  N   UNL     1      -1.484 -15.168 -37.733  1.00  0.00    -0.132 NA
HETATM   21  N   UNL     1      -0.114 -15.051 -37.683  1.00  0.00    -0.153 NA
HETATM   22  C   UNL     1       0.571 -14.679 -38.782  1.00  0.00     0.053 A 
HETATM   23  C   UNL     1       2.054 -14.514 -38.669  1.00  0.00     0.072 C 
HETATM   24  C   UNL     1      -0.086 -14.428 -39.973  1.00  0.00     0.032 A 
HETATM   25  C   UNL     1      -1.472 -14.559 -40.015  1.00  0.00     0.054 A 
ENDBRANCH   1  19
TORSDOF 4
ENDMDL
MODEL 4
REMARK VINA RESULT:      -7.6      3.555      4.654
REMARK  4 active torsions:
REMARK  status: ('A' for Active; 'I' for Inactive)
REMARK    1  A    between atoms: C_5  and  N_6 
REMARK    2  A    between atoms: N_9  and  C_11 
REMARK    3  A    between atoms: C_11  and  C_12 
REMARK    4  A    between atoms: C_13  and  O_14 
ROOT
HETATM    1  N   UNL     1      -5.855   0.195 -32.396  1.00  0.00    -0.363 N 
HETATM    2  C   UNL     1      -6.728   0.095 -31.219  1.00  0.00     0.152 C 
HETATM    3  C   UNL     1      -8.163   0.614 -31.439  1.00  0.00     0.255 C 
HETATM    4  N   UNL     1      -8.131   2.129 -31.613  1.00  0.00    -0.066 N 
HETATM    5  H   UNL     1      -7.267   2.444 -31.159  1.00  0.00     0.280 HD
HETATM    6  C   UNL     1      -8.023   2.588 -33.043  1.00  0.00     0.237 C 
HETATM    7  C   UNL     1      -6.942   1.880 -33.855  1.00  0.00     0.047 C 
HETATM    8  C   UNL     1      -5.687   1.478 -33.085  1.00  0.00     0.126 C 
ENDROOT
BRANCH   4   9
HETATM    9  C   UNL     1      -9.199   2.870 -30.827  1.00  0.00     0.276 C 
BRANCH   9  10
HETATM   10  C   UNL     1      -8.811   4.182 -30.202  1.00  0.00     0.002 A 
HETATM   11  C   UNL     1      -7.637   4.300 -29.445  1.00  0.00     0.091 A 
HETATM   12  C   UNL     1      -7.297   5.506 -28.822  1.00  0.00     0.044 A 
HETATM   13 BR   UNL     1      -5.712   5.652 -27.797  1.00  0.00    -0.048 Br
HETATM   14  C   UNL     1      -8.128   6.615 -28.951  1.00  0.00     0.022 A 
HETATM   15  C   UNL     1      -9.297   6.516 -29.703  1.00  0.00     0.002 A 
HETATM   16  C   UNL     1      -9.638   5.310 -30.325  1.00  0.00     0.012 A 
BRANCH  11  17
HETATM   17  O   UNL     1      -6.831   3.196 -29.332  1.00  0.00    -0.359 OA
HETATM   18  H   UNL     1      -7.204   2.639 -28.617  1.00  0.00     0.218 HD
ENDBRANCH  11  17
ENDBRANCH   9  10
ENDBRANCH   4   9
BRANCH   1  19
HETATM   19  C   UNL     1      -5.873  -0.950 -33.213  1.00  0.00     0.147 A 
HETATM   20  N   UNL     1      -7.052  -1.489 -33.590  1.00  0.00    -0.132 NA
HETATM   21  N   UNL     1      -7.104  -2.627 -34.362  1.00  0.00    -0.153 NA
HETATM   22  C   UNL     1      -5.963  -3.234 -34.747  1.00  0.00     0.053 A 
HETATM   23  C   UNL     1      -6.068  -4.497 -35.541  1.00  0.00     0.072 C 
HETATM   24  C   UNL     1      -4.732  -2.715 -34.389  1.00  0.00     0.032 A 
HETATM   25  C   UNL     1      -4.691  -1.557 -33.616  1.00  0.00     0.054 A 
ENDBRANCH   1  19
TORSDOF 4
ENDMDL
MODEL 5
REMARK VINA RESULT:      -7.6      1.594      2.291
REMARK  4 active torsions:
REMARK  status: ('A' for Active; 'I' for Inactive)
REMARK    1  A    between atoms: C_5  and  N_6 
REMARK    2  A    between atoms: N_9  and  C_11 
REMARK    3  A    between atoms: C_11  and  C_12 
REMARK    4  A    between atoms: C_13  and  O_14 
ROOT
HETATM    1  N   UNL     1      -6.640   0.106 -33.297  1.00  0.00    -0.363 N 
HETATM    2  C   UNL     1      -5.592   1.118 -33.487  1.00  0.00     0.152 C 
HETATM    3  C   UNL     1      -4.665   1.318 -32.271  1.00  0.00     0.255 C 
HETATM    4  N   UNL     1      -5.452   1.966 -31.137  1.00  0.00    -0.066 N 
HETATM    5  H   UNL     1      -6.239   2.449 -31.583  1.00  0.00     0.280 HD
HETATM    6  C   UNL     1      -6.073   0.989 -30.175  1.00  0.00     0.237 C 
HETATM    7  C   UNL     1      -6.834  -0.156 -30.839  1.00  0.00     0.047 C 
HETATM    8  C   UNL     1      -7.544   0.187 -32.146  1.00  0.00     0.126 C 
ENDROOT
BRANCH   4   9
HETATM    9  C   UNL     1      -4.724   3.105 -30.444  1.00  0.00     0.276 C 
BRANCH   9  10
HETATM   10  C   UNL     1      -4.369   4.306 -31.276  1.00  0.00     0.002 A 
HETATM   11  C   UNL     1      -3.030   4.630 -31.540  1.00  0.00     0.091 A 
HETATM   12  C   UNL     1      -2.695   5.773 -32.274  1.00  0.00     0.044 A 
HETATM   13 BR   UNL     1      -0.883   6.204 -32.618  1.00  0.00    -0.048 Br
HETATM   14  C   UNL     1      -3.696   6.609 -32.759  1.00  0.00     0.022 A 
HETATM   15  C   UNL     1      -5.032   6.300 -32.509  1.00  0.00     0.002 A 
HETATM   16  C   UNL     1      -5.368   5.158 -31.774  1.00  0.00     0.012 A 
BRANCH  11  17
HETATM   17  O   UNL     1      -2.059   3.793 -31.055  1.00  0.00    -0.359 OA
HETATM   18  H   UNL     1      -1.247   3.960 -31.578  1.00  0.00     0.218 HD
ENDBRANCH  11  17
ENDBRANCH   9  10
ENDBRANCH   4   9
BRANCH   1  19
HETATM   19  C   UNL     1      -6.257  -1.186 -33.696  1.00  0.00     0.147 A 
HETATM   20  N   UNL     1      -4.964  -1.565 -33.603  1.00  0.00    -0.132 NA
HETATM   21  N   UNL     1      -4.552  -2.812 -34.015  1.00  0.00    -0.153 NA
HETATM   22  C   UNL     1      -5.443  -3.678 -34.537  1.00  0.00     0.053 A 
HETATM   23  C   UNL     1      -4.941  -5.002 -35.020  1.00  0.00     0.072 C 
HETATM   24  C   UNL     1      -6.779  -3.337 -34.648  1.00  0.00     0.032 A 
HETATM   25  C   UNL     1      -7.187  -2.076 -34.218  1.00  0.00     0.054 A 
ENDBRANCH   1  19
TORSDOF 4
ENDMDL
MODEL 6
REMARK VINA RESULT:      -7.5      5.068      6.665
REMARK  4 active torsions:
REMARK  status: ('A' for Active; 'I' for Inactive)
REMARK    1  A    between atoms: C_5  and  N_6 
REMARK    2  A    between atoms: N_9  and  C_11 
REMARK    3  A    between atoms: C_11  and  C_12 
REMARK    4  A    between atoms: C_13  and  O_14 
ROOT
HETATM    1  N   UNL     1      -6.334   0.387 -32.420  1.00  0.00    -0.363 N 
HETATM    2  C   UNL     1      -7.649   0.553 -31.788  1.00  0.00     0.152 C 
HETATM    3  C   UNL     1      -8.672   1.339 -32.633  1.00  0.00     0.255 C 
HETATM    4  N   UNL     1      -8.238   2.799 -32.721  1.00  0.00    -0.066 N 
HETATM    5  H   UNL     1      -7.636   2.961 -31.907  1.00  0.00     0.280 HD
HETATM    6  C   UNL     1      -7.388   3.123 -33.921  1.00  0.00     0.237 C 
HETATM    7  C   UNL     1      -6.235   2.151 -34.160  1.00  0.00     0.047 C 
HETATM    8  C   UNL     1      -5.596   1.556 -32.908  1.00  0.00     0.126 C 
ENDROOT
BRANCH   4   9
HETATM    9  C   UNL     1      -9.360   3.798 -32.498  1.00  0.00     0.276 C 
BRANCH   9  10
HETATM   10  C   UNL     1     -10.666   3.539 -33.199  1.00  0.00     0.002 A 
HETATM   11  C   UNL     1     -11.846   3.334 -32.469  1.00  0.00     0.091 A 
HETATM   12  C   UNL     1     -13.053   3.047 -33.116  1.00  0.00     0.044 A 
HETATM   13 BR   UNL     1     -14.640   2.765 -32.121  1.00  0.00    -0.048 Br
HETATM   14  C   UNL     1     -13.098   2.963 -34.504  1.00  0.00     0.022 A 
HETATM   15  C   UNL     1     -11.935   3.169 -35.244  1.00  0.00     0.002 A 
HETATM   16  C   UNL     1     -10.727   3.455 -34.598  1.00  0.00     0.012 A 
BRANCH  11  17
HETATM   17  O   UNL     1     -11.781   3.422 -31.102  1.00  0.00    -0.359 OA
HETATM   18  H   UNL     1     -12.183   2.604 -30.742  1.00  0.00     0.218 HD
ENDBRANCH  11  17
ENDBRANCH   9  10
ENDBRANCH   4   9
BRANCH   1  19
HETATM   19  C   UNL     1      -6.220  -0.784 -33.189  1.00  0.00     0.147 A 
HETATM   20  N   UNL     1      -7.330  -1.406 -33.640  1.00  0.00    -0.132 NA
HETATM   21  N   UNL     1      -7.253  -2.571 -34.368  1.00  0.00    -0.153 NA
HETATM   22  C   UNL     1      -6.053  -3.122 -34.633  1.00  0.00     0.053 A 
HETATM   23  C   UNL     1      -6.020  -4.416 -35.382  1.00  0.00     0.072 C 
HETATM   24  C   UNL     1      -4.887  -2.520 -34.197  1.00  0.00     0.032 A 
HETATM   25  C   UNL     1      -4.975  -1.335 -33.469  1.00  0.00     0.054 A 
ENDBRANCH   1  19
TORSDOF 4
ENDMDL
MODEL 7
REMARK VINA RESULT:      -7.4      2.973      3.846
REMARK  4 active torsions:
REMARK  status: ('A' for Active; 'I' for Inactive)
REMARK    1  A    between atoms: C_5  and  N_6 
REMARK    2  A    between atoms: N_9  and  C_11 
REMARK    3  A    between atoms: C_11  and  C_12 
REMARK    4  A    between atoms: C_13  and  O_14 
ROOT
HETATM    1  N   UNL     1      -5.264   2.480 -30.605  1.00  0.00    -0.363 N 
HETATM    2  C   UNL     1      -5.466   3.915 -30.364  1.00  0.00     0.152 C 
HETATM    3  C   UNL     1      -5.045   4.826 -31.535  1.00  0.00     0.255 C 
HETATM    4  N   UNL     1      -3.527   4.795 -31.679  1.00  0.00    -0.066 N 
HETATM    5  H   UNL     1      -3.165   4.517 -30.761  1.00  0.00     0.280 HD
HETATM    6  C   UNL     1      -3.016   3.759 -32.643  1.00  0.00     0.237 C 
HETATM    7  C   UNL     1      -3.617   2.368 -32.455  1.00  0.00     0.047 C 
HETATM    8  C   UNL     1      -3.951   1.977 -31.018  1.00  0.00     0.126 C 
ENDROOT
BRANCH   4   9
HETATM    9  C   UNL     1      -2.892   6.161 -31.878  1.00  0.00     0.276 C 
BRANCH   9  10
HETATM   10  C   UNL     1      -1.705   6.503 -31.019  1.00  0.00     0.002 A 
HETATM   11  C   UNL     1      -1.848   6.698 -29.638  1.00  0.00     0.091 A 
HETATM   12  C   UNL     1      -0.756   7.062 -28.843  1.00  0.00     0.044 A 
HETATM   13 BR   UNL     1      -0.962   7.330 -26.980  1.00  0.00    -0.048 Br
HETATM   14  C   UNL     1       0.499   7.233 -29.420  1.00  0.00     0.022 A 
HETATM   15  C   UNL     1       0.659   7.039 -30.791  1.00  0.00     0.002 A 
HETATM   16  C   UNL     1      -0.433   6.676 -31.586  1.00  0.00     0.012 A 
BRANCH  11  17
HETATM   17  O   UNL     1      -3.092   6.522 -29.089  1.00  0.00    -0.359 OA
HETATM   18  H   UNL     1      -3.575   7.369 -29.194  1.00  0.00     0.218 HD
ENDBRANCH  11  17
ENDBRANCH   9  10
ENDBRANCH   4   9
BRANCH   1  19
HETATM   19  C   UNL     1      -6.380   1.840 -31.173  1.00  0.00     0.147 A 
HETATM   20  N   UNL     1      -7.558   2.493 -31.264  1.00  0.00    -0.132 NA
HETATM   21  N   UNL     1      -8.677   1.884 -31.785  1.00  0.00    -0.153 NA
HETATM   22  C   UNL     1      -8.614   0.605 -32.205  1.00  0.00     0.053 A 
HETATM   23  C   UNL     1      -9.867  -0.033 -32.716  1.00  0.00     0.072 C 
HETATM   24  C   UNL     1      -7.428  -0.104 -32.137  1.00  0.00     0.032 A 
HETATM   25  C   UNL     1      -6.299   0.526 -31.617  1.00  0.00     0.054 A 
ENDBRANCH   1  19
TORSDOF 4
ENDMDL
MODEL 8
REMARK VINA RESULT:      -7.4     16.024     17.805
REMARK  4 active torsions:
REMARK  status: ('A' for Active; 'I' for Inactive)
REMARK    1  A    between atoms: C_5  and  N_6 
REMARK    2  A    between atoms: N_9  and  C_11 
REMARK    3  A    between atoms: C_11  and  C_12 
REMARK    4  A    between atoms: C_13  and  O_14 
ROOT
HETATM    1  N   UNL     1      -0.925 -13.385 -39.188  1.00  0.00    -0.363 N 
HETATM    2  C   UNL     1      -1.608 -12.272 -38.516  1.00  0.00     0.152 C 
HETATM    3  C   UNL     1      -3.091 -12.536 -38.185  1.00  0.00     0.255 C 
HETATM    4  N   UNL     1      -3.895 -12.594 -39.479  1.00  0.00    -0.066 N 
HETATM    5  H   UNL     1      -3.350 -12.067 -40.171  1.00  0.00     0.280 HD
HETATM    6  C   UNL     1      -4.046 -13.976 -40.056  1.00  0.00     0.237 C 
HETATM    7  C   UNL     1      -2.748 -14.775 -40.135  1.00  0.00     0.047 C 
HETATM    8  C   UNL     1      -1.485 -13.964 -40.413  1.00  0.00     0.126 C 
ENDROOT
BRANCH   4   9
HETATM    9  C   UNL     1      -5.201 -11.818 -39.438  1.00  0.00     0.276 C 
BRANCH   9  10
HETATM   10  C   UNL     1      -6.418 -12.541 -38.931  1.00  0.00     0.002 A 
HETATM   11  C   UNL     1      -7.586 -12.615 -39.704  1.00  0.00     0.091 A 
HETATM   12  C   UNL     1      -8.736 -13.245 -39.217  1.00  0.00     0.044 A 
HETATM   13 BR   UNL     1     -10.309 -13.333 -40.267  1.00  0.00    -0.048 Br
HETATM   14  C   UNL     1      -8.733 -13.815 -37.948  1.00  0.00     0.022 A 
HETATM   15  C   UNL     1      -7.580 -13.754 -37.168  1.00  0.00     0.002 A 
HETATM   16  C   UNL     1      -6.430 -13.123 -37.654  1.00  0.00     0.012 A 
BRANCH  11  17
HETATM   17  O   UNL     1      -7.567 -12.048 -40.953  1.00  0.00    -0.359 OA
HETATM   18  H   UNL     1      -8.327 -11.432 -41.001  1.00  0.00     0.218 HD
ENDBRANCH  11  17
ENDBRANCH   9  10
ENDBRANCH   4   9
BRANCH   1  19
HETATM   19  C   UNL     1      -0.305 -14.285 -38.303  1.00  0.00     0.147 A 
HETATM   20  N   UNL     1      -0.931 -14.649 -37.164  1.00  0.00    -0.132 NA
HETATM   21  N   UNL     1      -0.338 -15.503 -36.262  1.00  0.00    -0.153 NA
HETATM   22  C   UNL     1       0.898 -15.983 -36.501  1.00  0.00     0.053 A 
HETATM   23  C   UNL     1       1.524 -16.867 -35.469  1.00  0.00     0.072 C 
HETATM   24  C   UNL     1       1.577 -15.643 -37.657  1.00  0.00     0.032 A 
HETATM   25  C   UNL     1       0.963 -14.786 -38.568  1.00  0.00     0.054 A 
ENDBRANCH   1  19
TORSDOF 4
ENDMDL
MODEL 9
REMARK VINA RESULT:      -7.3     16.181     17.529
REMARK  4 active torsions:
REMARK  status: ('A' for Active; 'I' for Inactive)
REMARK    1  A    between atoms: C_5  and  N_6 
REMARK    2  A    between atoms: N_9  and  C_11 
REMARK    3  A    between atoms: C_11  and  C_12 
REMARK    4  A    between atoms: C_13  and  O_14 
ROOT
HETATM    1  N   UNL     1      -5.902 -14.153 -38.166  1.00  0.00    -0.363 N 
HETATM    2  C   UNL     1      -5.053 -13.162 -37.492  1.00  0.00     0.152 C 
HETATM    3  C   UNL     1      -3.983 -12.515 -38.395  1.00  0.00     0.255 C 
HETATM    4  N   UNL     1      -2.931 -13.558 -38.758  1.00  0.00    -0.066 N 
HETATM    5  H   UNL     1      -2.979 -14.271 -38.023  1.00  0.00     0.280 HD
HETATM    6  C   UNL     1      -3.202 -14.291 -40.045  1.00  0.00     0.237 C 
HETATM    7  C   UNL     1      -4.627 -14.821 -40.185  1.00  0.00     0.047 C 
HETATM    8  C   UNL     1      -5.297 -15.274 -38.891  1.00  0.00     0.126 C 
ENDROOT
BRANCH   4   9
HETATM    9  C   UNL     1      -1.499 -13.066 -38.641  1.00  0.00     0.276 C 
BRANCH   9  10
HETATM   10  C   UNL     1      -0.458 -14.065 -38.217  1.00  0.00     0.002 A 
HETATM   11  C   UNL     1      -0.664 -14.892 -37.103  1.00  0.00     0.091 A 
HETATM   12  C   UNL     1       0.321 -15.789 -36.677  1.00  0.00     0.044 A 
HETATM   13 BR   UNL     1       0.034 -16.896 -35.167  1.00  0.00    -0.048 Br
HETATM   14  C   UNL     1       1.529 -15.875 -37.363  1.00  0.00     0.022 A 
HETATM   15  C   UNL     1       1.749 -15.063 -38.475  1.00  0.00     0.002 A 
HETATM   16  C   UNL     1       0.764 -14.165 -38.900  1.00  0.00     0.012 A 
BRANCH  11  17
HETATM   17  O   UNL     1      -1.862 -14.793 -36.442  1.00  0.00    -0.359 OA
HETATM   18  H   UNL     1      -2.064 -15.680 -36.079  1.00  0.00     0.218 HD
ENDBRANCH  11  17
ENDBRANCH   9  10
ENDBRANCH   4   9
BRANCH   1  19
HETATM   19  C   UNL     1      -7.070 -13.608 -38.729  1.00  0.00     0.147 A 
HETATM   20  N   UNL     1      -6.979 -12.715 -39.737  1.00  0.00    -0.132 NA
HETATM   21  N   UNL     1      -8.101 -12.139 -40.288  1.00  0.00    -0.153 NA
HETATM   22  C   UNL     1      -9.322 -12.454 -39.812  1.00  0.00     0.053 A 
HETATM   23  C   UNL     1     -10.510 -11.765 -40.406  1.00  0.00     0.072 C 
HETATM   24  C   UNL     1      -9.466 -13.367 -38.784  1.00  0.00     0.032 A 
HETATM   25  C   UNL     1      -8.324 -13.951 -38.241  1.00  0.00     0.054 A 
ENDBRANCH   1  19
TORSDOF 4
ENDMDL
MODEL 10
REMARK VINA RESULT:      -7.3      4.802      6.053
REMARK  4 active torsions:
REMARK  status: ('A' for Active; 'I' for Inactive)
REMARK    1  A    between atoms: C_5  and  N_6 
REMARK    2  A    between atoms: N_9  and  C_11 
REMARK    3  A    between atoms: C_11  and  C_12 
REMARK    4  A    between atoms: C_13  and  O_14 
ROOT
HETATM    1  N   UNL     1      -6.640   0.512 -34.035  1.00  0.00    -0.363 N 
HETATM    2  C   UNL     1      -6.092   1.483 -33.079  1.00  0.00     0.152 C 
HETATM    3  C   UNL     1      -6.748   1.449 -31.684  1.00  0.00     0.255 C 
HETATM    4  N   UNL     1      -8.180   1.963 -31.787  1.00  0.00    -0.066 N 
HETATM    5  H   UNL     1      -8.207   2.548 -32.629  1.00  0.00     0.280 HD
HETATM    6  C   UNL     1      -9.211   0.889 -32.013  1.00  0.00     0.237 C 
HETATM    7  C   UNL     1      -8.861  -0.102 -33.120  1.00  0.00     0.047 C 
HETATM    8  C   UNL     1      -8.081   0.469 -34.301  1.00  0.00     0.126 C 
ENDROOT
BRANCH   4   9
HETATM    9  C   UNL     1      -8.570   2.945 -30.696  1.00  0.00     0.276 C 
BRANCH   9  10
HETATM   10  C   UNL     1      -9.385   4.142 -31.103  1.00  0.00     0.002 A 
HETATM   11  C   UNL     1     -10.721   4.275 -30.697  1.00  0.00     0.091 A 
HETATM   12  C   UNL     1     -11.497   5.363 -31.111  1.00  0.00     0.044 A 
HETATM   13 BR   UNL     1     -13.302   5.529 -30.562  1.00  0.00    -0.048 Br
HETATM   14  C   UNL     1     -10.945   6.337 -31.937  1.00  0.00     0.022 A 
HETATM   15  C   UNL     1      -9.618   6.223 -32.347  1.00  0.00     0.002 A 
HETATM   16  C   UNL     1      -8.842   5.134 -31.933  1.00  0.00     0.012 A 
BRANCH  11  17
HETATM   17  O   UNL     1     -11.245   3.305 -29.881  1.00  0.00    -0.359 OA
HETATM   18  H   UNL     1     -10.494   2.769 -29.553  1.00  0.00     0.218 HD
ENDBRANCH  11  17
ENDBRANCH   9  10
ENDBRANCH   4   9
BRANCH   1  19
HETATM   19  C   UNL     1      -5.973  -0.726 -34.030  1.00  0.00     0.147 A 
HETATM   20  N   UNL     1      -4.823  -0.869 -33.338  1.00  0.00    -0.132 NA
HETATM   21  N   UNL     1      -4.130  -2.058 -33.338  1.00  0.00    -0.153 NA
HETATM   22  C   UNL     1      -4.589  -3.105 -34.051  1.00  0.00     0.053 A 
HETATM   23  C   UNL     1      -3.776  -4.361 -34.064  1.00  0.00     0.072 C 
HETATM   24  C   UNL     1      -5.765  -3.008 -34.772  1.00  0.00     0.032 A 
HETATM   25  C   UNL     1      -6.464  -1.804 -34.756  1.00  0.00     0.054 A 
ENDBRANCH   1  19
TORSDOF 4
ENDMDL
