MODEL 1
REMARK VINA RESULT:      -9.0      0.000      0.000
REMARK  6 active torsions:
REMARK  status: ('A' for Active; 'I' for Inactive)
REMARK    1  A    between atoms: C_7  and  S_8 
REMARK    2  A    between atoms: S_8  and  C_9 
REMARK    3  A    between atoms: C_9  and  C_10 
REMARK    4  A    between atoms: C_18  and  C_19 
REMARK    5  A    between atoms: C_26  and  C_27 
REMARK    6  A    between atoms: C_27  and  O_28 
ROOT
HETATM    1  C   UNL     1      -7.295   4.760 -28.971  1.00  0.00     0.070 C 
HETATM    2  C   UNL     1      -6.181   4.073 -29.725  1.00  0.00     0.037 A 
HETATM    3  N   UNL     1      -6.253   2.686 -29.766  1.00  0.00    -0.192 N 
HETATM    4  C   UNL     1      -5.333   1.913 -30.371  1.00  0.00     0.726 A 
HETATM    5  N   UNL     1      -4.252   2.498 -30.969  1.00  0.00    -0.082 N 
HETATM    6  N   UNL     1      -3.418   1.573 -31.487  1.00  0.00    -0.128 NA
HETATM    7  C   UNL     1      -4.098   0.448 -31.229  1.00  0.00     0.226 A 
HETATM    8  N   UNL     1      -5.267   0.619 -30.527  1.00  0.00    -0.035 NA
HETATM    9  C   UNL     1      -4.036   3.950 -31.038  1.00  0.00     0.203 A 
HETATM   10  C   UNL     1      -5.143   4.711 -30.319  1.00  0.00     0.070 A 
HETATM   11  H   UNL     1      -7.053   2.239 -29.325  1.00  0.00     0.184 HD
ENDROOT
BRANCH   7  12
HETATM   12  S   UNL     1      -3.603  -1.126 -31.783  1.00  0.00    -0.083 SA
BRANCH  12  13
HETATM   13  C   UNL     1      -4.045  -1.051 -33.541  1.00  0.00     0.123 C 
BRANCH  13  14
HETATM   14  C   UNL     1      -4.804  -2.287 -33.969  1.00  0.00    -0.027 A 
HETATM   15  C   UNL     1      -6.134  -2.253 -34.418  1.00  0.00     0.041 A 
HETATM   16 CL   UNL     1      -7.041  -0.784 -34.480  1.00  0.00    -0.084 Cl
HETATM   17  C   UNL     1      -6.775  -3.426 -34.832  1.00  0.00     0.024 A 
HETATM   18  C   UNL     1      -6.100  -4.645 -34.805  1.00  0.00     0.002 A 
HETATM   19  C   UNL     1      -4.780  -4.696 -34.365  1.00  0.00     0.001 A 
HETATM   20  C   UNL     1      -4.136  -3.528 -33.955  1.00  0.00     0.009 A 
ENDBRANCH  13  14
ENDBRANCH  12  13
ENDBRANCH   7  12
BRANCH   9  21
HETATM   21  C   UNL     1      -3.867   4.386 -32.491  1.00  0.00    -0.026 A 
HETATM   22  C   UNL     1      -2.610   4.824 -32.946  1.00  0.00     0.033 A 
HETATM   23  C   UNL     1      -2.444   5.243 -34.266  1.00  0.00     0.034 A 
HETATM   24 CL   UNL     1      -0.901   5.784 -34.801  1.00  0.00    -0.084 Cl
HETATM   25  C   UNL     1      -3.518   5.229 -35.153  1.00  0.00     0.024 A 
HETATM   26  C   UNL     1      -4.770   4.798 -34.715  1.00  0.00     0.002 A 
HETATM   27  C   UNL     1      -4.945   4.383 -33.393  1.00  0.00     0.010 A 
ENDBRANCH   9  21
BRANCH  10  28
HETATM   28  C   UNL     1      -5.059   6.185 -30.349  1.00  0.00     0.293 C 
HETATM   29  O   UNL     1      -5.747   6.900 -31.058  1.00  0.00    -0.259 OA
BRANCH  28  30
HETATM   30  O   UNL     1      -4.106   6.600 -29.476  1.00  0.00    -0.323 OA
HETATM   31  C   UNL     1      -3.431   7.789 -29.892  1.00  0.00     0.213 C 
ENDBRANCH  28  30
ENDBRANCH  10  28
TORSDOF 6
ENDMDL
MODEL 2
REMARK VINA RESULT:      -8.7      1.372      1.579
REMARK  6 active torsions:
REMARK  status: ('A' for Active; 'I' for Inactive)
REMARK    1  A    between atoms: C_7  and  S_8 
REMARK    2  A    between atoms: S_8  and  C_9 
REMARK    3  A    between atoms: C_9  and  C_10 
REMARK    4  A    between atoms: C_18  and  C_19 
REMARK    5  A    between atoms: C_26  and  C_27 
REMARK    6  A    between atoms: C_27  and  O_28 
ROOT
HETATM    1  C   UNL     1      -8.154   4.983 -31.855  1.00  0.00     0.070 C 
HETATM    2  C   UNL     1      -6.864   4.219 -31.681  1.00  0.00     0.037 A 
HETATM    3  N   UNL     1      -6.939   2.853 -31.924  1.00  0.00    -0.192 N 
HETATM    4  C   UNL     1      -5.893   2.017 -31.793  1.00  0.00     0.726 A 
HETATM    5  N   UNL     1      -4.686   2.510 -31.382  1.00  0.00    -0.082 N 
HETATM    6  N   UNL     1      -3.769   1.527 -31.267  1.00  0.00    -0.128 NA
HETATM    7  C   UNL     1      -4.474   0.473 -31.698  1.00  0.00     0.226 A 
HETATM    8  N   UNL     1      -5.787   0.734 -32.009  1.00  0.00    -0.035 NA
HETATM    9  C   UNL     1      -4.429   3.930 -31.105  1.00  0.00     0.203 A 
HETATM   10  C   UNL     1      -5.688   4.769 -31.291  1.00  0.00     0.070 A 
HETATM   11  H   UNL     1      -7.832   2.475 -32.231  1.00  0.00     0.184 HD
ENDROOT
BRANCH   7  12
HETATM   12  S   UNL     1      -3.794  -1.113 -31.925  1.00  0.00    -0.083 SA
BRANCH  12  13
HETATM   13  C   UNL     1      -3.878  -1.294 -33.728  1.00  0.00     0.123 C 
BRANCH  13  14
HETATM   14  C   UNL     1      -4.695  -2.506 -34.120  1.00  0.00    -0.027 A 
HETATM   15  C   UNL     1      -5.993  -2.417 -34.647  1.00  0.00     0.041 A 
HETATM   16 CL   UNL     1      -6.794  -0.901 -34.857  1.00  0.00    -0.084 Cl
HETATM   17  C   UNL     1      -6.687  -3.572 -35.023  1.00  0.00     0.024 A 
HETATM   18  C   UNL     1      -6.098  -4.828 -34.878  1.00  0.00     0.002 A 
HETATM   19  C   UNL     1      -4.811  -4.932 -34.359  1.00  0.00     0.001 A 
HETATM   20  C   UNL     1      -4.114  -3.782 -33.987  1.00  0.00     0.009 A 
ENDBRANCH  13  14
ENDBRANCH  12  13
ENDBRANCH   7  12
BRANCH   9  21
HETATM   21  C   UNL     1      -3.259   4.425 -31.953  1.00  0.00    -0.026 A 
HETATM   22  C   UNL     1      -2.100   4.913 -31.324  1.00  0.00     0.033 A 
HETATM   23  C   UNL     1      -1.030   5.385 -32.084  1.00  0.00     0.034 A 
HETATM   24 CL   UNL     1       0.376   5.988 -31.296  1.00  0.00    -0.084 Cl
HETATM   25  C   UNL     1      -1.093   5.376 -33.476  1.00  0.00     0.024 A 
HETATM   26  C   UNL     1      -2.237   4.895 -34.113  1.00  0.00     0.002 A 
HETATM   27  C   UNL     1      -3.314   4.427 -33.358  1.00  0.00     0.010 A 
ENDBRANCH   9  21
BRANCH  10  28
HETATM   28  C   UNL     1      -5.549   6.223 -31.077  1.00  0.00     0.293 C 
HETATM   29  O   UNL     1      -5.422   7.042 -31.973  1.00  0.00    -0.259 OA
BRANCH  28  30
HETATM   30  O   UNL     1      -5.584   6.490 -29.747  1.00  0.00    -0.323 OA
HETATM   31  C   UNL     1      -4.400   7.124 -29.260  1.00  0.00     0.213 C 
ENDBRANCH  28  30
ENDBRANCH  10  28
TORSDOF 6
ENDMDL
MODEL 3
REMARK VINA RESULT:      -8.5      1.799      2.374
REMARK  6 active torsions:
REMARK  status: ('A' for Active; 'I' for Inactive)
REMARK    1  A    between atoms: C_7  and  S_8 
REMARK    2  A    between atoms: S_8  and  C_9 
REMARK    3  A    between atoms: C_9  and  C_10 
REMARK    4  A    between atoms: C_18  and  C_19 
REMARK    5  A    between atoms: C_26  and  C_27 
REMARK    6  A    between atoms: C_27  and  O_28 
ROOT
HETATM    1  C   UNL     1      -8.877   3.363 -30.531  1.00  0.00     0.070 C 
HETATM    2  C   UNL     1      -7.463   2.847 -30.644  1.00  0.00     0.037 A 
HETATM    3  N   UNL     1      -7.341   1.505 -30.984  1.00  0.00    -0.192 N 
HETATM    4  C   UNL     1      -6.159   0.874 -31.103  1.00  0.00     0.726 A 
HETATM    5  N   UNL     1      -5.002   1.562 -30.864  1.00  0.00    -0.082 N 
HETATM    6  N   UNL     1      -3.922   0.764 -30.990  1.00  0.00    -0.128 NA
HETATM    7  C   UNL     1      -4.498  -0.380 -31.382  1.00  0.00     0.226 A 
HETATM    8  N   UNL     1      -5.871  -0.354 -31.441  1.00  0.00    -0.035 NA
HETATM    9  C   UNL     1      -4.952   2.989 -30.518  1.00  0.00     0.203 A 
HETATM   10  C   UNL     1      -6.350   3.587 -30.415  1.00  0.00     0.070 A 
HETATM   11  H   UNL     1      -8.194   0.982 -31.165  1.00  0.00     0.184 HD
ENDROOT
BRANCH   7  12
HETATM   12  S   UNL     1      -3.604  -1.797 -31.854  1.00  0.00    -0.083 SA
BRANCH  12  13
HETATM   13  C   UNL     1      -3.713  -1.714 -33.662  1.00  0.00     0.123 C 
BRANCH  13  14
HETATM   14  C   UNL     1      -4.756  -2.672 -34.194  1.00  0.00    -0.027 A 
HETATM   15  C   UNL     1      -4.559  -4.060 -34.262  1.00  0.00     0.041 A 
HETATM   16 CL   UNL     1      -3.073  -4.798 -33.777  1.00  0.00    -0.084 Cl
HETATM   17  C   UNL     1      -5.573  -4.900 -34.733  1.00  0.00     0.024 A 
HETATM   18  C   UNL     1      -6.795  -4.369 -35.142  1.00  0.00     0.002 A 
HETATM   19  C   UNL     1      -7.009  -2.995 -35.079  1.00  0.00     0.001 A 
HETATM   20  C   UNL     1      -6.000  -2.154 -34.605  1.00  0.00     0.009 A 
ENDBRANCH  13  14
ENDBRANCH  12  13
ENDBRANCH   7  12
BRANCH   9  21
HETATM   21  C   UNL     1      -4.061   3.737 -31.508  1.00  0.00    -0.026 A 
HETATM   22  C   UNL     1      -4.533   4.007 -32.805  1.00  0.00     0.033 A 
HETATM   23  C   UNL     1      -3.725   4.674 -33.725  1.00  0.00     0.034 A 
HETATM   24 CL   UNL     1      -4.317   4.986 -35.310  1.00  0.00    -0.084 Cl
HETATM   25  C   UNL     1      -2.441   5.084 -33.372  1.00  0.00     0.024 A 
HETATM   26  C   UNL     1      -1.960   4.823 -32.090  1.00  0.00     0.002 A 
HETATM   27  C   UNL     1      -2.762   4.150 -31.165  1.00  0.00     0.010 A 
ENDBRANCH   9  21
BRANCH  10  28
HETATM   28  C   UNL     1      -6.432   5.028 -30.107  1.00  0.00     0.293 C 
HETATM   29  O   UNL     1      -6.585   5.904 -30.943  1.00  0.00    -0.259 OA
BRANCH  28  30
HETATM   30  O   UNL     1      -6.308   5.212 -28.768  1.00  0.00    -0.323 OA
HETATM   31  C   UNL     1      -7.386   5.951 -28.191  1.00  0.00     0.213 C 
ENDBRANCH  28  30
ENDBRANCH  10  28
TORSDOF 6
ENDMDL
MODEL 4
REMARK VINA RESULT:      -8.4      3.770      7.187
REMARK  6 active torsions:
REMARK  status: ('A' for Active; 'I' for Inactive)
REMARK    1  A    between atoms: C_7  and  S_8 
REMARK    2  A    between atoms: S_8  and  C_9 
REMARK    3  A    between atoms: C_9  and  C_10 
REMARK    4  A    between atoms: C_18  and  C_19 
REMARK    5  A    between atoms: C_26  and  C_27 
REMARK    6  A    between atoms: C_27  and  O_28 
ROOT
HETATM    1  C   UNL     1      -9.232   4.205 -30.464  1.00  0.00     0.070 C 
HETATM    2  C   UNL     1      -8.325   3.976 -31.649  1.00  0.00     0.037 A 
HETATM    3  N   UNL     1      -7.290   4.892 -31.797  1.00  0.00    -0.192 N 
HETATM    4  C   UNL     1      -6.405   4.854 -32.808  1.00  0.00     0.726 A 
HETATM    5  N   UNL     1      -6.518   3.884 -33.764  1.00  0.00    -0.082 N 
HETATM    6  N   UNL     1      -5.574   4.023 -34.719  1.00  0.00    -0.128 NA
HETATM    7  C   UNL     1      -4.877   5.059 -34.233  1.00  0.00     0.226 A 
HETATM    8  N   UNL     1      -5.371   5.606 -33.073  1.00  0.00    -0.035 NA
HETATM    9  C   UNL     1      -7.538   2.826 -33.746  1.00  0.00     0.203 A 
HETATM   10  C   UNL     1      -8.475   2.978 -32.554  1.00  0.00     0.070 A 
HETATM   11  H   UNL     1      -7.196   5.618 -31.091  1.00  0.00     0.184 HD
ENDROOT
BRANCH   7  12
HETATM   12  S   UNL     1      -3.408   5.654 -34.954  1.00  0.00    -0.083 SA
BRANCH  12  13
HETATM   13  C   UNL     1      -2.162   4.587 -34.180  1.00  0.00     0.123 C 
BRANCH  13  14
HETATM   14  C   UNL     1      -1.625   5.204 -32.908  1.00  0.00    -0.027 A 
HETATM   15  C   UNL     1      -1.887   4.680 -31.632  1.00  0.00     0.041 A 
HETATM   16 CL   UNL     1      -2.890   3.293 -31.401  1.00  0.00    -0.084 Cl
HETATM   17  C   UNL     1      -1.335   5.275 -30.492  1.00  0.00     0.024 A 
HETATM   18  C   UNL     1      -0.518   6.398 -30.609  1.00  0.00     0.002 A 
HETATM   19  C   UNL     1      -0.246   6.929 -31.866  1.00  0.00     0.001 A 
HETATM   20  C   UNL     1      -0.791   6.335 -33.006  1.00  0.00     0.009 A 
ENDBRANCH  13  14
ENDBRANCH  12  13
ENDBRANCH   7  12
BRANCH   9  21
HETATM   21  C   UNL     1      -6.870   1.453 -33.800  1.00  0.00    -0.026 A 
HETATM   22  C   UNL     1      -5.933   1.094 -32.814  1.00  0.00     0.033 A 
HETATM   23  C   UNL     1      -5.302  -0.149 -32.861  1.00  0.00     0.034 A 
HETATM   24 CL   UNL     1      -4.152  -0.567 -31.651  1.00  0.00    -0.084 Cl
HETATM   25  C   UNL     1      -5.593  -1.052 -33.881  1.00  0.00     0.024 A 
HETATM   26  C   UNL     1      -6.518  -0.709 -34.865  1.00  0.00     0.002 A 
HETATM   27  C   UNL     1      -7.150   0.537 -34.828  1.00  0.00     0.010 A 
ENDBRANCH   9  21
BRANCH  10  28
HETATM   28  C   UNL     1      -9.525   1.951 -32.404  1.00  0.00     0.293 C 
HETATM   29  O   UNL     1      -9.405   0.936 -31.737  1.00  0.00    -0.259 OA
BRANCH  28  30
HETATM   30  O   UNL     1     -10.619   2.316 -33.118  1.00  0.00    -0.323 OA
HETATM   31  C   UNL     1     -11.114   1.283 -33.973  1.00  0.00     0.213 C 
ENDBRANCH  28  30
ENDBRANCH  10  28
TORSDOF 6
ENDMDL
MODEL 5
REMARK VINA RESULT:      -8.3      1.406      1.830
REMARK  6 active torsions:
REMARK  status: ('A' for Active; 'I' for Inactive)
REMARK    1  A    between atoms: C_7  and  S_8 
REMARK    2  A    between atoms: S_8  and  C_9 
REMARK    3  A    between atoms: C_9  and  C_10 
REMARK    4  A    between atoms: C_18  and  C_19 
REMARK    5  A    between atoms: C_26  and  C_27 
REMARK    6  A    between atoms: C_27  and  O_28 
ROOT
HETATM    1  C   UNL     1      -6.454   6.939 -28.802  1.00  0.00     0.070 C 
HETATM    2  C   UNL     1      -5.880   5.757 -29.546  1.00  0.00     0.037 A 
HETATM    3  N   UNL     1      -6.601   4.573 -29.437  1.00  0.00    -0.192 N 
HETATM    4  C   UNL     1      -6.222   3.418 -30.012  1.00  0.00     0.726 A 
HETATM    5  N   UNL     1      -5.060   3.375 -30.731  1.00  0.00    -0.082 N 
HETATM    6  N   UNL     1      -4.819   2.132 -31.198  1.00  0.00    -0.128 NA
HETATM    7  C   UNL     1      -5.919   1.490 -30.785  1.00  0.00     0.226 A 
HETATM    8  N   UNL     1      -6.791   2.244 -30.036  1.00  0.00    -0.035 NA
HETATM    9  C   UNL     1      -4.193   4.538 -30.963  1.00  0.00     0.203 A 
HETATM   10  C   UNL     1      -4.730   5.781 -30.263  1.00  0.00     0.070 A 
HETATM   11  H   UNL     1      -7.468   4.594 -28.906  1.00  0.00     0.184 HD
ENDROOT
BRANCH   7  12
HETATM   12  S   UNL     1      -6.285  -0.160 -31.201  1.00  0.00    -0.083 SA
BRANCH  12  13
HETATM   13  C   UNL     1      -6.522  -0.042 -32.995  1.00  0.00     0.123 C 
BRANCH  13  14
HETATM   14  C   UNL     1      -6.090  -1.314 -33.691  1.00  0.00    -0.027 A 
HETATM   15  C   UNL     1      -4.744  -1.670 -33.870  1.00  0.00     0.041 A 
HETATM   16 CL   UNL     1      -3.450  -0.655 -33.340  1.00  0.00    -0.084 Cl
HETATM   17  C   UNL     1      -4.404  -2.876 -34.493  1.00  0.00     0.024 A 
HETATM   18  C   UNL     1      -5.400  -3.740 -34.945  1.00  0.00     0.002 A 
HETATM   19  C   UNL     1      -6.739  -3.403 -34.774  1.00  0.00     0.001 A 
HETATM   20  C   UNL     1      -7.082  -2.203 -34.149  1.00  0.00     0.009 A 
ENDBRANCH  13  14
ENDBRANCH  12  13
ENDBRANCH   7  12
BRANCH   9  21
HETATM   21  C   UNL     1      -3.986   4.747 -32.462  1.00  0.00    -0.026 A 
HETATM   22  C   UNL     1      -2.690   4.957 -32.965  1.00  0.00     0.033 A 
HETATM   23  C   UNL     1      -2.488   5.167 -34.329  1.00  0.00     0.034 A 
HETATM   24 CL   UNL     1      -0.895   5.432 -34.924  1.00  0.00    -0.084 Cl
HETATM   25  C   UNL     1      -3.566   5.168 -35.212  1.00  0.00     0.024 A 
HETATM   26  C   UNL     1      -4.856   4.962 -34.727  1.00  0.00     0.002 A 
HETATM   27  C   UNL     1      -5.067   4.757 -33.361  1.00  0.00     0.010 A 
ENDBRANCH   9  21
BRANCH  10  28
HETATM   28  C   UNL     1      -3.964   7.028 -30.451  1.00  0.00     0.293 C 
HETATM   29  O   UNL     1      -4.223   7.877 -31.289  1.00  0.00    -0.259 OA
BRANCH  28  30
HETATM   30  O   UNL     1      -2.943   7.070 -29.558  1.00  0.00    -0.323 OA
HETATM   31  C   UNL     1      -1.661   7.252 -30.163  1.00  0.00     0.213 C 
ENDBRANCH  28  30
ENDBRANCH  10  28
TORSDOF 6
ENDMDL
MODEL 6
REMARK VINA RESULT:      -8.2      2.629      3.847
REMARK  6 active torsions:
REMARK  status: ('A' for Active; 'I' for Inactive)
REMARK    1  A    between atoms: C_7  and  S_8 
REMARK    2  A    between atoms: S_8  and  C_9 
REMARK    3  A    between atoms: C_9  and  C_10 
REMARK    4  A    between atoms: C_18  and  C_19 
REMARK    5  A    between atoms: C_26  and  C_27 
REMARK    6  A    between atoms: C_27  and  O_28 
ROOT
HETATM    1  C   UNL     1      -1.732   4.521 -31.494  1.00  0.00     0.070 C 
HETATM    2  C   UNL     1      -3.019   3.990 -32.078  1.00  0.00     0.037 A 
HETATM    3  N   UNL     1      -3.219   2.621 -31.941  1.00  0.00    -0.192 N 
HETATM    4  C   UNL     1      -4.296   1.976 -32.424  1.00  0.00     0.726 A 
HETATM    5  N   UNL     1      -5.250   2.679 -33.107  1.00  0.00    -0.082 N 
HETATM    6  N   UNL     1      -6.232   1.867 -33.552  1.00  0.00    -0.128 NA
HETATM    7  C   UNL     1      -5.842   0.694 -33.035  1.00  0.00     0.226 A 
HETATM    8  N   UNL     1      -4.648   0.721 -32.355  1.00  0.00    -0.035 NA
HETATM    9  C   UNL     1      -5.204   4.132 -33.321  1.00  0.00     0.203 A 
HETATM   10  C   UNL     1      -3.941   4.743 -32.728  1.00  0.00     0.070 A 
HETATM   11  H   UNL     1      -2.516   2.088 -31.434  1.00  0.00     0.184 HD
ENDROOT
BRANCH   7  12
HETATM   12  S   UNL     1      -6.786  -0.765 -33.139  1.00  0.00    -0.083 SA
BRANCH  12  13
HETATM   13  C   UNL     1      -6.045  -1.579 -34.580  1.00  0.00     0.123 C 
BRANCH  13  14
HETATM   14  C   UNL     1      -5.231  -2.786 -34.170  1.00  0.00    -0.027 A 
HETATM   15  C   UNL     1      -5.495  -4.083 -34.638  1.00  0.00     0.041 A 
HETATM   16 CL   UNL     1      -6.814  -4.421 -35.703  1.00  0.00    -0.084 Cl
HETATM   17  C   UNL     1      -4.688  -5.157 -34.249  1.00  0.00     0.024 A 
HETATM   18  C   UNL     1      -3.609  -4.953 -33.391  1.00  0.00     0.002 A 
HETATM   19  C   UNL     1      -3.332  -3.673 -32.919  1.00  0.00     0.001 A 
HETATM   20  C   UNL     1      -4.133  -2.599 -33.308  1.00  0.00     0.009 A 
ENDBRANCH  13  14
ENDBRANCH  12  13
ENDBRANCH   7  12
BRANCH   9  21
HETATM   21  C   UNL     1      -6.480   4.780 -32.788  1.00  0.00    -0.026 A 
HETATM   22  C   UNL     1      -6.736   4.782 -31.404  1.00  0.00     0.033 A 
HETATM   23  C   UNL     1      -7.905   5.355 -30.904  1.00  0.00     0.034 A 
HETATM   24 CL   UNL     1      -8.204   5.340 -29.210  1.00  0.00    -0.084 Cl
HETATM   25  C   UNL     1      -8.834   5.935 -31.766  1.00  0.00     0.024 A 
HETATM   26  C   UNL     1      -8.594   5.938 -33.139  1.00  0.00     0.002 A 
HETATM   27  C   UNL     1      -7.428   5.361 -33.648  1.00  0.00     0.010 A 
ENDBRANCH   9  21
BRANCH  10  28
HETATM   28  C   UNL     1      -3.796   6.207 -32.846  1.00  0.00     0.293 C 
HETATM   29  O   UNL     1      -4.090   7.002 -31.969  1.00  0.00    -0.259 OA
BRANCH  28  30
HETATM   30  O   UNL     1      -3.294   6.513 -34.069  1.00  0.00    -0.323 OA
HETATM   31  C   UNL     1      -1.987   7.090 -34.022  1.00  0.00     0.213 C 
ENDBRANCH  28  30
ENDBRANCH  10  28
TORSDOF 6
ENDMDL
MODEL 7
REMARK VINA RESULT:      -8.1      2.332      2.794
REMARK  6 active torsions:
REMARK  status: ('A' for Active; 'I' for Inactive)
REMARK    1  A    between atoms: C_7  and  S_8 
REMARK    2  A    between atoms: S_8  and  C_9 
REMARK    3  A    between atoms: C_9  and  C_10 
REMARK    4  A    between atoms: C_18  and  C_19 
REMARK    5  A    between atoms: C_26  and  C_27 
REMARK    6  A    between atoms: C_27  and  O_28 
ROOT
HETATM    1  C   UNL     1      -8.195   7.352 -31.961  1.00  0.00     0.070 C 
HETATM    2  C   UNL     1      -7.375   6.116 -32.242  1.00  0.00     0.037 A 
HETATM    3  N   UNL     1      -8.014   5.131 -32.987  1.00  0.00    -0.192 N 
HETATM    4  C   UNL     1      -7.443   3.956 -33.308  1.00  0.00     0.726 A 
HETATM    5  N   UNL     1      -6.175   3.684 -32.876  1.00  0.00    -0.082 N 
HETATM    6  N   UNL     1      -5.781   2.451 -33.254  1.00  0.00    -0.128 NA
HETATM    7  C   UNL     1      -6.838   2.061 -33.979  1.00  0.00     0.226 A 
HETATM    8  N   UNL     1      -7.884   2.952 -34.015  1.00  0.00    -0.035 NA
HETATM    9  C   UNL     1      -5.352   4.623 -32.101  1.00  0.00     0.203 A 
HETATM   10  C   UNL     1      -6.109   5.912 -31.803  1.00  0.00     0.070 A 
HETATM   11  H   UNL     1      -8.958   5.321 -33.315  1.00  0.00     0.184 HD
ENDROOT
BRANCH   7  12
HETATM   12  S   UNL     1      -6.893   0.571 -34.878  1.00  0.00    -0.083 SA
BRANCH  12  13
HETATM   13  C   UNL     1      -6.882  -0.661 -33.548  1.00  0.00     0.123 C 
BRANCH  13  14
HETATM   14  C   UNL     1      -6.250  -1.957 -34.005  1.00  0.00    -0.027 A 
HETATM   15  C   UNL     1      -4.872  -2.212 -33.912  1.00  0.00     0.041 A 
HETATM   16 CL   UNL     1      -3.764  -1.038 -33.298  1.00  0.00    -0.084 Cl
HETATM   17  C   UNL     1      -4.348  -3.443 -34.322  1.00  0.00     0.024 A 
HETATM   18  C   UNL     1      -5.189  -4.433 -34.828  1.00  0.00     0.002 A 
HETATM   19  C   UNL     1      -6.557  -4.197 -34.925  1.00  0.00     0.001 A 
HETATM   20  C   UNL     1      -7.084  -2.972 -34.514  1.00  0.00     0.009 A 
ENDBRANCH  13  14
ENDBRANCH  12  13
ENDBRANCH   7  12
BRANCH   9  21
HETATM   21  C   UNL     1      -4.024   4.869 -32.815  1.00  0.00    -0.026 A 
HETATM   22  C   UNL     1      -2.826   4.866 -32.079  1.00  0.00     0.033 A 
HETATM   23  C   UNL     1      -1.607   5.106 -32.715  1.00  0.00     0.034 A 
HETATM   24 CL   UNL     1      -0.153   5.107 -31.796  1.00  0.00    -0.084 Cl
HETATM   25  C   UNL     1      -1.561   5.349 -34.086  1.00  0.00     0.024 A 
HETATM   26  C   UNL     1      -2.742   5.356 -34.827  1.00  0.00     0.002 A 
HETATM   27  C   UNL     1      -3.966   5.122 -34.197  1.00  0.00     0.010 A 
ENDBRANCH   9  21
BRANCH  10  28
HETATM   28  C   UNL     1      -5.374   6.954 -31.060  1.00  0.00     0.293 C 
HETATM   29  O   UNL     1      -4.825   7.913 -31.577  1.00  0.00    -0.259 OA
BRANCH  28  30
HETATM   30  O   UNL     1      -5.408   6.670 -29.733  1.00  0.00    -0.323 OA
HETATM   31  C   UNL     1      -4.145   6.829 -29.082  1.00  0.00     0.213 C 
ENDBRANCH  28  30
ENDBRANCH  10  28
TORSDOF 6
ENDMDL
MODEL 8
REMARK VINA RESULT:      -8.0      2.277      3.000
REMARK  6 active torsions:
REMARK  status: ('A' for Active; 'I' for Inactive)
REMARK    1  A    between atoms: C_7  and  S_8 
REMARK    2  A    between atoms: S_8  and  C_9 
REMARK    3  A    between atoms: C_9  and  C_10 
REMARK    4  A    between atoms: C_18  and  C_19 
REMARK    5  A    between atoms: C_26  and  C_27 
REMARK    6  A    between atoms: C_27  and  O_28 
ROOT
HETATM    1  C   UNL     1      -9.375   5.847 -30.120  1.00  0.00     0.070 C 
HETATM    2  C   UNL     1      -8.585   4.632 -30.545  1.00  0.00     0.037 A 
HETATM    3  N   UNL     1      -9.280   3.705 -31.313  1.00  0.00    -0.192 N 
HETATM    4  C   UNL     1      -8.741   2.555 -31.756  1.00  0.00     0.726 A 
HETATM    5  N   UNL     1      -7.449   2.251 -31.433  1.00  0.00    -0.082 N 
HETATM    6  N   UNL     1      -7.091   1.047 -31.926  1.00  0.00    -0.128 NA
HETATM    7  C   UNL     1      -8.198   0.713 -32.602  1.00  0.00     0.226 A 
HETATM    8  N   UNL     1      -9.237   1.606 -32.502  1.00  0.00    -0.035 NA
HETATM    9  C   UNL     1      -6.568   3.129 -30.651  1.00  0.00     0.203 A 
HETATM   10  C   UNL     1      -7.293   4.395 -30.210  1.00  0.00     0.070 A 
HETATM   11  H   UNL     1     -10.243   3.921 -31.560  1.00  0.00     0.184 HD
ENDROOT
BRANCH   7  12
HETATM   12  S   UNL     1      -8.325  -0.707 -33.601  1.00  0.00    -0.083 SA
BRANCH  12  13
HETATM   13  C   UNL     1      -6.752  -0.663 -34.503  1.00  0.00     0.123 C 
BRANCH  13  14
HETATM   14  C   UNL     1      -6.070  -2.014 -34.484  1.00  0.00    -0.027 A 
HETATM   15  C   UNL     1      -4.752  -2.200 -34.039  1.00  0.00     0.041 A 
HETATM   16 CL   UNL     1      -3.771  -0.882 -33.507  1.00  0.00    -0.084 Cl
HETATM   17  C   UNL     1      -4.185  -3.479 -34.014  1.00  0.00     0.024 A 
HETATM   18  C   UNL     1      -4.922  -4.586 -34.432  1.00  0.00     0.002 A 
HETATM   19  C   UNL     1      -6.231  -4.418 -34.874  1.00  0.00     0.001 A 
HETATM   20  C   UNL     1      -6.802  -3.145 -34.897  1.00  0.00     0.009 A 
ENDBRANCH  13  14
ENDBRANCH  12  13
ENDBRANCH   7  12
BRANCH   9  21
HETATM   21  C   UNL     1      -5.290   3.423 -31.435  1.00  0.00    -0.026 A 
HETATM   22  C   UNL     1      -5.372   4.051 -32.691  1.00  0.00     0.033 A 
HETATM   23  C   UNL     1      -4.215   4.309 -33.426  1.00  0.00     0.034 A 
HETATM   24 CL   UNL     1      -4.336   5.070 -34.965  1.00  0.00    -0.084 Cl
HETATM   25  C   UNL     1      -2.965   3.953 -32.926  1.00  0.00     0.024 A 
HETATM   26  C   UNL     1      -2.870   3.329 -31.683  1.00  0.00     0.002 A 
HETATM   27  C   UNL     1      -4.024   3.062 -30.943  1.00  0.00     0.010 A 
ENDBRANCH   9  21
BRANCH  10  28
HETATM   28  C   UNL     1      -6.502   5.378 -29.446  1.00  0.00     0.293 C 
HETATM   29  O   UNL     1      -6.270   5.297 -28.250  1.00  0.00    -0.259 OA
BRANCH  28  30
HETATM   30  O   UNL     1      -6.086   6.367 -30.276  1.00  0.00    -0.323 OA
HETATM   31  C   UNL     1      -5.833   7.606 -29.609  1.00  0.00     0.213 C 
ENDBRANCH  28  30
ENDBRANCH  10  28
TORSDOF 6
ENDMDL
MODEL 9
REMARK VINA RESULT:      -7.8      2.877      4.438
REMARK  6 active torsions:
REMARK  status: ('A' for Active; 'I' for Inactive)
REMARK    1  A    between atoms: C_7  and  S_8 
REMARK    2  A    between atoms: S_8  and  C_9 
REMARK    3  A    between atoms: C_9  and  C_10 
REMARK    4  A    between atoms: C_18  and  C_19 
REMARK    5  A    between atoms: C_26  and  C_27 
REMARK    6  A    between atoms: C_27  and  O_28 
ROOT
HETATM    1  C   UNL     1       0.328   6.230 -31.115  1.00  0.00     0.070 C 
HETATM    2  C   UNL     1      -1.122   5.851 -31.296  1.00  0.00     0.037 A 
HETATM    3  N   UNL     1      -1.391   4.488 -31.278  1.00  0.00    -0.192 N 
HETATM    4  C   UNL     1      -2.622   3.972 -31.450  1.00  0.00     0.726 A 
HETATM    5  N   UNL     1      -3.677   4.812 -31.675  1.00  0.00    -0.082 N 
HETATM    6  N   UNL     1      -4.821   4.122 -31.865  1.00  0.00    -0.128 NA
HETATM    7  C   UNL     1      -4.394   2.868 -31.665  1.00  0.00     0.226 A 
HETATM    8  N   UNL     1      -3.046   2.738 -31.430  1.00  0.00    -0.035 NA
HETATM    9  C   UNL     1      -3.570   6.277 -31.702  1.00  0.00     0.203 A 
HETATM   10  C   UNL     1      -2.131   6.734 -31.495  1.00  0.00     0.070 A 
HETATM   11  H   UNL     1      -0.614   3.853 -31.111  1.00  0.00     0.184 HD
ENDROOT
BRANCH   7  12
HETATM   12  S   UNL     1      -5.450   1.485 -31.633  1.00  0.00    -0.083 SA
BRANCH  12  13
HETATM   13  C   UNL     1      -5.804   1.253 -33.397  1.00  0.00     0.123 C 
BRANCH  13  14
HETATM   14  C   UNL     1      -5.754  -0.210 -33.779  1.00  0.00    -0.027 A 
HETATM   15  C   UNL     1      -4.585  -0.983 -33.701  1.00  0.00     0.041 A 
HETATM   16 CL   UNL     1      -3.075  -0.311 -33.196  1.00  0.00    -0.084 Cl
HETATM   17  C   UNL     1      -4.607  -2.341 -34.038  1.00  0.00     0.024 A 
HETATM   18  C   UNL     1      -5.792  -2.945 -34.455  1.00  0.00     0.002 A 
HETATM   19  C   UNL     1      -6.960  -2.194 -34.535  1.00  0.00     0.001 A 
HETATM   20  C   UNL     1      -6.943  -0.840 -34.197  1.00  0.00     0.009 A 
ENDBRANCH  13  14
ENDBRANCH  12  13
ENDBRANCH   7  12
BRANCH   9  21
HETATM   21  C   UNL     1      -4.536   6.892 -30.691  1.00  0.00    -0.026 A 
HETATM   22  C   UNL     1      -4.383   6.613 -29.321  1.00  0.00     0.033 A 
HETATM   23  C   UNL     1      -5.269   7.152 -28.388  1.00  0.00     0.034 A 
HETATM   24 CL   UNL     1      -5.071   6.792 -26.718  1.00  0.00    -0.084 Cl
HETATM   25  C   UNL     1      -6.314   7.977 -28.799  1.00  0.00     0.024 A 
HETATM   26  C   UNL     1      -6.478   8.261 -30.154  1.00  0.00     0.002 A 
HETATM   27  C   UNL     1      -5.599   7.719 -31.095  1.00  0.00     0.010 A 
ENDBRANCH   9  21
BRANCH  10  28
HETATM   28  C   UNL     1      -1.898   8.191 -31.464  1.00  0.00     0.293 C 
HETATM   29  O   UNL     1      -1.892   8.909 -32.451  1.00  0.00    -0.259 OA
BRANCH  28  30
HETATM   30  O   UNL     1      -1.693   8.589 -30.183  1.00  0.00    -0.323 OA
HETATM   31  C   UNL     1      -2.398   9.783 -29.836  1.00  0.00     0.213 C 
ENDBRANCH  28  30
ENDBRANCH  10  28
TORSDOF 6
ENDMDL
MODEL 10
REMARK VINA RESULT:      -7.7      4.542      6.546
REMARK  6 active torsions:
REMARK  status: ('A' for Active; 'I' for Inactive)
REMARK    1  A    between atoms: C_7  and  S_8 
REMARK    2  A    between atoms: S_8  and  C_9 
REMARK    3  A    between atoms: C_9  and  C_10 
REMARK    4  A    between atoms: C_18  and  C_19 
REMARK    5  A    between atoms: C_26  and  C_27 
REMARK    6  A    between atoms: C_27  and  O_28 
ROOT
HETATM    1  C   UNL     1      -3.094   5.253 -34.303  1.00  0.00     0.070 C 
HETATM    2  C   UNL     1      -4.379   4.868 -33.610  1.00  0.00     0.037 A 
HETATM    3  N   UNL     1      -5.547   5.193 -34.289  1.00  0.00    -0.192 N 
HETATM    4  C   UNL     1      -6.778   4.947 -33.807  1.00  0.00     0.726 A 
HETATM    5  N   UNL     1      -6.915   4.363 -32.579  1.00  0.00    -0.082 N 
HETATM    6  N   UNL     1      -8.215   4.230 -32.241  1.00  0.00    -0.128 NA
HETATM    7  C   UNL     1      -8.811   4.688 -33.350  1.00  0.00     0.226 A 
HETATM    8  N   UNL     1      -7.959   5.155 -34.323  1.00  0.00    -0.035 NA
HETATM    9  C   UNL     1      -5.786   3.935 -31.741  1.00  0.00     0.203 A 
HETATM   10  C   UNL     1      -4.451   4.268 -32.396  1.00  0.00     0.070 A 
HETATM   11  H   UNL     1      -5.458   5.627 -35.204  1.00  0.00     0.184 HD
ENDROOT
BRANCH   7  12
HETATM   12  S   UNL     1     -10.532   4.649 -33.605  1.00  0.00    -0.083 SA
BRANCH  12  13
HETATM   13  C   UNL     1     -11.067   3.489 -32.318  1.00  0.00     0.123 C 
BRANCH  13  14
HETATM   14  C   UNL     1     -12.082   2.503 -32.854  1.00  0.00    -0.027 A 
HETATM   15  C   UNL     1     -11.724   1.289 -33.461  1.00  0.00     0.041 A 
HETATM   16 CL   UNL     1     -10.074   0.830 -33.686  1.00  0.00    -0.084 Cl
HETATM   17  C   UNL     1     -12.708   0.401 -33.910  1.00  0.00     0.024 A 
HETATM   18  C   UNL     1     -14.059   0.712 -33.760  1.00  0.00     0.002 A 
HETATM   19  C   UNL     1     -14.430   1.910 -33.159  1.00  0.00     0.001 A 
HETATM   20  C   UNL     1     -13.452   2.797 -32.706  1.00  0.00     0.009 A 
ENDBRANCH  13  14
ENDBRANCH  12  13
ENDBRANCH   7  12
BRANCH   9  21
HETATM   21  C   UNL     1      -5.922   2.454 -31.396  1.00  0.00    -0.026 A 
HETATM   22  C   UNL     1      -6.087   1.510 -32.425  1.00  0.00     0.033 A 
HETATM   23  C   UNL     1      -6.230   0.155 -32.124  1.00  0.00     0.034 A 
HETATM   24 CL   UNL     1      -6.441  -0.983 -33.396  1.00  0.00    -0.084 Cl
HETATM   25  C   UNL     1      -6.207  -0.281 -30.801  1.00  0.00     0.024 A 
HETATM   26  C   UNL     1      -6.045   0.644 -29.771  1.00  0.00     0.002 A 
HETATM   27  C   UNL     1      -5.907   2.003 -30.064  1.00  0.00     0.010 A 
ENDBRANCH   9  21
BRANCH  10  28
HETATM   28  C   UNL     1      -3.236   3.854 -31.667  1.00  0.00     0.293 C 
HETATM   29  O   UNL     1      -2.723   2.750 -31.752  1.00  0.00    -0.259 OA
BRANCH  28  30
HETATM   30  O   UNL     1      -2.797   4.884 -30.900  1.00  0.00    -0.323 OA
HETATM   31  C   UNL     1      -1.414   5.190 -31.093  1.00  0.00     0.213 C 
ENDBRANCH  28  30
ENDBRANCH  10  28
TORSDOF 6
ENDMDL
