MODEL 1
REMARK VINA RESULT:      -9.5      0.000      0.000
REMARK  7 active torsions:
REMARK  status: ('A' for Active; 'I' for Inactive)
REMARK    1  A    between atoms: C_2  and  C_3 
REMARK    2  A    between atoms: C_3  and  N_4 
REMARK       I    between atoms: N_4  and  C_5 
REMARK    3  A    between atoms: C_5  and  C_6 
REMARK    4  A    between atoms: C_7  and  N_8 
REMARK    5  A    between atoms: N_9  and  N_10 
REMARK    6  A    between atoms: C_11  and  C_12 
REMARK    7  A    between atoms: C_13  and  O_14 
ROOT
HETATM    1  C   UNL     1      -7.529   2.001 -32.024  1.00  0.00     0.104 C 
HETATM    2  C   UNL     1      -6.474   2.710 -31.465  1.00  0.00     0.123 C 
HETATM    3  N   UNL     1      -5.297   2.263 -32.055  1.00  0.00    -0.202 N 
HETATM    4  C   UNL     1      -5.554   1.030 -32.628  1.00  0.00     0.183 A 
HETATM    5  C   UNL     1      -6.938   0.866 -32.644  1.00  0.00     0.124 A 
HETATM    6  N   UNL     1      -7.504  -0.223 -33.220  1.00  0.00    -0.242 NA
HETATM    7  C   UNL     1      -6.643  -1.132 -33.697  1.00  0.00     0.086 A 
HETATM    8  C   UNL     1      -5.235  -0.951 -33.650  1.00  0.00     0.088 A 
HETATM    9  N   UNL     1      -4.657   0.146 -33.132  1.00  0.00    -0.225 NA
HETATM   10  C   UNL     1      -7.155  -2.297 -34.253  1.00  0.00     0.034 A 
HETATM   11  C   UNL     1      -6.319  -3.293 -34.760  1.00  0.00     0.002 A 
HETATM   12  C   UNL     1      -4.944  -3.120 -34.713  1.00  0.00     0.002 A 
HETATM   13  C   UNL     1      -4.417  -1.951 -34.162  1.00  0.00     0.034 A 
ENDROOT
BRANCH   3  14
HETATM   14  N   UNL     1      -4.179   3.068 -32.045  1.00  0.00    -0.176 NA
HETATM   15  C   UNL     1      -3.936   3.750 -33.118  1.00  0.00     0.153 C 
BRANCH  15  16
HETATM   16  C   UNL     1      -2.885   4.796 -33.104  1.00  0.00     0.017 A 
HETATM   17  C   UNL     1      -2.772   5.744 -34.132  1.00  0.00     0.077 A 
HETATM   18  C   UNL     1      -1.720   6.656 -34.145  1.00  0.00     0.039 A 
HETATM   19  C   UNL     1      -0.765   6.621 -33.129  1.00  0.00     0.022 A 
HETATM   20  C   UNL     1      -0.876   5.678 -32.105  1.00  0.00     0.012 A 
HETATM   21 BR   UNL     1       0.433   5.624 -30.742  1.00  0.00    -0.051 Br
HETATM   22  C   UNL     1      -1.930   4.762 -32.085  1.00  0.00     0.034 A 
BRANCH  17  23
HETATM   23  O   UNL     1      -3.648   5.811 -35.181  1.00  0.00    -0.360 OA
HETATM   24  H   UNL     1      -3.616   4.935 -35.622  1.00  0.00     0.217 HD
ENDBRANCH  17  23
ENDBRANCH  15  16
ENDBRANCH   3  14
BRANCH   2  25
HETATM   25  N   UNL     1      -6.469   3.775 -30.603  1.00  0.00    -0.286 NA
HETATM   26  H   UNL     1      -6.059   4.647 -30.947  1.00  0.00     0.125 HD
HETATM   27  H   UNL     1      -7.357   3.981 -30.140  1.00  0.00     0.125 HD
ENDBRANCH   2  25
BRANCH   1  28
HETATM   28  C   UNL     1      -8.937   2.393 -32.023  1.00  0.00     0.257 C 
HETATM   29  N   UNL     1      -9.542   2.241 -33.259  1.00  0.00    -0.352 N 
HETATM   30  H   UNL     1      -8.940   1.824 -33.964  1.00  0.00     0.163 HD
HETATM   31  O   UNL     1      -9.549   2.711 -31.013  1.00  0.00    -0.267 OA
BRANCH  29  32
HETATM   32  C   UNL     1     -10.972   2.020 -33.423  1.00  0.00     0.080 C 
HETATM   33  C   UNL     1     -11.498   2.653 -34.711  1.00  0.00     0.032 C 
BRANCH  32  34
HETATM   34  C   UNL     1     -11.282   0.509 -33.426  1.00  0.00     0.020 C 
HETATM   35  C   UNL     1     -12.755   0.189 -33.660  1.00  0.00     0.007 C 
ENDBRANCH  32  34
ENDBRANCH  29  32
ENDBRANCH   1  28
TORSDOF 7
ENDMDL
MODEL 2
REMARK VINA RESULT:      -9.1      3.542      7.162
REMARK  7 active torsions:
REMARK  status: ('A' for Active; 'I' for Inactive)
REMARK    1  A    between atoms: C_2  and  C_3 
REMARK    2  A    between atoms: C_3  and  N_4 
REMARK       I    between atoms: N_4  and  C_5 
REMARK    3  A    between atoms: C_5  and  C_6 
REMARK    4  A    between atoms: C_7  and  N_8 
REMARK    5  A    between atoms: N_9  and  N_10 
REMARK    6  A    between atoms: C_11  and  C_12 
REMARK    7  A    between atoms: C_13  and  O_14 
ROOT
HETATM    1  C   UNL     1      -5.083   1.139 -33.068  1.00  0.00     0.104 C 
HETATM    2  C   UNL     1      -6.051   1.795 -33.818  1.00  0.00     0.123 C 
HETATM    3  N   UNL     1      -6.931   0.839 -34.314  1.00  0.00    -0.202 N 
HETATM    4  C   UNL     1      -6.296  -0.390 -34.252  1.00  0.00     0.183 A 
HETATM    5  C   UNL     1      -5.164  -0.226 -33.456  1.00  0.00     0.124 A 
HETATM    6  N   UNL     1      -4.372  -1.283 -33.145  1.00  0.00    -0.242 NA
HETATM    7  C   UNL     1      -4.724  -2.447 -33.707  1.00  0.00     0.086 A 
HETATM    8  C   UNL     1      -5.872  -2.583 -34.533  1.00  0.00     0.088 A 
HETATM    9  N   UNL     1      -6.698  -1.559 -34.807  1.00  0.00    -0.225 NA
HETATM   10  C   UNL     1      -3.926  -3.559 -33.474  1.00  0.00     0.034 A 
HETATM   11  C   UNL     1      -4.223  -4.803 -34.034  1.00  0.00     0.002 A 
HETATM   12  C   UNL     1      -5.343  -4.937 -34.842  1.00  0.00     0.002 A 
HETATM   13  C   UNL     1      -6.156  -3.829 -35.080  1.00  0.00     0.034 A 
ENDROOT
BRANCH   3  14
HETATM   14  N   UNL     1      -8.203   1.210 -34.689  1.00  0.00    -0.176 NA
HETATM   15  C   UNL     1      -9.113   1.199 -33.769  1.00  0.00     0.153 C 
BRANCH  15  16
HETATM   16  C   UNL     1     -10.445   1.792 -34.043  1.00  0.00     0.017 A 
HETATM   17  C   UNL     1     -10.600   3.153 -34.345  1.00  0.00     0.077 A 
HETATM   18  C   UNL     1     -11.869   3.705 -34.504  1.00  0.00     0.039 A 
HETATM   19  C   UNL     1     -12.996   2.897 -34.355  1.00  0.00     0.022 A 
HETATM   20  C   UNL     1     -12.843   1.542 -34.054  1.00  0.00     0.012 A 
HETATM   21 BR   UNL     1     -14.376   0.457 -33.834  1.00  0.00    -0.051 Br
HETATM   22  C   UNL     1     -11.574   0.981 -33.895  1.00  0.00     0.034 A 
BRANCH  17  23
HETATM   23  O   UNL     1      -9.543   4.013 -34.466  1.00  0.00    -0.360 OA
HETATM   24  H   UNL     1      -8.742   3.498 -34.230  1.00  0.00     0.217 HD
ENDBRANCH  17  23
ENDBRANCH  15  16
ENDBRANCH   3  14
BRANCH   2  25
HETATM   25  N   UNL     1      -6.296   3.132 -33.989  1.00  0.00    -0.286 NA
HETATM   26  H   UNL     1      -6.340   3.708 -33.144  1.00  0.00     0.125 HD
HETATM   27  H   UNL     1      -5.721   3.608 -34.689  1.00  0.00     0.125 HD
ENDBRANCH   2  25
BRANCH   1  28
HETATM   28  C   UNL     1      -4.222   1.735 -32.050  1.00  0.00     0.257 C 
HETATM   29  N   UNL     1      -3.486   2.808 -32.524  1.00  0.00    -0.352 N 
HETATM   30  H   UNL     1      -3.699   3.061 -33.484  1.00  0.00     0.163 HD
HETATM   31  O   UNL     1      -4.232   1.398 -30.873  1.00  0.00    -0.267 OA
BRANCH  29  32
HETATM   32  C   UNL     1      -3.007   3.884 -31.667  1.00  0.00     0.080 C 
HETATM   33  C   UNL     1      -1.813   4.610 -32.286  1.00  0.00     0.032 C 
BRANCH  32  34
HETATM   34  C   UNL     1      -4.140   4.893 -31.393  1.00  0.00     0.020 C 
HETATM   35  C   UNL     1      -4.361   5.887 -32.529  1.00  0.00     0.007 C 
ENDBRANCH  32  34
ENDBRANCH  29  32
ENDBRANCH   1  28
TORSDOF 7
ENDMDL
MODEL 3
REMARK VINA RESULT:      -8.8      1.353      1.577
REMARK  7 active torsions:
REMARK  status: ('A' for Active; 'I' for Inactive)
REMARK    1  A    between atoms: C_2  and  C_3 
REMARK    2  A    between atoms: C_3  and  N_4 
REMARK       I    between atoms: N_4  and  C_5 
REMARK    3  A    between atoms: C_5  and  C_6 
REMARK    4  A    between atoms: C_7  and  N_8 
REMARK    5  A    between atoms: N_9  and  N_10 
REMARK    6  A    between atoms: C_11  and  C_12 
REMARK    7  A    between atoms: C_13  and  O_14 
ROOT
HETATM    1  C   UNL     1      -7.765   2.255 -32.956  1.00  0.00     0.104 C 
HETATM    2  C   UNL     1      -6.870   3.011 -32.209  1.00  0.00     0.123 C 
HETATM    3  N   UNL     1      -5.594   2.500 -32.422  1.00  0.00    -0.202 N 
HETATM    4  C   UNL     1      -5.732   1.216 -32.922  1.00  0.00     0.183 A 
HETATM    5  C   UNL     1      -7.068   1.060 -33.285  1.00  0.00     0.124 A 
HETATM    6  N   UNL     1      -7.499  -0.079 -33.883  1.00  0.00    -0.242 NA
HETATM    7  C   UNL     1      -6.572  -1.036 -34.027  1.00  0.00     0.086 A 
HETATM    8  C   UNL     1      -5.221  -0.860 -33.627  1.00  0.00     0.088 A 
HETATM    9  N   UNL     1      -4.764   0.281 -33.084  1.00  0.00    -0.225 NA
HETATM   10  C   UNL     1      -6.958  -2.248 -34.583  1.00  0.00     0.034 A 
HETATM   11  C   UNL     1      -6.051  -3.296 -34.753  1.00  0.00     0.002 A 
HETATM   12  C   UNL     1      -4.731  -3.126 -34.363  1.00  0.00     0.002 A 
HETATM   13  C   UNL     1      -4.329  -1.911 -33.807  1.00  0.00     0.034 A 
ENDROOT
BRANCH   3  14
HETATM   14  N   UNL     1      -4.493   3.295 -32.195  1.00  0.00    -0.176 NA
HETATM   15  C   UNL     1      -3.933   3.833 -33.231  1.00  0.00     0.153 C 
BRANCH  15  16
HETATM   16  C   UNL     1      -2.887   4.869 -33.048  1.00  0.00     0.017 A 
HETATM   17  C   UNL     1      -2.682   5.886 -33.992  1.00  0.00     0.077 A 
HETATM   18  C   UNL     1      -1.632   6.789 -33.846  1.00  0.00     0.039 A 
HETATM   19  C   UNL     1      -0.773   6.677 -32.753  1.00  0.00     0.022 A 
HETATM   20  C   UNL     1      -0.976   5.665 -31.813  1.00  0.00     0.012 A 
HETATM   21 BR   UNL     1       0.204   5.507 -30.344  1.00  0.00    -0.051 Br
HETATM   22  C   UNL     1      -2.028   4.757 -31.952  1.00  0.00     0.034 A 
BRANCH  17  23
HETATM   23  O   UNL     1      -3.459   6.032 -35.110  1.00  0.00    -0.360 OA
HETATM   24  H   UNL     1      -3.448   5.163 -35.567  1.00  0.00     0.217 HD
ENDBRANCH  17  23
ENDBRANCH  15  16
ENDBRANCH   3  14
BRANCH   2  25
HETATM   25  N   UNL     1      -7.056   4.158 -31.483  1.00  0.00    -0.286 NA
HETATM   26  H   UNL     1      -7.218   4.050 -30.479  1.00  0.00     0.125 HD
HETATM   27  H   UNL     1      -6.368   4.900 -31.634  1.00  0.00     0.125 HD
ENDBRANCH   2  25
BRANCH   1  28
HETATM   28  C   UNL     1      -9.110   2.653 -33.364  1.00  0.00     0.257 C 
HETATM   29  N   UNL     1      -9.969   2.831 -32.293  1.00  0.00    -0.352 N 
HETATM   30  H   UNL     1      -9.526   2.720 -31.386  1.00  0.00     0.163 HD
HETATM   31  O   UNL     1      -9.416   2.915 -34.519  1.00  0.00    -0.267 OA
BRANCH  29  32
HETATM   32  C   UNL     1     -11.125   3.715 -32.339  1.00  0.00     0.080 C 
HETATM   33  C   UNL     1     -12.379   2.982 -32.814  1.00  0.00     0.032 C 
BRANCH  32  34
HETATM   34  C   UNL     1     -11.382   4.331 -30.949  1.00  0.00     0.020 C 
HETATM   35  C   UNL     1     -12.819   4.164 -30.463  1.00  0.00     0.007 C 
ENDBRANCH  32  34
ENDBRANCH  29  32
ENDBRANCH   1  28
TORSDOF 7
ENDMDL
MODEL 4
REMARK VINA RESULT:      -8.6      3.262      7.890
REMARK  7 active torsions:
REMARK  status: ('A' for Active; 'I' for Inactive)
REMARK    1  A    between atoms: C_2  and  C_3 
REMARK    2  A    between atoms: C_3  and  N_4 
REMARK       I    between atoms: N_4  and  C_5 
REMARK    3  A    between atoms: C_5  and  C_6 
REMARK    4  A    between atoms: C_7  and  N_8 
REMARK    5  A    between atoms: N_9  and  N_10 
REMARK    6  A    between atoms: C_11  and  C_12 
REMARK    7  A    between atoms: C_13  and  O_14 
ROOT
HETATM    1  C   UNL     1      -4.427   0.939 -31.334  1.00  0.00     0.104 C 
HETATM    2  C   UNL     1      -5.786   0.936 -31.045  1.00  0.00     0.123 C 
HETATM    3  N   UNL     1      -6.327   2.127 -31.518  1.00  0.00    -0.202 N 
HETATM    4  C   UNL     1      -5.287   3.023 -31.692  1.00  0.00     0.183 A 
HETATM    5  C   UNL     1      -4.102   2.295 -31.611  1.00  0.00     0.124 A 
HETATM    6  N   UNL     1      -2.901   2.892 -31.821  1.00  0.00    -0.242 NA
HETATM    7  C   UNL     1      -2.949   4.213 -32.038  1.00  0.00     0.086 A 
HETATM    8  C   UNL     1      -4.170   4.936 -32.094  1.00  0.00     0.088 A 
HETATM    9  N   UNL     1      -5.371   4.353 -31.944  1.00  0.00    -0.225 NA
HETATM   10  C   UNL     1      -1.752   4.896 -32.207  1.00  0.00     0.034 A 
HETATM   11  C   UNL     1      -1.722   6.274 -32.426  1.00  0.00     0.002 A 
HETATM   12  C   UNL     1      -2.913   6.983 -32.480  1.00  0.00     0.002 A 
HETATM   13  C   UNL     1      -4.123   6.307 -32.317  1.00  0.00     0.034 A 
ENDROOT
BRANCH   3  14
HETATM   14  N   UNL     1      -7.676   2.206 -31.783  1.00  0.00    -0.176 NA
HETATM   15  C   UNL     1      -8.030   2.220 -33.029  1.00  0.00     0.153 C 
BRANCH  15  16
HETATM   16  C   UNL     1      -9.462   2.082 -33.390  1.00  0.00     0.017 A 
HETATM   17  C   UNL     1     -10.181   0.906 -33.128  1.00  0.00     0.077 A 
HETATM   18  C   UNL     1     -11.497   0.767 -33.562  1.00  0.00     0.039 A 
HETATM   19  C   UNL     1     -12.103   1.805 -34.269  1.00  0.00     0.022 A 
HETATM   20  C   UNL     1     -11.389   2.976 -34.531  1.00  0.00     0.012 A 
HETATM   21 BR   UNL     1     -12.210   4.370 -35.507  1.00  0.00    -0.051 Br
HETATM   22  C   UNL     1     -10.069   3.123 -34.097  1.00  0.00     0.034 A 
BRANCH  17  23
HETATM   23  O   UNL     1      -9.638  -0.168 -32.475  1.00  0.00    -0.360 OA
HETATM   24  H   UNL     1      -9.086   0.201 -31.752  1.00  0.00     0.217 HD
ENDBRANCH  17  23
ENDBRANCH  15  16
ENDBRANCH   3  14
BRANCH   2  25
HETATM   25  N   UNL     1      -6.591  -0.049 -30.537  1.00  0.00    -0.286 NA
HETATM   26  H   UNL     1      -6.207  -0.997 -30.518  1.00  0.00     0.125 HD
HETATM   27  H   UNL     1      -7.032   0.153 -29.636  1.00  0.00     0.125 HD
ENDBRANCH   2  25
BRANCH   1  28
HETATM   28  C   UNL     1      -3.551  -0.228 -31.400  1.00  0.00     0.257 C 
HETATM   29  N   UNL     1      -4.160  -1.330 -31.976  1.00  0.00    -0.352 N 
HETATM   30  H   UNL     1      -5.097  -1.149 -32.321  1.00  0.00     0.163 HD
HETATM   31  O   UNL     1      -2.368  -0.203 -31.088  1.00  0.00    -0.267 OA
BRANCH  29  32
HETATM   32  C   UNL     1      -3.419  -2.386 -32.652  1.00  0.00     0.080 C 
HETATM   33  C   UNL     1      -3.099  -3.546 -31.709  1.00  0.00     0.032 C 
BRANCH  32  34
HETATM   34  C   UNL     1      -4.218  -2.908 -33.862  1.00  0.00     0.020 C 
HETATM   35  C   UNL     1      -5.447  -2.065 -34.193  1.00  0.00     0.007 C 
ENDBRANCH  32  34
ENDBRANCH  29  32
ENDBRANCH   1  28
TORSDOF 7
ENDMDL
MODEL 5
REMARK VINA RESULT:      -8.4      3.100      7.154
REMARK  7 active torsions:
REMARK  status: ('A' for Active; 'I' for Inactive)
REMARK    1  A    between atoms: C_2  and  C_3 
REMARK    2  A    between atoms: C_3  and  N_4 
REMARK       I    between atoms: N_4  and  C_5 
REMARK    3  A    between atoms: C_5  and  C_6 
REMARK    4  A    between atoms: C_7  and  N_8 
REMARK    5  A    between atoms: N_9  and  N_10 
REMARK    6  A    between atoms: C_11  and  C_12 
REMARK    7  A    between atoms: C_13  and  O_14 
ROOT
HETATM    1  C   UNL     1      -5.001   1.935 -32.707  1.00  0.00     0.104 C 
HETATM    2  C   UNL     1      -6.178   2.659 -32.849  1.00  0.00     0.123 C 
HETATM    3  N   UNL     1      -7.225   1.752 -32.982  1.00  0.00    -0.202 N 
HETATM    4  C   UNL     1      -6.684   0.534 -33.354  1.00  0.00     0.183 A 
HETATM    5  C   UNL     1      -5.306   0.622 -33.160  1.00  0.00     0.124 A 
HETATM    6  N   UNL     1      -4.504  -0.452 -33.366  1.00  0.00    -0.242 NA
HETATM    7  C   UNL     1      -5.122  -1.549 -33.825  1.00  0.00     0.086 A 
HETATM    8  C   UNL     1      -6.525  -1.606 -34.036  1.00  0.00     0.088 A 
HETATM    9  N   UNL     1      -7.343  -0.569 -33.785  1.00  0.00    -0.225 NA
HETATM   10  C   UNL     1      -4.351  -2.668 -34.109  1.00  0.00     0.034 A 
HETATM   11  C   UNL     1      -4.922  -3.843 -34.601  1.00  0.00     0.002 A 
HETATM   12  C   UNL     1      -6.293  -3.901 -34.809  1.00  0.00     0.002 A 
HETATM   13  C   UNL     1      -7.079  -2.784 -34.522  1.00  0.00     0.034 A 
ENDROOT
BRANCH   3  14
HETATM   14  N   UNL     1      -8.511   2.146 -32.685  1.00  0.00    -0.176 NA
HETATM   15  C   UNL     1      -9.285   2.427 -33.684  1.00  0.00     0.153 C 
BRANCH  15  16
HETATM   16  C   UNL     1     -10.734   2.644 -33.455  1.00  0.00     0.017 A 
HETATM   17  C   UNL     1     -11.697   2.255 -34.398  1.00  0.00     0.077 A 
HETATM   18  C   UNL     1     -13.043   2.555 -34.203  1.00  0.00     0.039 A 
HETATM   19  C   UNL     1     -13.435   3.255 -33.063  1.00  0.00     0.022 A 
HETATM   20  C   UNL     1     -12.478   3.643 -32.123  1.00  0.00     0.012 A 
HETATM   21 BR   UNL     1     -13.015   4.609 -30.589  1.00  0.00    -0.051 Br
HETATM   22  C   UNL     1     -11.127   3.344 -32.311  1.00  0.00     0.034 A 
BRANCH  17  23
HETATM   23  O   UNL     1     -11.381   1.602 -35.559  1.00  0.00    -0.360 OA
HETATM   24  H   UNL     1     -10.862   0.812 -35.295  1.00  0.00     0.217 HD
ENDBRANCH  17  23
ENDBRANCH  15  16
ENDBRANCH   3  14
BRANCH   2  25
HETATM   25  N   UNL     1      -6.421   4.003 -32.740  1.00  0.00    -0.286 NA
HETATM   26  H   UNL     1      -6.095   4.466 -31.888  1.00  0.00     0.125 HD
HETATM   27  H   UNL     1      -6.162   4.571 -33.551  1.00  0.00     0.125 HD
ENDBRANCH   2  25
BRANCH   1  28
HETATM   28  C   UNL     1      -3.744   2.422 -32.144  1.00  0.00     0.257 C 
HETATM   29  N   UNL     1      -3.410   3.691 -32.585  1.00  0.00    -0.352 N 
HETATM   30  H   UNL     1      -4.112   4.118 -33.181  1.00  0.00     0.163 HD
HETATM   31  O   UNL     1      -3.111   1.823 -31.285  1.00  0.00    -0.267 OA
BRANCH  29  32
HETATM   32  C   UNL     1      -2.575   4.605 -31.818  1.00  0.00     0.080 C 
HETATM   33  C   UNL     1      -1.304   4.983 -32.577  1.00  0.00     0.032 C 
BRANCH  32  34
HETATM   34  C   UNL     1      -3.366   5.882 -31.466  1.00  0.00     0.020 C 
HETATM   35  C   UNL     1      -4.378   5.683 -30.342  1.00  0.00     0.007 C 
ENDBRANCH  32  34
ENDBRANCH  29  32
ENDBRANCH   1  28
TORSDOF 7
ENDMDL
MODEL 6
REMARK VINA RESULT:      -8.4      3.646      8.181
REMARK  7 active torsions:
REMARK  status: ('A' for Active; 'I' for Inactive)
REMARK    1  A    between atoms: C_2  and  C_3 
REMARK    2  A    between atoms: C_3  and  N_4 
REMARK       I    between atoms: N_4  and  C_5 
REMARK    3  A    between atoms: C_5  and  C_6 
REMARK    4  A    between atoms: C_7  and  N_8 
REMARK    5  A    between atoms: N_9  and  N_10 
REMARK    6  A    between atoms: C_11  and  C_12 
REMARK    7  A    between atoms: C_13  and  O_14 
ROOT
HETATM    1  C   UNL     1      -4.003   3.303 -31.387  1.00  0.00     0.104 C 
HETATM    2  C   UNL     1      -3.779   1.951 -31.163  1.00  0.00     0.123 C 
HETATM    3  N   UNL     1      -5.003   1.295 -31.247  1.00  0.00    -0.202 N 
HETATM    4  C   UNL     1      -6.001   2.240 -31.087  1.00  0.00     0.183 A 
HETATM    5  C   UNL     1      -5.399   3.492 -31.202  1.00  0.00     0.124 A 
HETATM    6  N   UNL     1      -6.142   4.628 -31.166  1.00  0.00    -0.242 NA
HETATM    7  C   UNL     1      -7.452   4.448 -30.948  1.00  0.00     0.086 A 
HETATM    8  C   UNL     1      -8.036   3.162 -30.812  1.00  0.00     0.088 A 
HETATM    9  N   UNL     1      -7.325   2.024 -30.900  1.00  0.00    -0.225 NA
HETATM   10  C   UNL     1      -8.262   5.571 -30.846  1.00  0.00     0.034 A 
HETATM   11  C   UNL     1      -9.633   5.464 -30.608  1.00  0.00     0.002 A 
HETATM   12  C   UNL     1     -10.206   4.208 -30.474  1.00  0.00     0.002 A 
HETATM   13  C   UNL     1      -9.404   3.071 -30.580  1.00  0.00     0.034 A 
ENDROOT
BRANCH   3  14
HETATM   14  N   UNL     1      -5.036  -0.055 -31.520  1.00  0.00    -0.176 NA
HETATM   15  C   UNL     1      -4.821  -0.411 -32.746  1.00  0.00     0.153 C 
BRANCH  15  16
HETATM   16  C   UNL     1      -4.625  -1.844 -33.074  1.00  0.00     0.017 A 
HETATM   17  C   UNL     1      -3.561  -2.585 -32.540  1.00  0.00     0.077 A 
HETATM   18  C   UNL     1      -3.343  -3.902 -32.937  1.00  0.00     0.039 A 
HETATM   19  C   UNL     1      -4.188  -4.487 -33.879  1.00  0.00     0.022 A 
HETATM   20  C   UNL     1      -5.248  -3.750 -34.412  1.00  0.00     0.012 A 
HETATM   21 BR   UNL     1      -6.378  -4.543 -35.703  1.00  0.00    -0.051 Br
HETATM   22  C   UNL     1      -5.474  -2.430 -34.017  1.00  0.00     0.034 A 
BRANCH  17  23
HETATM   23  O   UNL     1      -2.668  -2.064 -31.643  1.00  0.00    -0.360 OA
HETATM   24  H   UNL     1      -2.137  -1.402 -32.137  1.00  0.00     0.217 HD
ENDBRANCH  17  23
ENDBRANCH  15  16
ENDBRANCH   3  14
BRANCH   2  25
HETATM   25  N   UNL     1      -2.611   1.247 -31.028  1.00  0.00    -0.286 NA
HETATM   26  H   UNL     1      -1.846   1.710 -30.532  1.00  0.00     0.125 HD
HETATM   27  H   UNL     1      -2.704   0.288 -30.683  1.00  0.00     0.125 HD
ENDBRANCH   2  25
BRANCH   1  28
HETATM   28  C   UNL     1      -3.008   4.293 -31.794  1.00  0.00     0.257 C 
HETATM   29  N   UNL     1      -3.246   5.549 -31.263  1.00  0.00    -0.352 N 
HETATM   30  H   UNL     1      -4.035   5.584 -30.625  1.00  0.00     0.163 HD
HETATM   31  O   UNL     1      -2.005   4.018 -32.440  1.00  0.00    -0.267 OA
BRANCH  29  32
HETATM   32  C   UNL     1      -2.193   6.530 -31.038  1.00  0.00     0.080 C 
HETATM   33  C   UNL     1      -2.324   7.727 -31.980  1.00  0.00     0.032 C 
BRANCH  32  34
HETATM   34  C   UNL     1      -2.222   7.018 -29.575  1.00  0.00     0.020 C 
HETATM   35  C   UNL     1      -0.873   6.913 -28.870  1.00  0.00     0.007 C 
ENDBRANCH  32  34
ENDBRANCH  29  32
ENDBRANCH   1  28
TORSDOF 7
ENDMDL
MODEL 7
REMARK VINA RESULT:      -8.4      3.292      7.864
REMARK  7 active torsions:
REMARK  status: ('A' for Active; 'I' for Inactive)
REMARK    1  A    between atoms: C_2  and  C_3 
REMARK    2  A    between atoms: C_3  and  N_4 
REMARK       I    between atoms: N_4  and  C_5 
REMARK    3  A    between atoms: C_5  and  C_6 
REMARK    4  A    between atoms: C_7  and  N_8 
REMARK    5  A    between atoms: N_9  and  N_10 
REMARK    6  A    between atoms: C_11  and  C_12 
REMARK    7  A    between atoms: C_13  and  O_14 
ROOT
HETATM    1  C   UNL     1      -4.311   4.531 -32.862  1.00  0.00     0.104 C 
HETATM    2  C   UNL     1      -3.833   3.344 -32.323  1.00  0.00     0.123 C 
HETATM    3  N   UNL     1      -4.689   2.320 -32.714  1.00  0.00    -0.202 N 
HETATM    4  C   UNL     1      -5.886   2.897 -33.102  1.00  0.00     0.183 A 
HETATM    5  C   UNL     1      -5.659   4.266 -33.227  1.00  0.00     0.124 A 
HETATM    6  N   UNL     1      -6.635   5.096 -33.673  1.00  0.00    -0.242 NA
HETATM    7  C   UNL     1      -7.818   4.514 -33.909  1.00  0.00     0.086 A 
HETATM    8  C   UNL     1      -8.030   3.119 -33.752  1.00  0.00     0.088 A 
HETATM    9  N   UNL     1      -7.060   2.273 -33.365  1.00  0.00    -0.225 NA
HETATM   10  C   UNL     1      -8.877   5.315 -34.316  1.00  0.00     0.034 A 
HETATM   11  C   UNL     1     -10.141   4.782 -34.569  1.00  0.00     0.002 A 
HETATM   12  C   UNL     1     -10.351   3.420 -34.416  1.00  0.00     0.002 A 
HETATM   13  C   UNL     1      -9.294   2.603 -34.012  1.00  0.00     0.034 A 
ENDROOT
BRANCH   3  14
HETATM   14  N   UNL     1      -4.239   1.018 -32.723  1.00  0.00    -0.176 NA
HETATM   15  C   UNL     1      -5.134   0.087 -32.648  1.00  0.00     0.153 C 
BRANCH  15  16
HETATM   16  C   UNL     1      -4.746  -1.328 -32.872  1.00  0.00     0.017 A 
HETATM   17  C   UNL     1      -3.622  -1.893 -32.253  1.00  0.00     0.077 A 
HETATM   18  C   UNL     1      -3.224  -3.193 -32.553  1.00  0.00     0.039 A 
HETATM   19  C   UNL     1      -3.948  -3.938 -33.483  1.00  0.00     0.022 A 
HETATM   20  C   UNL     1      -5.067  -3.377 -34.101  1.00  0.00     0.012 A 
HETATM   21 BR   UNL     1      -6.032  -4.385 -35.376  1.00  0.00    -0.051 Br
HETATM   22  C   UNL     1      -5.473  -2.074 -33.803  1.00  0.00     0.034 A 
BRANCH  17  23
HETATM   23  O   UNL     1      -2.841  -1.208 -31.361  1.00  0.00    -0.360 OA
HETATM   24  H   UNL     1      -3.451  -0.852 -30.679  1.00  0.00     0.217 HD
ENDBRANCH  17  23
ENDBRANCH  15  16
ENDBRANCH   3  14
BRANCH   2  25
HETATM   25  N   UNL     1      -2.671   3.070 -31.649  1.00  0.00    -0.286 NA
HETATM   26  H   UNL     1      -2.186   3.862 -31.221  1.00  0.00     0.125 HD
HETATM   27  H   UNL     1      -2.714   2.299 -30.977  1.00  0.00     0.125 HD
ENDBRANCH   2  25
BRANCH   1  28
HETATM   28  C   UNL     1      -3.550   5.762 -33.063  1.00  0.00     0.257 C 
HETATM   29  N   UNL     1      -2.898   6.189 -31.918  1.00  0.00    -0.352 N 
HETATM   30  H   UNL     1      -2.994   5.556 -31.130  1.00  0.00     0.163 HD
HETATM   31  O   UNL     1      -3.407   6.297 -34.154  1.00  0.00    -0.267 OA
BRANCH  29  32
HETATM   32  C   UNL     1      -1.692   7.003 -31.947  1.00  0.00     0.080 C 
HETATM   33  C   UNL     1      -2.007   8.489 -31.774  1.00  0.00     0.032 C 
BRANCH  32  34
HETATM   34  C   UNL     1      -0.716   6.550 -30.842  1.00  0.00     0.020 C 
HETATM   35  C   UNL     1       0.114   5.328 -31.224  1.00  0.00     0.007 C 
ENDBRANCH  32  34
ENDBRANCH  29  32
ENDBRANCH   1  28
TORSDOF 7
ENDMDL
MODEL 8
REMARK VINA RESULT:      -8.3      1.924      2.135
REMARK  7 active torsions:
REMARK  status: ('A' for Active; 'I' for Inactive)
REMARK    1  A    between atoms: C_2  and  C_3 
REMARK    2  A    between atoms: C_3  and  N_4 
REMARK       I    between atoms: N_4  and  C_5 
REMARK    3  A    between atoms: C_5  and  C_6 
REMARK    4  A    between atoms: C_7  and  N_8 
REMARK    5  A    between atoms: N_9  and  N_10 
REMARK    6  A    between atoms: C_11  and  C_12 
REMARK    7  A    between atoms: C_13  and  O_14 
ROOT
HETATM    1  C   UNL     1      -8.277   3.863 -34.014  1.00  0.00     0.104 C 
HETATM    2  C   UNL     1      -7.402   4.814 -33.504  1.00  0.00     0.123 C 
HETATM    3  N   UNL     1      -6.123   4.267 -33.511  1.00  0.00    -0.202 N 
HETATM    4  C   UNL     1      -6.253   2.892 -33.599  1.00  0.00     0.183 A 
HETATM    5  C   UNL     1      -7.578   2.627 -33.941  1.00  0.00     0.124 A 
HETATM    6  N   UNL     1      -7.996   1.358 -34.177  1.00  0.00    -0.242 NA
HETATM    7  C   UNL     1      -7.071   0.407 -33.991  1.00  0.00     0.086 A 
HETATM    8  C   UNL     1      -5.732   0.702 -33.621  1.00  0.00     0.088 A 
HETATM    9  N   UNL     1      -5.286   1.956 -33.437  1.00  0.00    -0.225 NA
HETATM   10  C   UNL     1      -7.446  -0.919 -34.164  1.00  0.00     0.034 A 
HETATM   11  C   UNL     1      -6.541  -1.965 -33.977  1.00  0.00     0.002 A 
HETATM   12  C   UNL     1      -5.233  -1.679 -33.614  1.00  0.00     0.002 A 
HETATM   13  C   UNL     1      -4.842  -0.351 -33.443  1.00  0.00     0.034 A 
ENDROOT
BRANCH   3  14
HETATM   14  N   UNL     1      -5.025   5.098 -33.501  1.00  0.00    -0.176 NA
HETATM   15  C   UNL     1      -4.411   5.247 -32.371  1.00  0.00     0.153 C 
BRANCH  15  16
HETATM   16  C   UNL     1      -3.103   5.945 -32.329  1.00  0.00     0.017 A 
HETATM   17  C   UNL     1      -2.489   6.435 -33.492  1.00  0.00     0.077 A 
HETATM   18  C   UNL     1      -1.218   7.001 -33.439  1.00  0.00     0.039 A 
HETATM   19  C   UNL     1      -0.547   7.076 -32.218  1.00  0.00     0.022 A 
HETATM   20  C   UNL     1      -1.157   6.589 -31.060  1.00  0.00     0.012 A 
HETATM   21 BR   UNL     1      -0.233   6.676 -29.413  1.00  0.00    -0.051 Br
HETATM   22  C   UNL     1      -2.432   6.022 -31.106  1.00  0.00     0.034 A 
BRANCH  17  23
HETATM   23  O   UNL     1      -3.070   6.358 -34.729  1.00  0.00    -0.360 OA
HETATM   24  H   UNL     1      -2.387   6.650 -35.370  1.00  0.00     0.217 HD
ENDBRANCH  17  23
ENDBRANCH  15  16
ENDBRANCH   3  14
BRANCH   2  25
HETATM   25  N   UNL     1      -7.604   6.127 -33.169  1.00  0.00    -0.286 NA
HETATM   26  H   UNL     1      -8.574   6.439 -33.081  1.00  0.00     0.125 HD
HETATM   27  H   UNL     1      -7.066   6.473 -32.371  1.00  0.00     0.125 HD
ENDBRANCH   2  25
BRANCH   1  28
HETATM   28  C   UNL     1      -9.606   4.112 -34.567  1.00  0.00     0.257 C 
HETATM   29  N   UNL     1     -10.340   2.953 -34.754  1.00  0.00    -0.352 N 
HETATM   30  H   UNL     1      -9.875   2.113 -34.424  1.00  0.00     0.163 HD
HETATM   31  O   UNL     1     -10.067   5.233 -34.738  1.00  0.00    -0.267 OA
BRANCH  29  32
HETATM   32  C   UNL     1     -11.796   2.925 -34.750  1.00  0.00     0.080 C 
HETATM   33  C   UNL     1     -12.369   3.136 -36.152  1.00  0.00     0.032 C 
BRANCH  32  34
HETATM   34  C   UNL     1     -12.302   1.584 -34.181  1.00  0.00     0.020 C 
HETATM   35  C   UNL     1     -11.228   0.789 -33.445  1.00  0.00     0.007 C 
ENDBRANCH  32  34
ENDBRANCH  29  32
ENDBRANCH   1  28
TORSDOF 7
ENDMDL
MODEL 9
REMARK VINA RESULT:      -8.3      3.189      7.558
REMARK  7 active torsions:
REMARK  status: ('A' for Active; 'I' for Inactive)
REMARK    1  A    between atoms: C_2  and  C_3 
REMARK    2  A    between atoms: C_3  and  N_4 
REMARK       I    between atoms: N_4  and  C_5 
REMARK    3  A    between atoms: C_5  and  C_6 
REMARK    4  A    between atoms: C_7  and  N_8 
REMARK    5  A    between atoms: N_9  and  N_10 
REMARK    6  A    between atoms: C_11  and  C_12 
REMARK    7  A    between atoms: C_13  and  O_14 
ROOT
HETATM    1  C   UNL     1      -6.687   4.294 -32.787  1.00  0.00     0.104 C 
HETATM    2  C   UNL     1      -6.374   3.067 -32.215  1.00  0.00     0.123 C 
HETATM    3  N   UNL     1      -7.192   2.103 -32.794  1.00  0.00    -0.202 N 
HETATM    4  C   UNL     1      -8.268   2.755 -33.371  1.00  0.00     0.183 A 
HETATM    5  C   UNL     1      -7.956   4.113 -33.401  1.00  0.00     0.124 A 
HETATM    6  N   UNL     1      -8.792   5.007 -33.985  1.00  0.00    -0.242 NA
HETATM    7  C   UNL     1      -9.939   4.497 -34.454  1.00  0.00     0.086 A 
HETATM    8  C   UNL     1     -10.244   3.112 -34.391  1.00  0.00     0.088 A 
HETATM    9  N   UNL     1      -9.403   2.203 -33.866  1.00  0.00    -0.225 NA
HETATM   10  C   UNL     1     -10.865   5.366 -35.017  1.00  0.00     0.034 A 
HETATM   11  C   UNL     1     -12.086   4.910 -35.516  1.00  0.00     0.002 A 
HETATM   12  C   UNL     1     -12.386   3.557 -35.454  1.00  0.00     0.002 A 
HETATM   13  C   UNL     1     -11.461   2.672 -34.896  1.00  0.00     0.034 A 
ENDROOT
BRANCH   3  14
HETATM   14  N   UNL     1      -6.811   0.780 -32.770  1.00  0.00    -0.176 NA
HETATM   15  C   UNL     1      -6.305   0.295 -33.858  1.00  0.00     0.153 C 
BRANCH  15  16
HETATM   16  C   UNL     1      -5.674  -1.047 -33.843  1.00  0.00     0.017 A 
HETATM   17  C   UNL     1      -4.447  -1.280 -33.204  1.00  0.00     0.077 A 
HETATM   18  C   UNL     1      -3.829  -2.525 -33.285  1.00  0.00     0.039 A 
HETATM   19  C   UNL     1      -4.433  -3.548 -34.015  1.00  0.00     0.022 A 
HETATM   20  C   UNL     1      -5.654  -3.318 -34.652  1.00  0.00     0.012 A 
HETATM   21 BR   UNL     1      -6.457  -4.704 -35.657  1.00  0.00    -0.051 Br
HETATM   22  C   UNL     1      -6.280  -2.072 -34.573  1.00  0.00     0.034 A 
BRANCH  17  23
HETATM   23  O   UNL     1      -3.777  -0.312 -32.504  1.00  0.00    -0.360 OA
HETATM   24  H   UNL     1      -3.182   0.129 -33.148  1.00  0.00     0.217 HD
ENDBRANCH  17  23
ENDBRANCH  15  16
ENDBRANCH   3  14
BRANCH   2  25
HETATM   25  N   UNL     1      -5.370   2.712 -31.352  1.00  0.00    -0.286 NA
HETATM   26  H   UNL     1      -5.629   2.572 -30.372  1.00  0.00     0.125 HD
HETATM   27  H   UNL     1      -4.772   1.940 -31.655  1.00  0.00     0.125 HD
ENDBRANCH   2  25
BRANCH   1  28
HETATM   28  C   UNL     1      -5.844   5.487 -32.800  1.00  0.00     0.257 C 
HETATM   29  N   UNL     1      -4.496   5.196 -32.928  1.00  0.00    -0.352 N 
HETATM   30  H   UNL     1      -4.299   4.208 -33.054  1.00  0.00     0.163 HD
HETATM   31  O   UNL     1      -6.286   6.628 -32.815  1.00  0.00    -0.267 OA
BRANCH  29  32
HETATM   32  C   UNL     1      -3.533   6.123 -33.505  1.00  0.00     0.080 C 
HETATM   33  C   UNL     1      -2.369   6.395 -32.553  1.00  0.00     0.032 C 
BRANCH  32  34
HETATM   34  C   UNL     1      -2.991   5.568 -34.838  1.00  0.00     0.020 C 
HETATM   35  C   UNL     1      -1.510   5.204 -34.791  1.00  0.00     0.007 C 
ENDBRANCH  32  34
ENDBRANCH  29  32
ENDBRANCH   1  28
TORSDOF 7
ENDMDL
MODEL 10
REMARK VINA RESULT:      -8.3      3.376      7.595
REMARK  7 active torsions:
REMARK  status: ('A' for Active; 'I' for Inactive)
REMARK    1  A    between atoms: C_2  and  C_3 
REMARK    2  A    between atoms: C_3  and  N_4 
REMARK       I    between atoms: N_4  and  C_5 
REMARK    3  A    between atoms: C_5  and  C_6 
REMARK    4  A    between atoms: C_7  and  N_8 
REMARK    5  A    between atoms: N_9  and  N_10 
REMARK    6  A    between atoms: C_11  and  C_12 
REMARK    7  A    between atoms: C_13  and  O_14 
ROOT
HETATM    1  C   UNL     1      -6.012   3.870 -30.949  1.00  0.00     0.104 C 
HETATM    2  C   UNL     1      -6.561   2.979 -31.861  1.00  0.00     0.123 C 
HETATM    3  N   UNL     1      -5.608   2.727 -32.842  1.00  0.00    -0.202 N 
HETATM    4  C   UNL     1      -4.675   3.748 -32.795  1.00  0.00     0.183 A 
HETATM    5  C   UNL     1      -4.894   4.448 -31.610  1.00  0.00     0.124 A 
HETATM    6  N   UNL     1      -4.078   5.468 -31.244  1.00  0.00    -0.242 NA
HETATM    7  C   UNL     1      -3.117   5.778 -32.125  1.00  0.00     0.086 A 
HETATM    8  C   UNL     1      -2.929   5.063 -33.337  1.00  0.00     0.088 A 
HETATM    9  N   UNL     1      -3.693   4.015 -33.690  1.00  0.00    -0.225 NA
HETATM   10  C   UNL     1      -2.280   6.848 -31.836  1.00  0.00     0.034 A 
HETATM   11  C   UNL     1      -1.264   7.237 -32.711  1.00  0.00     0.002 A 
HETATM   12  C   UNL     1      -1.080   6.540 -33.896  1.00  0.00     0.002 A 
HETATM   13  C   UNL     1      -1.911   5.460 -34.195  1.00  0.00     0.034 A 
ENDROOT
BRANCH   3  14
HETATM   14  N   UNL     1      -5.689   1.575 -33.593  1.00  0.00    -0.176 NA
HETATM   15  C   UNL     1      -5.223   0.492 -33.058  1.00  0.00     0.153 C 
BRANCH  15  16
HETATM   16  C   UNL     1      -5.472  -0.818 -33.709  1.00  0.00     0.017 A 
HETATM   17  C   UNL     1      -6.668  -1.089 -34.389  1.00  0.00     0.077 A 
HETATM   18  C   UNL     1      -6.916  -2.357 -34.909  1.00  0.00     0.039 A 
HETATM   19  C   UNL     1      -5.969  -3.367 -34.747  1.00  0.00     0.022 A 
HETATM   20  C   UNL     1      -4.778  -3.098 -34.070  1.00  0.00     0.012 A 
HETATM   21 BR   UNL     1      -3.506  -4.477 -33.836  1.00  0.00    -0.051 Br
HETATM   22  C   UNL     1      -4.521  -1.828 -33.547  1.00  0.00     0.034 A 
BRANCH  17  23
HETATM   23  O   UNL     1      -7.659  -0.160 -34.551  1.00  0.00    -0.360 OA
HETATM   24  H   UNL     1      -7.215   0.669 -34.834  1.00  0.00     0.217 HD
ENDBRANCH  17  23
ENDBRANCH  15  16
ENDBRANCH   3  14
BRANCH   2  25
HETATM   25  N   UNL     1      -7.743   2.286 -31.833  1.00  0.00    -0.286 NA
HETATM   26  H   UNL     1      -7.838   1.504 -32.486  1.00  0.00     0.125 HD
HETATM   27  H   UNL     1      -8.069   1.992 -30.909  1.00  0.00     0.125 HD
ENDBRANCH   2  25
BRANCH   1  28
HETATM   28  C   UNL     1      -6.463   4.101 -29.578  1.00  0.00     0.257 C 
HETATM   29  N   UNL     1      -5.565   4.844 -28.831  1.00  0.00    -0.352 N 
HETATM   30  H   UNL     1      -4.760   5.170 -29.358  1.00  0.00     0.163 HD
HETATM   31  O   UNL     1      -7.567   3.773 -29.166  1.00  0.00    -0.267 OA
BRANCH  29  32
HETATM   32  C   UNL     1      -5.962   5.662 -27.694  1.00  0.00     0.080 C 
HETATM   33  C   UNL     1      -4.755   6.110 -26.869  1.00  0.00     0.032 C 
BRANCH  32  34
HETATM   34  C   UNL     1      -6.747   6.900 -28.175  1.00  0.00     0.020 C 
HETATM   35  C   UNL     1      -5.937   7.821 -29.082  1.00  0.00     0.007 C 
ENDBRANCH  32  34
ENDBRANCH  29  32
ENDBRANCH   1  28
TORSDOF 7
ENDMDL
