MODEL 1
REMARK VINA RESULT:      -8.3      0.000      0.000
REMARK  8 active torsions:
REMARK  status: ('A' for Active; 'I' for Inactive)
REMARK    1  A    between atoms: C_2  and  C_3 
REMARK    2  A    between atoms: C_3  and  C_4 
REMARK       I    between atoms: C_4  and  N_5 
REMARK    3  A    between atoms: N_8  and  C_9 
REMARK    4  A    between atoms: C_12  and  N_13 
REMARK    5  A    between atoms: N_13  and  C_14 
REMARK    6  A    between atoms: C_14  and  N_15 
REMARK       I    between atoms: N_15  and  C_16 
REMARK    7  A    between atoms: C_16  and  C_17 
REMARK    8  A    between atoms: C_18  and  O_19 
ROOT
HETATM    1  C   UNL     1      -4.313   2.084 -32.173  1.00  0.00     0.030 A 
HETATM    2  C   UNL     1      -3.435   2.832 -31.376  1.00  0.00     0.031 A 
HETATM    3  C   UNL     1      -3.554   4.220 -31.240  1.00  0.00     0.032 A 
HETATM    4  C   UNL     1      -4.563   4.912 -31.903  1.00  0.00     0.034 A 
HETATM    5  C   UNL     1      -5.498   4.190 -32.636  1.00  0.00     0.032 A 
HETATM    6  C   UNL     1      -5.357   2.800 -32.784  1.00  0.00     0.031 A 
ENDROOT
BRANCH   4   7
HETATM    7  N   UNL     1      -4.691   6.315 -31.808  1.00  0.00    -0.333 N 
HETATM    8  H   UNL     1      -4.622   6.825 -32.680  1.00  0.00     0.168 HD
BRANCH   7   9
HETATM    9  C   UNL     1      -4.533   7.078 -30.647  1.00  0.00     0.179 C 
HETATM   10  S   UNL     1      -5.178   6.677 -29.153  1.00  0.00    -0.040 SA
BRANCH   9  11
HETATM   11  N   UNL     1      -3.733   8.203 -30.915  1.00  0.00    -0.299 N 
HETATM   12  C   UNL     1      -2.429   8.364 -31.387  1.00  0.00     0.260 C 
HETATM   13  O   UNL     1      -2.112   9.396 -31.972  1.00  0.00    -0.267 OA
HETATM   14  H   UNL     1      -4.243   9.070 -31.001  1.00  0.00     0.171 HD
BRANCH  12  15
HETATM   15  C   UNL     1      -1.419   7.331 -31.076  1.00  0.00     0.067 A 
HETATM   16  C   UNL     1      -1.015   6.401 -32.044  1.00  0.00     0.084 A 
HETATM   17  C   UNL     1      -0.075   5.423 -31.698  1.00  0.00     0.039 A 
HETATM   18  C   UNL     1       0.482   5.402 -30.416  1.00  0.00     0.026 A 
HETATM   19  C   UNL     1       0.103   6.359 -29.476  1.00  0.00     0.035 A 
HETATM   20 CL   UNL     1       0.791   6.328 -27.899  1.00  0.00    -0.084 Cl
HETATM   21  C   UNL     1      -0.839   7.330 -29.798  1.00  0.00     0.043 A 
BRANCH  16  22
HETATM   22  O   UNL     1      -1.632   6.424 -33.266  1.00  0.00    -0.355 OA
HETATM   23  C   UNL     1      -1.401   5.267 -34.064  1.00  0.00     0.210 C 
ENDBRANCH  16  22
ENDBRANCH  12  15
ENDBRANCH   9  11
ENDBRANCH   7   9
ENDBRANCH   4   7
BRANCH   1  24
HETATM   24  N   UNL     1      -4.127   0.721 -32.428  1.00  0.00    -0.378 N 
HETATM   25  C   UNL     1      -4.984   0.091 -33.454  1.00  0.00     0.143 C 
HETATM   26  C   UNL     1      -4.350  -1.224 -33.957  1.00  0.00     0.145 C 
HETATM   27  N   UNL     1      -3.945  -2.134 -32.877  1.00  0.00    -0.349 N 
HETATM   28  C   UNL     1      -3.709  -3.494 -33.064  1.00  0.00     0.219 C 
HETATM   29  C   UNL     1      -3.226  -1.499 -31.769  1.00  0.00     0.145 C 
HETATM   30  O   UNL     1      -3.145  -4.179 -32.210  1.00  0.00    -0.273 OA
HETATM   31  C   UNL     1      -3.855  -0.184 -31.290  1.00  0.00     0.143 C 
BRANCH  28  32
HETATM   32  C   UNL     1      -4.187  -4.104 -34.373  1.00  0.00     0.103 C 
BRANCH  32  33
HETATM   33  C   UNL     1      -5.546  -4.791 -34.221  1.00  0.00     0.005 C 
HETATM   34  C   UNL     1      -6.483  -4.440 -35.364  1.00  0.00     0.005 C 
ENDBRANCH  32  33
ENDBRANCH  28  32
ENDBRANCH   1  24
TORSDOF 8
ENDMDL
MODEL 2
REMARK VINA RESULT:      -8.1      2.027      2.708
REMARK  8 active torsions:
REMARK  status: ('A' for Active; 'I' for Inactive)
REMARK    1  A    between atoms: C_2  and  C_3 
REMARK    2  A    between atoms: C_3  and  C_4 
REMARK       I    between atoms: C_4  and  N_5 
REMARK    3  A    between atoms: N_8  and  C_9 
REMARK    4  A    between atoms: C_12  and  N_13 
REMARK    5  A    between atoms: N_13  and  C_14 
REMARK    6  A    between atoms: C_14  and  N_15 
REMARK       I    between atoms: N_15  and  C_16 
REMARK    7  A    between atoms: C_16  and  C_17 
REMARK    8  A    between atoms: C_18  and  O_19 
ROOT
HETATM    1  C   UNL     1      -5.032   3.527 -32.346  1.00  0.00     0.030 A 
HETATM    2  C   UNL     1      -5.543   4.602 -33.088  1.00  0.00     0.031 A 
HETATM    3  C   UNL     1      -5.586   5.904 -32.576  1.00  0.00     0.032 A 
HETATM    4  C   UNL     1      -5.119   6.176 -31.293  1.00  0.00     0.034 A 
HETATM    5  C   UNL     1      -4.532   5.147 -30.564  1.00  0.00     0.032 A 
HETATM    6  C   UNL     1      -4.514   3.840 -31.078  1.00  0.00     0.031 A 
ENDROOT
BRANCH   4   7
HETATM    7  N   UNL     1      -5.175   7.473 -30.739  1.00  0.00    -0.333 N 
HETATM    8  H   UNL     1      -5.613   8.181 -31.317  1.00  0.00     0.168 HD
BRANCH   7   9
HETATM    9  C   UNL     1      -4.392   7.952 -29.685  1.00  0.00     0.179 C 
HETATM   10  S   UNL     1      -4.575   7.493 -28.083  1.00  0.00    -0.040 SA
BRANCH   9  11
HETATM   11  N   UNL     1      -3.420   8.842 -30.172  1.00  0.00    -0.299 N 
HETATM   12  C   UNL     1      -2.468   8.762 -31.191  1.00  0.00     0.260 C 
HETATM   13  O   UNL     1      -2.062   9.786 -31.733  1.00  0.00    -0.267 OA
HETATM   14  H   UNL     1      -3.558   9.805 -29.902  1.00  0.00     0.171 HD
BRANCH  12  15
HETATM   15  C   UNL     1      -1.882   7.446 -31.526  1.00  0.00     0.067 A 
HETATM   16  C   UNL     1      -1.156   6.715 -30.576  1.00  0.00     0.084 A 
HETATM   17  C   UNL     1      -0.596   5.487 -30.946  1.00  0.00     0.039 A 
HETATM   18  C   UNL     1      -0.795   4.979 -32.233  1.00  0.00     0.026 A 
HETATM   19  C   UNL     1      -1.555   5.697 -33.155  1.00  0.00     0.035 A 
HETATM   20 CL   UNL     1      -1.796   5.069 -34.738  1.00  0.00    -0.084 Cl
HETATM   21  C   UNL     1      -2.108   6.925 -32.809  1.00  0.00     0.043 A 
BRANCH  16  22
HETATM   22  O   UNL     1      -0.938   7.281 -29.349  1.00  0.00    -0.355 OA
HETATM   23  C   UNL     1       0.437   7.437 -29.009  1.00  0.00     0.210 C 
ENDBRANCH  16  22
ENDBRANCH  12  15
ENDBRANCH   9  11
ENDBRANCH   7   9
ENDBRANCH   4   7
BRANCH   1  24
HETATM   24  N   UNL     1      -5.107   2.201 -32.788  1.00  0.00    -0.378 N 
HETATM   25  C   UNL     1      -6.437   1.677 -33.166  1.00  0.00     0.143 C 
HETATM   26  C   UNL     1      -6.292   0.431 -34.066  1.00  0.00     0.145 C 
HETATM   27  N   UNL     1      -5.383  -0.587 -33.521  1.00  0.00    -0.349 N 
HETATM   28  C   UNL     1      -5.378  -1.917 -33.937  1.00  0.00     0.219 C 
HETATM   29  C   UNL     1      -4.117  -0.068 -32.995  1.00  0.00     0.145 C 
HETATM   30  O   UNL     1      -4.459  -2.684 -33.646  1.00  0.00    -0.273 OA
HETATM   31  C   UNL     1      -4.272   1.182 -32.118  1.00  0.00     0.143 C 
BRANCH  28  32
HETATM   32  C   UNL     1      -6.565  -2.386 -34.763  1.00  0.00     0.103 C 
BRANCH  32  33
HETATM   33  C   UNL     1      -6.849  -3.876 -34.561  1.00  0.00     0.005 C 
HETATM   34  C   UNL     1      -6.313  -4.710 -35.711  1.00  0.00     0.005 C 
ENDBRANCH  32  33
ENDBRANCH  28  32
ENDBRANCH   1  24
TORSDOF 8
ENDMDL
MODEL 3
REMARK VINA RESULT:      -7.7      1.637      2.255
REMARK  8 active torsions:
REMARK  status: ('A' for Active; 'I' for Inactive)
REMARK    1  A    between atoms: C_2  and  C_3 
REMARK    2  A    between atoms: C_3  and  C_4 
REMARK       I    between atoms: C_4  and  N_5 
REMARK    3  A    between atoms: N_8  and  C_9 
REMARK    4  A    between atoms: C_12  and  N_13 
REMARK    5  A    between atoms: N_13  and  C_14 
REMARK    6  A    between atoms: C_14  and  N_15 
REMARK       I    between atoms: N_15  and  C_16 
REMARK    7  A    between atoms: C_16  and  C_17 
REMARK    8  A    between atoms: C_18  and  O_19 
ROOT
HETATM    1  C   UNL     1      -5.497   3.898 -31.868  1.00  0.00     0.030 A 
HETATM    2  C   UNL     1      -5.273   4.243 -30.528  1.00  0.00     0.031 A 
HETATM    3  C   UNL     1      -5.185   5.576 -30.108  1.00  0.00     0.032 A 
HETATM    4  C   UNL     1      -5.317   6.616 -31.023  1.00  0.00     0.034 A 
HETATM    5  C   UNL     1      -5.621   6.308 -32.346  1.00  0.00     0.032 A 
HETATM    6  C   UNL     1      -5.684   4.967 -32.760  1.00  0.00     0.031 A 
ENDROOT
BRANCH   4   7
HETATM    7  N   UNL     1      -5.206   7.969 -30.635  1.00  0.00    -0.333 N 
HETATM    8  H   UNL     1      -5.866   8.606 -31.062  1.00  0.00     0.168 HD
BRANCH   7   9
HETATM    9  C   UNL     1      -4.091   8.563 -30.037  1.00  0.00     0.179 C 
HETATM   10  S   UNL     1      -3.875   8.725 -28.383  1.00  0.00    -0.040 SA
BRANCH   9  11
HETATM   11  N   UNL     1      -3.175   8.970 -31.022  1.00  0.00    -0.299 N 
HETATM   12  C   UNL     1      -2.060   8.365 -31.606  1.00  0.00     0.260 C 
HETATM   13  O   UNL     1      -1.706   8.692 -32.736  1.00  0.00    -0.267 OA
HETATM   14  H   UNL     1      -3.483   9.747 -31.588  1.00  0.00     0.171 HD
BRANCH  12  15
HETATM   15  C   UNL     1      -1.257   7.414 -30.809  1.00  0.00     0.067 A 
HETATM   16  C   UNL     1      -1.288   6.038 -31.077  1.00  0.00     0.084 A 
HETATM   17  C   UNL     1      -0.533   5.172 -30.278  1.00  0.00     0.039 A 
HETATM   18  C   UNL     1       0.274   5.678 -29.254  1.00  0.00     0.026 A 
HETATM   19  C   UNL     1       0.327   7.052 -29.025  1.00  0.00     0.035 A 
HETATM   20 CL   UNL     1       1.320   7.670 -27.763  1.00  0.00    -0.084 Cl
HETATM   21  C   UNL     1      -0.426   7.927 -29.801  1.00  0.00     0.043 A 
BRANCH  16  22
HETATM   22  O   UNL     1      -2.137   5.585 -32.050  1.00  0.00    -0.355 OA
HETATM   23  C   UNL     1      -1.488   4.946 -33.146  1.00  0.00     0.210 C 
ENDBRANCH  16  22
ENDBRANCH  12  15
ENDBRANCH   9  11
ENDBRANCH   7   9
ENDBRANCH   4   7
BRANCH   1  24
HETATM   24  N   UNL     1      -5.450   2.576 -32.326  1.00  0.00    -0.378 N 
HETATM   25  C   UNL     1      -4.167   1.853 -32.206  1.00  0.00     0.143 C 
HETATM   26  C   UNL     1      -4.396   0.327 -32.280  1.00  0.00     0.145 C 
HETATM   27  N   UNL     1      -5.212  -0.091 -33.429  1.00  0.00    -0.349 N 
HETATM   28  C   UNL     1      -5.242  -1.395 -33.918  1.00  0.00     0.219 C 
HETATM   29  C   UNL     1      -6.414   0.715 -33.660  1.00  0.00     0.145 C 
HETATM   30  O   UNL     1      -6.103  -1.770 -34.715  1.00  0.00    -0.273 OA
HETATM   31  C   UNL     1      -6.178   2.229 -33.565  1.00  0.00     0.143 C 
BRANCH  28  32
HETATM   32  C   UNL     1      -4.156  -2.340 -33.429  1.00  0.00     0.103 C 
BRANCH  32  33
HETATM   33  C   UNL     1      -4.151  -3.657 -34.208  1.00  0.00     0.005 C 
HETATM   34  C   UNL     1      -3.642  -4.810 -33.358  1.00  0.00     0.005 C 
ENDBRANCH  32  33
ENDBRANCH  28  32
ENDBRANCH   1  24
TORSDOF 8
ENDMDL
MODEL 4
REMARK VINA RESULT:      -7.6      2.526      3.561
REMARK  8 active torsions:
REMARK  status: ('A' for Active; 'I' for Inactive)
REMARK    1  A    between atoms: C_2  and  C_3 
REMARK    2  A    between atoms: C_3  and  C_4 
REMARK       I    between atoms: C_4  and  N_5 
REMARK    3  A    between atoms: N_8  and  C_9 
REMARK    4  A    between atoms: C_12  and  N_13 
REMARK    5  A    between atoms: N_13  and  C_14 
REMARK    6  A    between atoms: C_14  and  N_15 
REMARK       I    between atoms: N_15  and  C_16 
REMARK    7  A    between atoms: C_16  and  C_17 
REMARK    8  A    between atoms: C_18  and  O_19 
ROOT
HETATM    1  C   UNL     1      -5.982   4.652 -31.255  1.00  0.00     0.030 A 
HETATM    2  C   UNL     1      -5.512   4.680 -29.935  1.00  0.00     0.031 A 
HETATM    3  C   UNL     1      -5.230   5.880 -29.271  1.00  0.00     0.032 A 
HETATM    4  C   UNL     1      -5.408   7.103 -29.913  1.00  0.00     0.034 A 
HETATM    5  C   UNL     1      -5.949   7.112 -31.195  1.00  0.00     0.032 A 
HETATM    6  C   UNL     1      -6.208   5.901 -31.859  1.00  0.00     0.031 A 
ENDROOT
BRANCH   4   7
HETATM    7  N   UNL     1      -5.105   8.328 -29.280  1.00  0.00    -0.333 N 
HETATM    8  H   UNL     1      -5.752   9.086 -29.455  1.00  0.00     0.168 HD
BRANCH   7   9
HETATM    9  C   UNL     1      -3.861   8.700 -28.763  1.00  0.00     0.179 C 
HETATM   10  S   UNL     1      -3.370   8.430 -27.183  1.00  0.00    -0.040 SA
BRANCH   9  11
HETATM   11  N   UNL     1      -3.081   9.300 -29.768  1.00  0.00    -0.299 N 
HETATM   12  C   UNL     1      -2.379   8.800 -30.866  1.00  0.00     0.260 C 
HETATM   13  O   UNL     1      -2.172   9.517 -31.841  1.00  0.00    -0.267 OA
HETATM   14  H   UNL     1      -3.217  10.295 -29.868  1.00  0.00     0.171 HD
BRANCH  12  15
HETATM   15  C   UNL     1      -1.799   7.442 -30.791  1.00  0.00     0.067 A 
HETATM   16  C   UNL     1      -0.792   7.135 -29.865  1.00  0.00     0.084 A 
HETATM   17  C   UNL     1      -0.253   5.844 -29.849  1.00  0.00     0.039 A 
HETATM   18  C   UNL     1      -0.744   4.863 -30.716  1.00  0.00     0.026 A 
HETATM   19  C   UNL     1      -1.774   5.169 -31.603  1.00  0.00     0.035 A 
HETATM   20 CL   UNL     1      -2.373   3.960 -32.669  1.00  0.00    -0.084 Cl
HETATM   21  C   UNL     1      -2.313   6.451 -31.642  1.00  0.00     0.043 A 
BRANCH  16  22
HETATM   22  O   UNL     1      -0.304   8.144 -29.079  1.00  0.00    -0.355 OA
HETATM   23  C   UNL     1       0.973   7.877 -28.506  1.00  0.00     0.210 C 
ENDBRANCH  16  22
ENDBRANCH  12  15
ENDBRANCH   9  11
ENDBRANCH   7   9
ENDBRANCH   4   7
BRANCH   1  24
HETATM   24  N   UNL     1      -6.138   3.463 -31.976  1.00  0.00    -0.378 N 
HETATM   25  C   UNL     1      -5.429   2.264 -31.484  1.00  0.00     0.143 C 
HETATM   26  C   UNL     1      -6.068   0.981 -32.059  1.00  0.00     0.145 C 
HETATM   27  N   UNL     1      -6.244   1.014 -33.518  1.00  0.00    -0.349 N 
HETATM   28  C   UNL     1      -6.438  -0.125 -34.296  1.00  0.00     0.219 C 
HETATM   29  C   UNL     1      -6.804   2.262 -34.046  1.00  0.00     0.145 C 
HETATM   30  O   UNL     1      -6.819  -0.056 -35.466  1.00  0.00    -0.273 OA
HETATM   31  C   UNL     1      -6.173   3.529 -33.453  1.00  0.00     0.143 C 
BRANCH  28  32
HETATM   32  C   UNL     1      -6.149  -1.466 -33.640  1.00  0.00     0.103 C 
BRANCH  32  33
HETATM   33  C   UNL     1      -5.377  -2.404 -34.570  1.00  0.00     0.005 C 
HETATM   34  C   UNL     1      -6.221  -3.593 -34.995  1.00  0.00     0.005 C 
ENDBRANCH  32  33
ENDBRANCH  28  32
ENDBRANCH   1  24
TORSDOF 8
ENDMDL
MODEL 5
REMARK VINA RESULT:      -7.5      2.633      3.510
REMARK  8 active torsions:
REMARK  status: ('A' for Active; 'I' for Inactive)
REMARK    1  A    between atoms: C_2  and  C_3 
REMARK    2  A    between atoms: C_3  and  C_4 
REMARK       I    between atoms: C_4  and  N_5 
REMARK    3  A    between atoms: N_8  and  C_9 
REMARK    4  A    between atoms: C_12  and  N_13 
REMARK    5  A    between atoms: N_13  and  C_14 
REMARK    6  A    between atoms: C_14  and  N_15 
REMARK       I    between atoms: N_15  and  C_16 
REMARK    7  A    between atoms: C_16  and  C_17 
REMARK    8  A    between atoms: C_18  and  O_19 
ROOT
HETATM    1  C   UNL     1      -5.383   3.787 -31.186  1.00  0.00     0.030 A 
HETATM    2  C   UNL     1      -4.205   4.524 -31.375  1.00  0.00     0.031 A 
HETATM    3  C   UNL     1      -3.956   5.716 -30.684  1.00  0.00     0.032 A 
HETATM    4  C   UNL     1      -4.884   6.215 -29.775  1.00  0.00     0.034 A 
HETATM    5  C   UNL     1      -6.026   5.466 -29.506  1.00  0.00     0.032 A 
HETATM    6  C   UNL     1      -6.277   4.284 -30.222  1.00  0.00     0.031 A 
ENDROOT
BRANCH   4   7
HETATM    7  N   UNL     1      -4.673   7.429 -29.085  1.00  0.00    -0.333 N 
HETATM    8  H   UNL     1      -4.959   8.269 -29.572  1.00  0.00     0.168 HD
BRANCH   7   9
HETATM    9  C   UNL     1      -3.806   7.620 -28.006  1.00  0.00     0.179 C 
HETATM   10  S   UNL     1      -3.617   6.540 -26.737  1.00  0.00    -0.040 SA
BRANCH   9  11
HETATM   11  N   UNL     1      -3.102   8.827 -28.161  1.00  0.00    -0.299 N 
HETATM   12  C   UNL     1      -2.308   9.351 -29.182  1.00  0.00     0.260 C 
HETATM   13  O   UNL     1      -2.187  10.567 -29.304  1.00  0.00    -0.267 OA
HETATM   14  H   UNL     1      -3.383   9.562 -27.529  1.00  0.00     0.171 HD
BRANCH  12  15
HETATM   15  C   UNL     1      -1.534   8.426 -30.038  1.00  0.00     0.067 A 
HETATM   16  C   UNL     1      -0.485   7.659 -29.510  1.00  0.00     0.084 A 
HETATM   17  C   UNL     1       0.238   6.817 -30.363  1.00  0.00     0.039 A 
HETATM   18  C   UNL     1      -0.109   6.714 -31.714  1.00  0.00     0.026 A 
HETATM   19  C   UNL     1      -1.179   7.452 -32.216  1.00  0.00     0.035 A 
HETATM   20 CL   UNL     1      -1.601   7.322 -33.879  1.00  0.00    -0.084 Cl
HETATM   21  C   UNL     1      -1.902   8.302 -31.386  1.00  0.00     0.043 A 
BRANCH  16  22
HETATM   22  O   UNL     1      -0.146   7.839 -28.196  1.00  0.00    -0.355 OA
HETATM   23  C   UNL     1       1.161   8.368 -27.994  1.00  0.00     0.210 C 
ENDBRANCH  16  22
ENDBRANCH  12  15
ENDBRANCH   9  11
ENDBRANCH   7   9
ENDBRANCH   4   7
BRANCH   1  24
HETATM   24  N   UNL     1      -5.709   2.672 -31.966  1.00  0.00    -0.378 N 
HETATM   25  C   UNL     1      -4.733   1.564 -32.021  1.00  0.00     0.143 C 
HETATM   26  C   UNL     1      -5.418   0.260 -32.485  1.00  0.00     0.145 C 
HETATM   27  N   UNL     1      -6.213   0.417 -33.711  1.00  0.00    -0.349 N 
HETATM   28  C   UNL     1      -6.603  -0.650 -34.518  1.00  0.00     0.219 C 
HETATM   29  C   UNL     1      -7.077   1.601 -33.742  1.00  0.00     0.145 C 
HETATM   30  O   UNL     1      -7.460  -0.523 -35.393  1.00  0.00    -0.273 OA
HETATM   31  C   UNL     1      -6.390   2.886 -33.261  1.00  0.00     0.143 C 
BRANCH  28  32
HETATM   32  C   UNL     1      -5.916  -1.985 -34.275  1.00  0.00     0.103 C 
BRANCH  32  33
HETATM   33  C   UNL     1      -6.859  -3.166 -34.519  1.00  0.00     0.005 C 
HETATM   34  C   UNL     1      -6.198  -4.248 -35.354  1.00  0.00     0.005 C 
ENDBRANCH  32  33
ENDBRANCH  28  32
ENDBRANCH   1  24
TORSDOF 8
ENDMDL
MODEL 6
REMARK VINA RESULT:      -7.4      2.429      3.048
REMARK  8 active torsions:
REMARK  status: ('A' for Active; 'I' for Inactive)
REMARK    1  A    between atoms: C_2  and  C_3 
REMARK    2  A    between atoms: C_3  and  C_4 
REMARK       I    between atoms: C_4  and  N_5 
REMARK    3  A    between atoms: N_8  and  C_9 
REMARK    4  A    between atoms: C_12  and  N_13 
REMARK    5  A    between atoms: N_13  and  C_14 
REMARK    6  A    between atoms: C_14  and  N_15 
REMARK       I    between atoms: N_15  and  C_16 
REMARK    7  A    between atoms: C_16  and  C_17 
REMARK    8  A    between atoms: C_18  and  O_19 
ROOT
HETATM    1  C   UNL     1      -4.839   3.584 -32.425  1.00  0.00     0.030 A 
HETATM    2  C   UNL     1      -4.163   3.956 -31.255  1.00  0.00     0.031 A 
HETATM    3  C   UNL     1      -3.935   5.297 -30.923  1.00  0.00     0.032 A 
HETATM    4  C   UNL     1      -4.376   6.318 -31.759  1.00  0.00     0.034 A 
HETATM    5  C   UNL     1      -5.120   5.984 -32.886  1.00  0.00     0.032 A 
HETATM    6  C   UNL     1      -5.324   4.635 -33.222  1.00  0.00     0.031 A 
ENDROOT
BRANCH   4   7
HETATM    7  N   UNL     1      -4.136   7.678 -31.465  1.00  0.00    -0.333 N 
HETATM    8  H   UNL     1      -4.954   8.275 -31.439  1.00  0.00     0.168 HD
BRANCH   7   9
HETATM    9  C   UNL     1      -2.909   8.338 -31.573  1.00  0.00     0.179 C 
HETATM   10  S   UNL     1      -1.635   7.822 -32.533  1.00  0.00    -0.040 SA
BRANCH   9  11
HETATM   11  N   UNL     1      -2.917   9.503 -30.787  1.00  0.00    -0.299 N 
HETATM   12  C   UNL     1      -2.260   9.875 -29.613  1.00  0.00     0.260 C 
HETATM   13  O   UNL     1      -2.057  11.062 -29.372  1.00  0.00    -0.267 OA
HETATM   14  H   UNL     1      -3.287  10.320 -31.250  1.00  0.00     0.171 HD
BRANCH  12  15
HETATM   15  C   UNL     1      -1.913   8.834 -28.622  1.00  0.00     0.067 A 
HETATM   16  C   UNL     1      -2.904   8.027 -28.044  1.00  0.00     0.084 A 
HETATM   17  C   UNL     1      -2.532   7.073 -27.090  1.00  0.00     0.039 A 
HETATM   18  C   UNL     1      -1.187   6.899 -26.751  1.00  0.00     0.026 A 
HETATM   19  C   UNL     1      -0.208   7.679 -27.364  1.00  0.00     0.035 A 
HETATM   20 CL   UNL     1       1.446   7.463 -26.943  1.00  0.00    -0.084 Cl
HETATM   21  C   UNL     1      -0.559   8.641 -28.305  1.00  0.00     0.043 A 
BRANCH  16  22
HETATM   22  O   UNL     1      -4.211   8.275 -28.363  1.00  0.00    -0.355 OA
HETATM   23  C   UNL     1      -5.131   7.303 -27.873  1.00  0.00     0.210 C 
ENDBRANCH  16  22
ENDBRANCH  12  15
ENDBRANCH   9  11
ENDBRANCH   7   9
ENDBRANCH   4   7
BRANCH   1  24
HETATM   24  N   UNL     1      -4.955   2.252 -32.839  1.00  0.00    -0.378 N 
HETATM   25  C   UNL     1      -6.299   1.764 -33.211  1.00  0.00     0.143 C 
HETATM   26  C   UNL     1      -6.192   0.494 -34.084  1.00  0.00     0.145 C 
HETATM   27  N   UNL     1      -5.318  -0.540 -33.514  1.00  0.00    -0.349 N 
HETATM   28  C   UNL     1      -5.354  -1.878 -33.901  1.00  0.00     0.219 C 
HETATM   29  C   UNL     1      -4.038  -0.051 -32.994  1.00  0.00     0.145 C 
HETATM   30  O   UNL     1      -4.461  -2.669 -33.591  1.00  0.00    -0.273 OA
HETATM   31  C   UNL     1      -4.154   1.221 -32.144  1.00  0.00     0.143 C 
BRANCH  28  32
HETATM   32  C   UNL     1      -6.553  -2.326 -34.722  1.00  0.00     0.103 C 
BRANCH  32  33
HETATM   33  C   UNL     1      -6.866  -3.809 -34.513  1.00  0.00     0.005 C 
HETATM   34  C   UNL     1      -6.327  -4.662 -35.649  1.00  0.00     0.005 C 
ENDBRANCH  32  33
ENDBRANCH  28  32
ENDBRANCH   1  24
TORSDOF 8
ENDMDL
MODEL 7
REMARK VINA RESULT:      -7.4      5.461      8.670
REMARK  8 active torsions:
REMARK  status: ('A' for Active; 'I' for Inactive)
REMARK    1  A    between atoms: C_2  and  C_3 
REMARK    2  A    between atoms: C_3  and  C_4 
REMARK       I    between atoms: C_4  and  N_5 
REMARK    3  A    between atoms: N_8  and  C_9 
REMARK    4  A    between atoms: C_12  and  N_13 
REMARK    5  A    between atoms: N_13  and  C_14 
REMARK    6  A    between atoms: C_14  and  N_15 
REMARK       I    between atoms: N_15  and  C_16 
REMARK    7  A    between atoms: C_16  and  C_17 
REMARK    8  A    between atoms: C_18  and  O_19 
ROOT
HETATM    1  C   UNL     1      -6.942   2.590 -32.770  1.00  0.00     0.030 A 
HETATM    2  C   UNL     1      -7.518   1.897 -31.696  1.00  0.00     0.031 A 
HETATM    3  C   UNL     1      -8.829   1.407 -31.746  1.00  0.00     0.032 A 
HETATM    4  C   UNL     1      -9.613   1.597 -32.880  1.00  0.00     0.034 A 
HETATM    5  C   UNL     1      -9.043   2.210 -33.991  1.00  0.00     0.032 A 
HETATM    6  C   UNL     1      -7.735   2.717 -33.923  1.00  0.00     0.031 A 
ENDROOT
BRANCH   4   7
HETATM    7  N   UNL     1     -10.947   1.139 -32.949  1.00  0.00    -0.333 N 
HETATM    8  H   UNL     1     -11.073   0.137 -32.885  1.00  0.00     0.168 HD
BRANCH   7   9
HETATM    9  C   UNL     1     -12.037   1.856 -33.450  1.00  0.00     0.179 C 
HETATM   10  S   UNL     1     -12.509   1.863 -35.059  1.00  0.00    -0.040 SA
BRANCH   9  11
HETATM   11  N   UNL     1     -12.689   2.535 -32.406  1.00  0.00    -0.299 N 
HETATM   12  C   UNL     1     -12.580   3.825 -31.884  1.00  0.00     0.260 C 
HETATM   13  O   UNL     1     -13.536   4.339 -31.311  1.00  0.00    -0.267 OA
HETATM   14  H   UNL     1     -13.554   2.111 -32.104  1.00  0.00     0.171 HD
BRANCH  12  15
HETATM   15  C   UNL     1     -11.272   4.514 -31.935  1.00  0.00     0.067 A 
HETATM   16  C   UNL     1     -10.881   5.241 -33.068  1.00  0.00     0.084 A 
HETATM   17  C   UNL     1      -9.623   5.854 -33.083  1.00  0.00     0.039 A 
HETATM   18  C   UNL     1      -8.787   5.775 -31.965  1.00  0.00     0.026 A 
HETATM   19  C   UNL     1      -9.205   5.084 -30.829  1.00  0.00     0.035 A 
HETATM   20 CL   UNL     1      -8.171   4.989 -29.457  1.00  0.00    -0.084 Cl
HETATM   21  C   UNL     1     -10.447   4.458 -30.801  1.00  0.00     0.043 A 
BRANCH  16  22
HETATM   22  O   UNL     1     -11.709   5.239 -34.158  1.00  0.00    -0.355 OA
HETATM   23  C   UNL     1     -11.063   5.558 -35.388  1.00  0.00     0.210 C 
ENDBRANCH  16  22
ENDBRANCH  12  15
ENDBRANCH   9  11
ENDBRANCH   7   9
ENDBRANCH   4   7
BRANCH   1  24
HETATM   24  N   UNL     1      -5.687   3.204 -32.686  1.00  0.00    -0.378 N 
HETATM   25  C   UNL     1      -5.195   3.926 -33.878  1.00  0.00     0.143 C 
HETATM   26  C   UNL     1      -4.084   4.924 -33.486  1.00  0.00     0.145 C 
HETATM   27  N   UNL     1      -3.019   4.329 -32.667  1.00  0.00    -0.349 N 
HETATM   28  C   UNL     1      -1.758   4.901 -32.510  1.00  0.00     0.219 C 
HETATM   29  C   UNL     1      -3.486   3.479 -31.568  1.00  0.00     0.145 C 
HETATM   30  O   UNL     1      -0.975   4.518 -31.639  1.00  0.00    -0.273 OA
HETATM   31  C   UNL     1      -4.602   2.504 -31.965  1.00  0.00     0.143 C 
BRANCH  28  32
HETATM   32  C   UNL     1      -1.383   6.019 -33.470  1.00  0.00     0.103 C 
BRANCH  32  33
HETATM   33  C   UNL     1      -1.059   7.320 -32.734  1.00  0.00     0.005 C 
HETATM   34  C   UNL     1      -2.284   7.894 -32.042  1.00  0.00     0.005 C 
ENDBRANCH  32  33
ENDBRANCH  28  32
ENDBRANCH   1  24
TORSDOF 8
ENDMDL
MODEL 8
REMARK VINA RESULT:      -7.4      4.063     10.287
REMARK  8 active torsions:
REMARK  status: ('A' for Active; 'I' for Inactive)
REMARK    1  A    between atoms: C_2  and  C_3 
REMARK    2  A    between atoms: C_3  and  C_4 
REMARK       I    between atoms: C_4  and  N_5 
REMARK    3  A    between atoms: N_8  and  C_9 
REMARK    4  A    between atoms: C_12  and  N_13 
REMARK    5  A    between atoms: N_13  and  C_14 
REMARK    6  A    between atoms: C_14  and  N_15 
REMARK       I    between atoms: N_15  and  C_16 
REMARK    7  A    between atoms: C_16  and  C_17 
REMARK    8  A    between atoms: C_18  and  O_19 
ROOT
HETATM    1  C   UNL     1      -2.273   6.133 -30.739  1.00  0.00     0.030 A 
HETATM    2  C   UNL     1      -1.693   4.973 -31.272  1.00  0.00     0.031 A 
HETATM    3  C   UNL     1      -2.436   4.040 -32.006  1.00  0.00     0.032 A 
HETATM    4  C   UNL     1      -3.795   4.238 -32.231  1.00  0.00     0.034 A 
HETATM    5  C   UNL     1      -4.382   5.417 -31.784  1.00  0.00     0.032 A 
HETATM    6  C   UNL     1      -3.633   6.336 -31.030  1.00  0.00     0.031 A 
ENDROOT
BRANCH   4   7
HETATM    7  N   UNL     1      -4.576   3.301 -32.942  1.00  0.00    -0.333 N 
HETATM    8  H   UNL     1      -4.227   3.039 -33.856  1.00  0.00     0.168 HD
BRANCH   7   9
HETATM    9  C   UNL     1      -5.916   2.992 -32.695  1.00  0.00     0.179 C 
HETATM   10  S   UNL     1      -7.197   3.489 -33.655  1.00  0.00    -0.040 SA
BRANCH   9  11
HETATM   11  N   UNL     1      -6.021   2.183 -31.550  1.00  0.00    -0.299 N 
HETATM   12  C   UNL     1      -5.869   0.814 -31.324  1.00  0.00     0.260 C 
HETATM   13  O   UNL     1      -5.550   0.407 -30.210  1.00  0.00    -0.267 OA
HETATM   14  H   UNL     1      -5.981   2.685 -30.675  1.00  0.00     0.171 HD
BRANCH  12  15
HETATM   15  C   UNL     1      -6.201  -0.136 -32.407  1.00  0.00     0.067 A 
HETATM   16  C   UNL     1      -7.507  -0.229 -32.911  1.00  0.00     0.084 A 
HETATM   17  C   UNL     1      -7.782  -1.162 -33.918  1.00  0.00     0.039 A 
HETATM   18  C   UNL     1      -6.758  -1.959 -34.441  1.00  0.00     0.026 A 
HETATM   19  C   UNL     1      -5.457  -1.826 -33.960  1.00  0.00     0.035 A 
HETATM   20 CL   UNL     1      -4.202  -2.809 -34.606  1.00  0.00    -0.084 Cl
HETATM   21  C   UNL     1      -5.168  -0.913 -32.951  1.00  0.00     0.043 A 
BRANCH  16  22
HETATM   22  O   UNL     1      -8.485   0.529 -32.326  1.00  0.00    -0.355 OA
HETATM   23  C   UNL     1      -9.805   0.231 -32.773  1.00  0.00     0.210 C 
ENDBRANCH  16  22
ENDBRANCH  12  15
ENDBRANCH   9  11
ENDBRANCH   7   9
ENDBRANCH   4   7
BRANCH   1  24
HETATM   24  N   UNL     1      -1.579   7.003 -29.891  1.00  0.00    -0.378 N 
HETATM   25  C   UNL     1      -0.504   6.433 -29.052  1.00  0.00     0.143 C 
HETATM   26  C   UNL     1       0.456   7.543 -28.572  1.00  0.00     0.145 C 
HETATM   27  N   UNL     1      -0.230   8.692 -27.964  1.00  0.00    -0.349 N 
HETATM   28  C   UNL     1       0.404   9.617 -27.137  1.00  0.00     0.219 C 
HETATM   29  C   UNL     1      -1.399   9.177 -28.703  1.00  0.00     0.145 C 
HETATM   30  O   UNL     1      -0.123  10.690 -26.839  1.00  0.00    -0.273 OA
HETATM   31  C   UNL     1      -2.335   8.064 -29.191  1.00  0.00     0.143 C 
BRANCH  28  32
HETATM   32  C   UNL     1       1.779   9.241 -26.608  1.00  0.00     0.103 C 
BRANCH  32  33
HETATM   33  C   UNL     1       1.927   9.563 -25.120  1.00  0.00     0.005 C 
HETATM   34  C   UNL     1       3.220   9.005 -24.550  1.00  0.00     0.005 C 
ENDBRANCH  32  33
ENDBRANCH  28  32
ENDBRANCH   1  24
TORSDOF 8
ENDMDL
MODEL 9
REMARK VINA RESULT:      -7.1      6.075      9.450
REMARK  8 active torsions:
REMARK  status: ('A' for Active; 'I' for Inactive)
REMARK    1  A    between atoms: C_2  and  C_3 
REMARK    2  A    between atoms: C_3  and  C_4 
REMARK       I    between atoms: C_4  and  N_5 
REMARK    3  A    between atoms: N_8  and  C_9 
REMARK    4  A    between atoms: C_12  and  N_13 
REMARK    5  A    between atoms: N_13  and  C_14 
REMARK    6  A    between atoms: C_14  and  N_15 
REMARK       I    between atoms: N_15  and  C_16 
REMARK    7  A    between atoms: C_16  and  C_17 
REMARK    8  A    between atoms: C_18  and  O_19 
ROOT
HETATM    1  C   UNL     1      -8.378   5.106 -31.850  1.00  0.00     0.030 A 
HETATM    2  C   UNL     1      -8.977   6.040 -32.708  1.00  0.00     0.031 A 
HETATM    3  C   UNL     1     -10.364   6.101 -32.888  1.00  0.00     0.032 A 
HETATM    4  C   UNL     1     -11.205   5.222 -32.212  1.00  0.00     0.034 A 
HETATM    5  C   UNL     1     -10.648   4.338 -31.293  1.00  0.00     0.032 A 
HETATM    6  C   UNL     1      -9.254   4.270 -31.137  1.00  0.00     0.031 A 
ENDROOT
BRANCH   4   7
HETATM    7  N   UNL     1     -12.605   5.241 -32.395  1.00  0.00    -0.333 N 
HETATM    8  H   UNL     1     -13.106   5.961 -31.890  1.00  0.00     0.168 HD
BRANCH   7   9
HETATM    9  C   UNL     1     -13.385   4.187 -32.879  1.00  0.00     0.179 C 
HETATM   10  S   UNL     1     -14.468   3.304 -31.953  1.00  0.00    -0.040 SA
BRANCH   9  11
HETATM   11  N   UNL     1     -13.149   4.004 -34.253  1.00  0.00    -0.299 N 
HETATM   12  C   UNL     1     -12.555   2.983 -34.998  1.00  0.00     0.260 C 
HETATM   13  O   UNL     1     -12.869   2.819 -36.174  1.00  0.00    -0.267 OA
HETATM   14  H   UNL     1     -13.694   4.601 -34.857  1.00  0.00     0.171 HD
BRANCH  12  15
HETATM   15  C   UNL     1     -11.474   2.182 -34.386  1.00  0.00     0.067 A 
HETATM   16  C   UNL     1     -11.759   1.011 -33.668  1.00  0.00     0.084 A 
HETATM   17  C   UNL     1     -10.706   0.299 -33.083  1.00  0.00     0.039 A 
HETATM   18  C   UNL     1      -9.385   0.728 -33.250  1.00  0.00     0.026 A 
HETATM   19  C   UNL     1      -9.113   1.870 -34.001  1.00  0.00     0.035 A 
HETATM   20 CL   UNL     1      -7.486   2.394 -34.201  1.00  0.00    -0.084 Cl
HETATM   21  C   UNL     1     -10.148   2.597 -34.579  1.00  0.00     0.043 A 
BRANCH  16  22
HETATM   22  O   UNL     1     -13.070   0.666 -33.484  1.00  0.00    -0.355 OA
HETATM   23  C   UNL     1     -13.327  -0.734 -33.566  1.00  0.00     0.210 C 
ENDBRANCH  16  22
ENDBRANCH  12  15
ENDBRANCH   9  11
ENDBRANCH   7   9
ENDBRANCH   4   7
BRANCH   1  24
HETATM   24  N   UNL     1      -6.991   4.941 -31.763  1.00  0.00    -0.378 N 
HETATM   25  C   UNL     1      -6.148   5.712 -32.701  1.00  0.00     0.143 C 
HETATM   26  C   UNL     1      -4.700   5.806 -32.175  1.00  0.00     0.145 C 
HETATM   27  N   UNL     1      -4.128   4.509 -31.787  1.00  0.00    -0.349 N 
HETATM   28  C   UNL     1      -2.761   4.281 -31.648  1.00  0.00     0.219 C 
HETATM   29  C   UNL     1      -5.012   3.660 -30.983  1.00  0.00     0.145 C 
HETATM   30  O   UNL     1      -2.324   3.270 -31.094  1.00  0.00    -0.273 OA
HETATM   31  C   UNL     1      -6.453   3.588 -31.505  1.00  0.00     0.143 C 
BRANCH  28  32
HETATM   32  C   UNL     1      -1.824   5.334 -32.217  1.00  0.00     0.103 C 
BRANCH  32  33
HETATM   33  C   UNL     1      -1.305   4.948 -33.604  1.00  0.00     0.005 C 
HETATM   34  C   UNL     1      -2.020   5.713 -34.704  1.00  0.00     0.005 C 
ENDBRANCH  32  33
ENDBRANCH  28  32
ENDBRANCH   1  24
TORSDOF 8
ENDMDL
MODEL 10
REMARK VINA RESULT:      -7.0      2.031      2.660
REMARK  8 active torsions:
REMARK  status: ('A' for Active; 'I' for Inactive)
REMARK    1  A    between atoms: C_2  and  C_3 
REMARK    2  A    between atoms: C_3  and  C_4 
REMARK       I    between atoms: C_4  and  N_5 
REMARK    3  A    between atoms: N_8  and  C_9 
REMARK    4  A    between atoms: C_12  and  N_13 
REMARK    5  A    between atoms: N_13  and  C_14 
REMARK    6  A    between atoms: C_14  and  N_15 
REMARK       I    between atoms: N_15  and  C_16 
REMARK    7  A    between atoms: C_16  and  C_17 
REMARK    8  A    between atoms: C_18  and  O_19 
ROOT
HETATM    1  C   UNL     1      -4.108   2.767 -31.692  1.00  0.00     0.030 A 
HETATM    2  C   UNL     1      -3.082   3.651 -32.051  1.00  0.00     0.031 A 
HETATM    3  C   UNL     1      -2.978   4.934 -31.499  1.00  0.00     0.032 A 
HETATM    4  C   UNL     1      -3.907   5.378 -30.563  1.00  0.00     0.034 A 
HETATM    5  C   UNL     1      -4.890   4.495 -30.125  1.00  0.00     0.032 A 
HETATM    6  C   UNL     1      -4.998   3.219 -30.703  1.00  0.00     0.031 A 
ENDROOT
BRANCH   4   7
HETATM    7  N   UNL     1      -3.845   6.675 -30.009  1.00  0.00    -0.333 N 
HETATM    8  H   UNL     1      -3.432   6.743 -29.087  1.00  0.00     0.168 HD
BRANCH   7   9
HETATM    9  C   UNL     1      -4.599   7.780 -30.417  1.00  0.00     0.179 C 
HETATM   10  S   UNL     1      -6.220   8.008 -30.056  1.00  0.00    -0.040 SA
BRANCH   9  11
HETATM   11  N   UNL     1      -3.791   8.674 -31.141  1.00  0.00    -0.299 N 
HETATM   12  C   UNL     1      -2.464   9.088 -31.014  1.00  0.00     0.260 C 
HETATM   13  O   UNL     1      -1.851   9.496 -31.997  1.00  0.00    -0.267 OA
HETATM   14  H   UNL     1      -4.141   8.909 -32.058  1.00  0.00     0.171 HD
BRANCH  12  15
HETATM   15  C   UNL     1      -1.849   9.131 -29.670  1.00  0.00     0.067 A 
HETATM   16  C   UNL     1      -0.951   8.137 -29.253  1.00  0.00     0.084 A 
HETATM   17  C   UNL     1      -0.415   8.203 -27.962  1.00  0.00     0.039 A 
HETATM   18  C   UNL     1      -0.738   9.269 -27.117  1.00  0.00     0.026 A 
HETATM   19  C   UNL     1      -1.599  10.272 -27.559  1.00  0.00     0.035 A 
HETATM   20 CL   UNL     1      -1.995  11.580 -26.514  1.00  0.00    -0.084 Cl
HETATM   21  C   UNL     1      -2.152  10.216 -28.834  1.00  0.00     0.043 A 
BRANCH  16  22
HETATM   22  O   UNL     1      -0.713   7.084 -30.094  1.00  0.00    -0.355 OA
HETATM   23  C   UNL     1       0.002   6.005 -29.497  1.00  0.00     0.210 C 
ENDBRANCH  16  22
ENDBRANCH  12  15
ENDBRANCH   9  11
ENDBRANCH   7   9
ENDBRANCH   4   7
BRANCH   1  24
HETATM   24  N   UNL     1      -4.305   1.538 -32.333  1.00  0.00    -0.378 N 
HETATM   25  C   UNL     1      -5.688   1.171 -32.702  1.00  0.00     0.143 C 
HETATM   26  C   UNL     1      -5.686   0.081 -33.795  1.00  0.00     0.145 C 
HETATM   27  N   UNL     1      -4.828  -1.070 -33.478  1.00  0.00    -0.349 N 
HETATM   28  C   UNL     1      -4.944  -2.311 -34.099  1.00  0.00     0.219 C 
HETATM   29  C   UNL     1      -3.500  -0.727 -32.959  1.00  0.00     0.145 C 
HETATM   30  O   UNL     1      -4.071  -3.175 -33.993  1.00  0.00    -0.273 OA
HETATM   31  C   UNL     1      -3.514   0.371 -31.887  1.00  0.00     0.143 C 
BRANCH  28  32
HETATM   32  C   UNL     1      -6.205  -2.561 -34.911  1.00  0.00     0.103 C 
BRANCH  32  33
HETATM   33  C   UNL     1      -6.789  -3.950 -34.646  1.00  0.00     0.005 C 
HETATM   34  C   UNL     1      -6.391  -4.942 -35.726  1.00  0.00     0.005 C 
ENDBRANCH  32  33
ENDBRANCH  28  32
ENDBRANCH   1  24
TORSDOF 8
ENDMDL
