MODEL 1
REMARK VINA RESULT:     -10.3      0.000      0.000
REMARK  9 active torsions:
REMARK  status: ('A' for Active; 'I' for Inactive)
REMARK    1  A    between atoms: C_8  and  C_9 
REMARK    2  A    between atoms: C_9  and  C_10 
REMARK    3  A    between atoms: N_14  and  C_15 
REMARK    4  A    between atoms: C_15  and  C_16 
REMARK    5  A    between atoms: C_27  and  N_28 
REMARK    6  A    between atoms: N_28  and  C_29 
REMARK    7  A    between atoms: C_29  and  C_30 
REMARK    8  A    between atoms: C_30  and  O_31 
REMARK    9  A    between atoms: C_30  and  C_32 
ROOT
HETATM    1  C   UNL     1       0.003   5.092 -30.482  1.00  0.00     0.052 C 
HETATM    2  C   UNL     1      -0.749   5.698 -31.626  1.00  0.00    -0.015 A 
HETATM    3  C   UNL     1      -1.975   4.975 -32.116  1.00  0.00     0.144 A 
HETATM    4  N   UNL     1      -2.277   3.823 -31.606  1.00  0.00    -0.217 NA
HETATM    5  N   UNL     1      -2.724   5.596 -33.101  1.00  0.00    -0.272 N 
HETATM    6  C   UNL     1      -3.891   5.002 -33.552  1.00  0.00     0.266 A 
HETATM    7  O   UNL     1      -4.595   5.457 -34.457  1.00  0.00    -0.267 OA
HETATM    8  C   UNL     1      -4.286   3.729 -32.881  1.00  0.00     0.074 A 
HETATM    9  C   UNL     1      -3.418   3.183 -32.000  1.00  0.00     0.121 A 
HETATM   10  C   UNL     1      -2.309   6.794 -33.671  1.00  0.00     0.102 A 
HETATM   11  C   UNL     1      -1.194   7.416 -33.271  1.00  0.00     0.018 A 
HETATM   12  C   UNL     1      -0.406   6.859 -32.205  1.00  0.00     0.012 A 
ENDROOT
BRANCH   8  13
HETATM   13  C   UNL     1      -5.587   3.160 -33.215  1.00  0.00     0.045 C 
BRANCH  13  14
HETATM   14  C   UNL     1      -6.751   3.474 -32.628  1.00  0.00     0.077 A 
HETATM   15  S   UNL     1      -7.277   3.053 -31.049  1.00  0.00    -0.055 SA
HETATM   16  C   UNL     1      -8.889   3.699 -31.312  1.00  0.00     0.149 A 
HETATM   17  S   UNL     1     -10.098   3.507 -30.178  1.00  0.00    -0.052 SA
HETATM   18  N   UNL     1      -8.951   4.314 -32.545  1.00  0.00    -0.294 N 
HETATM   19  C   UNL     1      -7.816   4.229 -33.336  1.00  0.00     0.266 A 
HETATM   20  O   UNL     1      -7.698   4.645 -34.480  1.00  0.00    -0.266 OA
BRANCH  18  21
HETATM   21  C   UNL     1     -10.133   4.980 -33.085  1.00  0.00     0.172 C 
BRANCH  21  22
HETATM   22  C   UNL     1     -11.145   4.002 -33.642  1.00  0.00    -0.037 A 
HETATM   23  C   UNL     1     -12.205   3.546 -32.838  1.00  0.00     0.048 A 
HETATM   24  C   UNL     1     -13.103   2.654 -33.386  1.00  0.00     0.105 A 
HETATM   25  C   UNL     1     -12.983   2.205 -34.678  1.00  0.00     0.105 A 
HETATM   26  O   UNL     1     -14.185   2.127 -32.753  1.00  0.00    -0.323 OA
HETATM   27  O   UNL     1     -13.971   1.335 -35.022  1.00  0.00    -0.323 OA
HETATM   28  C   UNL     1     -11.959   2.621 -35.497  1.00  0.00     0.040 A 
HETATM   29  C   UNL     1     -14.734   1.297 -33.799  1.00  0.00     0.352 A 
HETATM   30  C   UNL     1     -11.035   3.532 -34.972  1.00  0.00     0.012 A 
ENDBRANCH  21  22
ENDBRANCH  18  21
ENDBRANCH  13  14
ENDBRANCH   8  13
BRANCH   9  31
HETATM   31  N   UNL     1      -3.637   1.957 -31.382  1.00  0.00    -0.274 NA
HETATM   32  H   UNL     1      -3.247   2.018 -30.436  1.00  0.00     0.129 HD
BRANCH  31  33
HETATM   33  C   UNL     1      -3.325   0.665 -32.009  1.00  0.00     0.130 C 
BRANCH  33  34
HETATM   34  C   UNL     1      -4.362  -0.418 -31.616  1.00  0.00     0.164 C 
BRANCH  34  35
HETATM   35  O   UNL     1      -5.342   0.141 -30.727  1.00  0.00    -0.390 OA
HETATM   36  H   UNL     1      -5.417  -0.450 -29.958  1.00  0.00     0.210 HD
ENDBRANCH  34  35
BRANCH  34  37
HETATM   37  C   UNL     1      -5.100  -1.123 -32.737  1.00  0.00    -0.029 A 
HETATM   38  C   UNL     1      -6.454  -0.912 -33.032  1.00  0.00     0.010 A 
HETATM   39  C   UNL     1      -7.075  -1.591 -34.085  1.00  0.00     0.001 A 
HETATM   40  C   UNL     1      -6.352  -2.494 -34.860  1.00  0.00     0.000 A 
HETATM   41  C   UNL     1      -5.008  -2.726 -34.578  1.00  0.00     0.001 A 
HETATM   42  C   UNL     1      -4.389  -2.047 -33.525  1.00  0.00     0.010 A 
ENDBRANCH  34  37
ENDBRANCH  33  34
ENDBRANCH  31  33
ENDBRANCH   9  31
TORSDOF 9
ENDMDL
MODEL 2
REMARK VINA RESULT:     -10.2      2.639      8.462
REMARK  9 active torsions:
REMARK  status: ('A' for Active; 'I' for Inactive)
REMARK    1  A    between atoms: C_8  and  C_9 
REMARK    2  A    between atoms: C_9  and  C_10 
REMARK    3  A    between atoms: N_14  and  C_15 
REMARK    4  A    between atoms: C_15  and  C_16 
REMARK    5  A    between atoms: C_27  and  N_28 
REMARK    6  A    between atoms: N_28  and  C_29 
REMARK    7  A    between atoms: C_29  and  C_30 
REMARK    8  A    between atoms: C_30  and  O_31 
REMARK    9  A    between atoms: C_30  and  C_32 
ROOT
HETATM    1  C   UNL     1     -10.122  -0.417 -32.720  1.00  0.00     0.052 C 
HETATM    2  C   UNL     1     -10.465   0.905 -33.332  1.00  0.00    -0.015 A 
HETATM    3  C   UNL     1      -9.396   1.964 -33.351  1.00  0.00     0.144 A 
HETATM    4  N   UNL     1      -8.266   1.734 -32.760  1.00  0.00    -0.217 NA
HETATM    5  N   UNL     1      -9.687   3.145 -34.013  1.00  0.00    -0.272 N 
HETATM    6  C   UNL     1      -8.722   4.133 -34.109  1.00  0.00     0.266 A 
HETATM    7  O   UNL     1      -8.906   5.233 -34.636  1.00  0.00    -0.267 OA
HETATM    8  C   UNL     1      -7.389   3.814 -33.519  1.00  0.00     0.074 A 
HETATM    9  C   UNL     1      -7.266   2.663 -32.820  1.00  0.00     0.121 A 
HETATM   10  C   UNL     1     -10.945   3.371 -34.560  1.00  0.00     0.102 A 
HETATM   11  C   UNL     1     -11.914   2.450 -34.503  1.00  0.00     0.018 A 
HETATM   12  C   UNL     1     -11.656   1.176 -33.889  1.00  0.00     0.012 A 
ENDROOT
BRANCH   8  13
HETATM   13  C   UNL     1      -6.302   4.762 -33.741  1.00  0.00     0.045 C 
BRANCH  13  14
HETATM   14  C   UNL     1      -5.812   5.614 -32.830  1.00  0.00     0.077 A 
HETATM   15  S   UNL     1      -6.583   6.188 -31.408  1.00  0.00    -0.055 SA
HETATM   16  C   UNL     1      -5.294   7.330 -31.057  1.00  0.00     0.149 A 
HETATM   17  S   UNL     1      -5.421   8.427 -29.806  1.00  0.00    -0.052 SA
HETATM   18  N   UNL     1      -4.266   7.167 -31.962  1.00  0.00    -0.294 N 
HETATM   19  C   UNL     1      -4.475   6.245 -32.975  1.00  0.00     0.266 A 
HETATM   20  O   UNL     1      -3.719   6.011 -33.908  1.00  0.00    -0.266 OA
BRANCH  18  21
HETATM   21  C   UNL     1      -3.023   7.934 -31.957  1.00  0.00     0.172 C 
BRANCH  21  22
HETATM   22  C   UNL     1      -1.995   7.363 -31.003  1.00  0.00    -0.037 A 
HETATM   23  C   UNL     1      -1.332   6.163 -31.314  1.00  0.00     0.048 A 
HETATM   24  C   UNL     1      -0.403   5.679 -30.416  1.00  0.00     0.105 A 
HETATM   25  C   UNL     1      -0.123   6.330 -29.240  1.00  0.00     0.105 A 
HETATM   26  O   UNL     1       0.332   4.545 -30.568  1.00  0.00    -0.323 OA
HETATM   27  O   UNL     1       0.821   5.688 -28.500  1.00  0.00    -0.323 OA
HETATM   28  C   UNL     1      -0.754   7.503 -28.894  1.00  0.00     0.040 A 
HETATM   29  C   UNL     1       1.111   4.561 -29.354  1.00  0.00     0.352 A 
HETATM   30  C   UNL     1      -1.696   8.024 -29.788  1.00  0.00     0.012 A 
ENDBRANCH  21  22
ENDBRANCH  18  21
ENDBRANCH  13  14
ENDBRANCH   8  13
BRANCH   9  31
HETATM   31  N   UNL     1      -6.101   2.304 -32.151  1.00  0.00    -0.274 NA
HETATM   32  H   UNL     1      -5.703   3.159 -31.750  1.00  0.00     0.129 HD
BRANCH  31  33
HETATM   33  C   UNL     1      -5.060   1.448 -32.736  1.00  0.00     0.130 C 
BRANCH  33  34
HETATM   34  C   UNL     1      -5.123   0.010 -32.161  1.00  0.00     0.164 C 
BRANCH  34  35
HETATM   35  O   UNL     1      -6.168  -0.082 -31.181  1.00  0.00    -0.390 OA
HETATM   36  H   UNL     1      -6.780   0.660 -31.329  1.00  0.00     0.210 HD
ENDBRANCH  34  35
BRANCH  34  37
HETATM   37  C   UNL     1      -5.304  -1.130 -33.144  1.00  0.00    -0.029 A 
HETATM   38  C   UNL     1      -4.269  -1.994 -33.533  1.00  0.00     0.010 A 
HETATM   39  C   UNL     1      -4.503  -3.032 -34.440  1.00  0.00     0.001 A 
HETATM   40  C   UNL     1      -5.775  -3.222 -34.975  1.00  0.00     0.000 A 
HETATM   41  C   UNL     1      -6.814  -2.370 -34.609  1.00  0.00     0.001 A 
HETATM   42  C   UNL     1      -6.578  -1.333 -33.703  1.00  0.00     0.010 A 
ENDBRANCH  34  37
ENDBRANCH  33  34
ENDBRANCH  31  33
ENDBRANCH   9  31
TORSDOF 9
ENDMDL
MODEL 3
REMARK VINA RESULT:     -10.1      2.426      8.600
REMARK  9 active torsions:
REMARK  status: ('A' for Active; 'I' for Inactive)
REMARK    1  A    between atoms: C_8  and  C_9 
REMARK    2  A    between atoms: C_9  and  C_10 
REMARK    3  A    between atoms: N_14  and  C_15 
REMARK    4  A    between atoms: C_15  and  C_16 
REMARK    5  A    between atoms: C_27  and  N_28 
REMARK    6  A    between atoms: N_28  and  C_29 
REMARK    7  A    between atoms: C_29  and  C_30 
REMARK    8  A    between atoms: C_30  and  O_31 
REMARK    9  A    between atoms: C_30  and  C_32 
ROOT
HETATM    1  C   UNL     1     -13.121  -0.641 -33.665  1.00  0.00     0.052 C 
HETATM    2  C   UNL     1     -13.027   0.846 -33.527  1.00  0.00    -0.015 A 
HETATM    3  C   UNL     1     -11.653   1.459 -33.490  1.00  0.00     0.144 A 
HETATM    4  N   UNL     1     -10.615   0.685 -33.480  1.00  0.00    -0.217 NA
HETATM    5  N   UNL     1     -11.578   2.842 -33.469  1.00  0.00    -0.272 N 
HETATM    6  C   UNL     1     -10.339   3.460 -33.489  1.00  0.00     0.266 A 
HETATM    7  O   UNL     1     -10.173   4.682 -33.425  1.00  0.00    -0.267 OA
HETATM    8  C   UNL     1      -9.152   2.562 -33.588  1.00  0.00     0.074 A 
HETATM    9  C   UNL     1      -9.361   1.228 -33.506  1.00  0.00     0.121 A 
HETATM   10  C   UNL     1     -12.725   3.623 -33.398  1.00  0.00     0.102 A 
HETATM   11  C   UNL     1     -13.948   3.080 -33.382  1.00  0.00     0.018 A 
HETATM   12  C   UNL     1     -14.099   1.653 -33.469  1.00  0.00     0.012 A 
ENDROOT
BRANCH   8  13
HETATM   13  C   UNL     1      -7.844   3.179 -33.773  1.00  0.00     0.045 C 
BRANCH  13  14
HETATM   14  C   UNL     1      -7.144   3.823 -32.828  1.00  0.00     0.077 A 
HETATM   15  S   UNL     1      -7.282   3.659 -31.125  1.00  0.00    -0.055 SA
HETATM   16  C   UNL     1      -6.175   4.987 -30.813  1.00  0.00     0.149 A 
HETATM   17  S   UNL     1      -5.908   5.550 -29.265  1.00  0.00    -0.052 SA
HETATM   18  N   UNL     1      -5.647   5.446 -32.001  1.00  0.00    -0.294 N 
HETATM   19  C   UNL     1      -6.134   4.860 -33.160  1.00  0.00     0.266 A 
HETATM   20  O   UNL     1      -5.846   5.175 -34.306  1.00  0.00    -0.266 OA
BRANCH  18  21
HETATM   21  C   UNL     1      -4.675   6.528 -32.118  1.00  0.00     0.172 C 
BRANCH  21  22
HETATM   22  C   UNL     1      -3.251   6.049 -31.931  1.00  0.00    -0.037 A 
HETATM   23  C   UNL     1      -2.597   6.237 -30.700  1.00  0.00     0.048 A 
HETATM   24  C   UNL     1      -1.300   5.786 -30.574  1.00  0.00     0.105 A 
HETATM   25  C   UNL     1      -0.641   5.172 -31.611  1.00  0.00     0.105 A 
HETATM   26  O   UNL     1      -0.533   5.877 -29.454  1.00  0.00    -0.323 OA
HETATM   27  O   UNL     1       0.625   4.803 -31.278  1.00  0.00    -0.323 OA
HETATM   28  C   UNL     1      -1.241   4.974 -32.833  1.00  0.00     0.040 A 
HETATM   29  C   UNL     1       0.683   5.245 -29.906  1.00  0.00     0.352 A 
HETATM   30  C   UNL     1      -2.560   5.415 -32.990  1.00  0.00     0.012 A 
ENDBRANCH  21  22
ENDBRANCH  18  21
ENDBRANCH  13  14
ENDBRANCH   8  13
BRANCH   9  31
HETATM   31  N   UNL     1      -8.327   0.299 -33.495  1.00  0.00    -0.274 NA
HETATM   32  H   UNL     1      -7.570   0.691 -32.925  1.00  0.00     0.129 HD
BRANCH  31  33
HETATM   33  C   UNL     1      -7.807  -0.351 -34.705  1.00  0.00     0.130 C 
BRANCH  33  34
HETATM   34  C   UNL     1      -6.302  -0.696 -34.557  1.00  0.00     0.164 C 
BRANCH  34  35
HETATM   35  O   UNL     1      -5.773  -0.086 -33.370  1.00  0.00    -0.390 OA
HETATM   36  H   UNL     1      -4.804  -0.168 -33.401  1.00  0.00     0.210 HD
ENDBRANCH  34  35
BRANCH  34  37
HETATM   37  C   UNL     1      -5.918  -2.163 -34.539  1.00  0.00    -0.029 A 
HETATM   38  C   UNL     1      -6.805  -3.204 -34.845  1.00  0.00     0.010 A 
HETATM   39  C   UNL     1      -6.386  -4.538 -34.815  1.00  0.00     0.001 A 
HETATM   40  C   UNL     1      -5.072  -4.852 -34.476  1.00  0.00     0.000 A 
HETATM   41  C   UNL     1      -4.177  -3.833 -34.160  1.00  0.00     0.001 A 
HETATM   42  C   UNL     1      -4.598  -2.502 -34.189  1.00  0.00     0.010 A 
ENDBRANCH  34  37
ENDBRANCH  33  34
ENDBRANCH  31  33
ENDBRANCH   9  31
TORSDOF 9
ENDMDL
MODEL 4
REMARK VINA RESULT:     -10.0      2.143      8.751
REMARK  9 active torsions:
REMARK  status: ('A' for Active; 'I' for Inactive)
REMARK    1  A    between atoms: C_8  and  C_9 
REMARK    2  A    between atoms: C_9  and  C_10 
REMARK    3  A    between atoms: N_14  and  C_15 
REMARK    4  A    between atoms: C_15  and  C_16 
REMARK    5  A    between atoms: C_27  and  N_28 
REMARK    6  A    between atoms: N_28  and  C_29 
REMARK    7  A    between atoms: C_29  and  C_30 
REMARK    8  A    between atoms: C_30  and  O_31 
REMARK    9  A    between atoms: C_30  and  C_32 
ROOT
HETATM    1  C   UNL     1     -14.420   0.047 -34.213  1.00  0.00     0.052 C 
HETATM    2  C   UNL     1     -14.333   1.288 -33.382  1.00  0.00    -0.015 A 
HETATM    3  C   UNL     1     -12.999   1.980 -33.296  1.00  0.00     0.144 A 
HETATM    4  N   UNL     1     -11.966   1.432 -33.853  1.00  0.00    -0.217 NA
HETATM    5  N   UNL     1     -12.953   3.184 -32.613  1.00  0.00    -0.272 N 
HETATM    6  C   UNL     1     -11.764   3.889 -32.548  1.00  0.00     0.266 A 
HETATM    7  O   UNL     1     -11.617   4.944 -31.924  1.00  0.00    -0.267 OA
HETATM    8  C   UNL     1     -10.606   3.304 -33.286  1.00  0.00     0.074 A 
HETATM    9  C   UNL     1     -10.760   2.077 -33.833  1.00  0.00     0.121 A 
HETATM   10  C   UNL     1     -14.076   3.685 -31.964  1.00  0.00     0.102 A 
HETATM   11  C   UNL     1     -15.252   3.049 -31.998  1.00  0.00     0.018 A 
HETATM   12  C   UNL     1     -15.385   1.828 -32.746  1.00  0.00     0.012 A 
ENDROOT
BRANCH   8  13
HETATM   13  C   UNL     1      -9.385   4.096 -33.375  1.00  0.00     0.045 C 
BRANCH  13  14
HETATM   14  C   UNL     1      -8.325   3.991 -32.561  1.00  0.00     0.077 A 
HETATM   15  S   UNL     1      -8.213   4.474 -30.917  1.00  0.00    -0.055 SA
HETATM   16  C   UNL     1      -6.490   4.140 -30.839  1.00  0.00     0.149 A 
HETATM   17  S   UNL     1      -5.589   4.531 -29.490  1.00  0.00    -0.052 SA
HETATM   18  N   UNL     1      -6.070   3.569 -32.022  1.00  0.00    -0.294 N 
HETATM   19  C   UNL     1      -7.020   3.457 -33.025  1.00  0.00     0.266 A 
HETATM   20  O   UNL     1      -6.828   3.047 -34.161  1.00  0.00    -0.266 OA
BRANCH  18  21
HETATM   21  C   UNL     1      -4.702   3.140 -32.300  1.00  0.00     0.172 C 
BRANCH  21  22
HETATM   22  C   UNL     1      -3.834   4.271 -32.808  1.00  0.00    -0.037 A 
HETATM   23  C   UNL     1      -2.944   4.926 -31.938  1.00  0.00     0.048 A 
HETATM   24  C   UNL     1      -2.173   5.952 -32.443  1.00  0.00     0.105 A 
HETATM   25  C   UNL     1      -2.258   6.345 -33.756  1.00  0.00     0.105 A 
HETATM   26  O   UNL     1      -1.259   6.676 -31.743  1.00  0.00    -0.323 OA
HETATM   27  O   UNL     1      -1.413   7.370 -34.049  1.00  0.00    -0.323 OA
HETATM   28  C   UNL     1      -3.119   5.736 -34.640  1.00  0.00     0.040 A 
HETATM   29  C   UNL     1      -0.776   7.568 -32.770  1.00  0.00     0.352 A 
HETATM   30  C   UNL     1      -3.910   4.687 -34.159  1.00  0.00     0.012 A 
ENDBRANCH  21  22
ENDBRANCH  18  21
ENDBRANCH  13  14
ENDBRANCH   8  13
BRANCH   9  31
HETATM   31  N   UNL     1      -9.728   1.394 -34.465  1.00  0.00    -0.274 NA
HETATM   32  H   UNL     1     -10.080   1.084 -35.377  1.00  0.00     0.129 HD
BRANCH  31  33
HETATM   33  C   UNL     1      -8.929   0.347 -33.813  1.00  0.00     0.130 C 
BRANCH  33  34
HETATM   34  C   UNL     1      -7.871  -0.240 -34.781  1.00  0.00     0.164 C 
BRANCH  34  35
HETATM   35  O   UNL     1      -7.490   0.749 -35.750  1.00  0.00    -0.390 OA
HETATM   36  H   UNL     1      -7.273   0.286 -36.578  1.00  0.00     0.210 HD
ENDBRANCH  34  35
BRANCH  34  37
HETATM   37  C   UNL     1      -6.603  -0.809 -34.174  1.00  0.00    -0.029 A 
HETATM   38  C   UNL     1      -5.963  -0.260 -33.053  1.00  0.00     0.010 A 
HETATM   39  C   UNL     1      -4.798  -0.838 -32.538  1.00  0.00     0.001 A 
HETATM   40  C   UNL     1      -4.254  -1.972 -33.134  1.00  0.00     0.000 A 
HETATM   41  C   UNL     1      -4.869  -2.527 -34.254  1.00  0.00     0.001 A 
HETATM   42  C   UNL     1      -6.032  -1.949 -34.768  1.00  0.00     0.010 A 
ENDBRANCH  34  37
ENDBRANCH  33  34
ENDBRANCH  31  33
ENDBRANCH   9  31
TORSDOF 9
ENDMDL
MODEL 5
REMARK VINA RESULT:     -10.0      2.856      8.570
REMARK  9 active torsions:
REMARK  status: ('A' for Active; 'I' for Inactive)
REMARK    1  A    between atoms: C_8  and  C_9 
REMARK    2  A    between atoms: C_9  and  C_10 
REMARK    3  A    between atoms: N_14  and  C_15 
REMARK    4  A    between atoms: C_15  and  C_16 
REMARK    5  A    between atoms: C_27  and  N_28 
REMARK    6  A    between atoms: N_28  and  C_29 
REMARK    7  A    between atoms: C_29  and  C_30 
REMARK    8  A    between atoms: C_30  and  O_31 
REMARK    9  A    between atoms: C_30  and  C_32 
ROOT
HETATM    1  C   UNL     1     -10.096  -0.128 -32.777  1.00  0.00     0.052 C 
HETATM    2  C   UNL     1     -10.377   1.213 -33.377  1.00  0.00    -0.015 A 
HETATM    3  C   UNL     1      -9.527   2.371 -32.927  1.00  0.00     0.144 A 
HETATM    4  N   UNL     1      -8.661   2.191 -31.981  1.00  0.00    -0.217 NA
HETATM    5  N   UNL     1      -9.723   3.585 -33.565  1.00  0.00    -0.272 N 
HETATM    6  C   UNL     1      -8.932   4.671 -33.230  1.00  0.00     0.266 A 
HETATM    7  O   UNL     1      -9.066   5.800 -33.709  1.00  0.00    -0.267 OA
HETATM    8  C   UNL     1      -7.866   4.424 -32.216  1.00  0.00     0.074 A 
HETATM    9  C   UNL     1      -7.842   3.219 -31.603  1.00  0.00     0.121 A 
HETATM   10  C   UNL     1     -10.723   3.742 -34.518  1.00  0.00     0.102 A 
HETATM   11  C   UNL     1     -11.512   2.727 -34.886  1.00  0.00     0.018 A 
HETATM   12  C   UNL     1     -11.317   1.424 -34.312  1.00  0.00     0.012 A 
ENDROOT
BRANCH   8  13
HETATM   13  C   UNL     1      -6.913   5.497 -31.956  1.00  0.00     0.045 C 
BRANCH  13  14
HETATM   14  C   UNL     1      -5.748   5.679 -32.594  1.00  0.00     0.077 A 
HETATM   15  S   UNL     1      -5.131   4.788 -33.925  1.00  0.00    -0.055 SA
HETATM   16  C   UNL     1      -3.575   5.604 -33.870  1.00  0.00     0.149 A 
HETATM   17  S   UNL     1      -2.310   5.128 -34.849  1.00  0.00    -0.052 SA
HETATM   18  N   UNL     1      -3.604   6.603 -32.920  1.00  0.00    -0.294 N 
HETATM   19  C   UNL     1      -4.764   6.707 -32.168  1.00  0.00     0.266 A 
HETATM   20  O   UNL     1      -4.956   7.476 -31.237  1.00  0.00    -0.266 OA
BRANCH  18  21
HETATM   21  C   UNL     1      -2.491   7.499 -32.620  1.00  0.00     0.172 C 
BRANCH  21  22
HETATM   22  C   UNL     1      -1.578   6.947 -31.546  1.00  0.00    -0.037 A 
HETATM   23  C   UNL     1      -1.809   7.257 -30.193  1.00  0.00     0.048 A 
HETATM   24  C   UNL     1      -0.952   6.733 -29.248  1.00  0.00     0.105 A 
HETATM   25  C   UNL     1       0.110   5.934 -29.595  1.00  0.00     0.105 A 
HETATM   26  O   UNL     1      -1.041   6.924 -27.904  1.00  0.00    -0.323 OA
HETATM   27  O   UNL     1       0.827   5.523 -28.515  1.00  0.00    -0.323 OA
HETATM   28  C   UNL     1       0.375   5.611 -30.906  1.00  0.00     0.040 A 
HETATM   29  C   UNL     1       0.086   6.147 -27.446  1.00  0.00     0.352 A 
HETATM   30  C   UNL     1      -0.481   6.122 -31.888  1.00  0.00     0.012 A 
ENDBRANCH  21  22
ENDBRANCH  18  21
ENDBRANCH  13  14
ENDBRANCH   8  13
BRANCH   9  31
HETATM   31  N   UNL     1      -6.955   2.905 -30.580  1.00  0.00    -0.274 NA
HETATM   32  H   UNL     1      -6.445   3.763 -30.345  1.00  0.00     0.129 HD
BRANCH  31  33
HETATM   33  C   UNL     1      -6.061   1.740 -30.610  1.00  0.00     0.130 C 
BRANCH  33  34
HETATM   34  C   UNL     1      -5.352   1.608 -31.982  1.00  0.00     0.164 C 
BRANCH  34  35
HETATM   35  O   UNL     1      -3.978   1.239 -31.791  1.00  0.00    -0.390 OA
HETATM   36  H   UNL     1      -3.776   1.323 -30.843  1.00  0.00     0.210 HD
ENDBRANCH  34  35
BRANCH  34  37
HETATM   37  C   UNL     1      -5.954   0.652 -32.994  1.00  0.00    -0.029 A 
HETATM   38  C   UNL     1      -6.122  -0.721 -32.763  1.00  0.00     0.010 A 
HETATM   39  C   UNL     1      -6.691  -1.548 -33.736  1.00  0.00     0.001 A 
HETATM   40  C   UNL     1      -7.099  -1.017 -34.957  1.00  0.00     0.000 A 
HETATM   41  C   UNL     1      -6.932   0.343 -35.210  1.00  0.00     0.001 A 
HETATM   42  C   UNL     1      -6.363   1.168 -34.237  1.00  0.00     0.010 A 
ENDBRANCH  34  37
ENDBRANCH  33  34
ENDBRANCH  31  33
ENDBRANCH   9  31
TORSDOF 9
ENDMDL
MODEL 6
REMARK VINA RESULT:      -9.9      3.346      6.939
REMARK  9 active torsions:
REMARK  status: ('A' for Active; 'I' for Inactive)
REMARK    1  A    between atoms: C_8  and  C_9 
REMARK    2  A    between atoms: C_9  and  C_10 
REMARK    3  A    between atoms: N_14  and  C_15 
REMARK    4  A    between atoms: C_15  and  C_16 
REMARK    5  A    between atoms: C_27  and  N_28 
REMARK    6  A    between atoms: N_28  and  C_29 
REMARK    7  A    between atoms: C_29  and  C_30 
REMARK    8  A    between atoms: C_30  and  O_31 
REMARK    9  A    between atoms: C_30  and  C_32 
ROOT
HETATM    1  C   UNL     1      -0.495   6.894 -29.881  1.00  0.00     0.052 C 
HETATM    2  C   UNL     1      -1.079   6.776 -31.254  1.00  0.00    -0.015 A 
HETATM    3  C   UNL     1      -2.515   6.337 -31.367  1.00  0.00     0.144 A 
HETATM    4  N   UNL     1      -3.155   5.986 -30.297  1.00  0.00    -0.217 NA
HETATM    5  N   UNL     1      -3.077   6.334 -32.632  1.00  0.00    -0.272 N 
HETATM    6  C   UNL     1      -4.409   5.990 -32.788  1.00  0.00     0.266 A 
HETATM    7  O   UNL     1      -4.982   5.914 -33.879  1.00  0.00    -0.267 OA
HETATM    8  C   UNL     1      -5.167   5.694 -31.538  1.00  0.00     0.074 A 
HETATM    9  C   UNL     1      -4.475   5.641 -30.377  1.00  0.00     0.121 A 
HETATM   10  C   UNL     1      -2.320   6.641 -33.757  1.00  0.00     0.102 A 
HETATM   11  C   UNL     1      -1.030   6.986 -33.665  1.00  0.00     0.018 A 
HETATM   12  C   UNL     1      -0.403   7.074 -32.374  1.00  0.00     0.012 A 
ENDROOT
BRANCH   8  13
HETATM   13  C   UNL     1      -6.606   5.486 -31.647  1.00  0.00     0.045 C 
BRANCH  13  14
HETATM   14  C   UNL     1      -7.202   4.400 -32.160  1.00  0.00     0.077 A 
HETATM   15  S   UNL     1      -8.234   4.317 -33.530  1.00  0.00    -0.055 SA
HETATM   16  C   UNL     1      -8.625   2.627 -33.250  1.00  0.00     0.149 A 
HETATM   17  S   UNL     1      -9.773   1.838 -34.169  1.00  0.00    -0.052 SA
HETATM   18  N   UNL     1      -7.880   2.143 -32.196  1.00  0.00    -0.294 N 
HETATM   19  C   UNL     1      -7.074   3.058 -31.537  1.00  0.00     0.266 A 
HETATM   20  O   UNL     1      -6.397   2.841 -30.542  1.00  0.00    -0.266 OA
BRANCH  18  21
HETATM   21  C   UNL     1      -7.931   0.770 -31.702  1.00  0.00     0.172 C 
BRANCH  21  22
HETATM   22  C   UNL     1      -6.953  -0.140 -32.415  1.00  0.00    -0.037 A 
HETATM   23  C   UNL     1      -7.413  -1.058 -33.376  1.00  0.00     0.048 A 
HETATM   24  C   UNL     1      -6.487  -1.867 -34.001  1.00  0.00     0.105 A 
HETATM   25  C   UNL     1      -5.147  -1.801 -33.704  1.00  0.00     0.105 A 
HETATM   26  O   UNL     1      -6.760  -2.795 -34.957  1.00  0.00    -0.323 OA
HETATM   27  O   UNL     1      -4.408  -2.680 -34.432  1.00  0.00    -0.323 OA
HETATM   28  C   UNL     1      -4.656  -0.921 -32.766  1.00  0.00     0.040 A 
HETATM   29  C   UNL     1      -5.437  -3.301 -35.231  1.00  0.00     0.352 A 
HETATM   30  C   UNL     1      -5.571  -0.081 -32.120  1.00  0.00     0.012 A 
ENDBRANCH  21  22
ENDBRANCH  18  21
ENDBRANCH  13  14
ENDBRANCH   8  13
BRANCH   9  31
HETATM   31  N   UNL     1      -5.055   5.286 -29.164  1.00  0.00    -0.274 NA
HETATM   32  H   UNL     1      -5.668   4.484 -29.343  1.00  0.00     0.129 HD
BRANCH  31  33
HETATM   33  C   UNL     1      -5.684   6.251 -28.252  1.00  0.00     0.130 C 
BRANCH  33  34
HETATM   34  C   UNL     1      -4.918   6.336 -26.907  1.00  0.00     0.164 C 
BRANCH  34  35
HETATM   35  O   UNL     1      -4.603   5.017 -26.436  1.00  0.00    -0.390 OA
HETATM   36  H   UNL     1      -3.768   5.070 -25.940  1.00  0.00     0.210 HD
ENDBRANCH  34  35
BRANCH  34  37
HETATM   37  C   UNL     1      -3.644   7.158 -26.877  1.00  0.00    -0.029 A 
HETATM   38  C   UNL     1      -2.499   6.793 -26.153  1.00  0.00     0.010 A 
HETATM   39  C   UNL     1      -1.353   7.593 -26.171  1.00  0.00     0.001 A 
HETATM   40  C   UNL     1      -1.332   8.772 -26.912  1.00  0.00     0.000 A 
HETATM   41  C   UNL     1      -2.461   9.158 -27.630  1.00  0.00     0.001 A 
HETATM   42  C   UNL     1      -3.606   8.358 -27.610  1.00  0.00     0.010 A 
ENDBRANCH  34  37
ENDBRANCH  33  34
ENDBRANCH  31  33
ENDBRANCH   9  31
TORSDOF 9
ENDMDL
MODEL 7
REMARK VINA RESULT:      -9.8      3.160      7.545
REMARK  9 active torsions:
REMARK  status: ('A' for Active; 'I' for Inactive)
REMARK    1  A    between atoms: C_8  and  C_9 
REMARK    2  A    between atoms: C_9  and  C_10 
REMARK    3  A    between atoms: N_14  and  C_15 
REMARK    4  A    between atoms: C_15  and  C_16 
REMARK    5  A    between atoms: C_27  and  N_28 
REMARK    6  A    between atoms: N_28  and  C_29 
REMARK    7  A    between atoms: C_29  and  C_30 
REMARK    8  A    between atoms: C_30  and  O_31 
REMARK    9  A    between atoms: C_30  and  C_32 
ROOT
HETATM    1  C   UNL     1      -2.442  -3.645 -31.722  1.00  0.00     0.052 C 
HETATM    2  C   UNL     1      -3.523  -3.766 -32.751  1.00  0.00    -0.015 A 
HETATM    3  C   UNL     1      -4.359  -2.546 -33.032  1.00  0.00     0.144 A 
HETATM    4  N   UNL     1      -4.183  -1.480 -32.318  1.00  0.00    -0.217 NA
HETATM    5  N   UNL     1      -5.283  -2.637 -34.059  1.00  0.00    -0.272 N 
HETATM    6  C   UNL     1      -6.042  -1.529 -34.397  1.00  0.00     0.266 A 
HETATM    7  O   UNL     1      -6.921  -1.529 -35.263  1.00  0.00    -0.267 OA
HETATM    8  C   UNL     1      -5.755  -0.275 -33.641  1.00  0.00     0.074 A 
HETATM    9  C   UNL     1      -4.894  -0.347 -32.600  1.00  0.00     0.121 A 
HETATM   10  C   UNL     1      -5.487  -3.832 -34.740  1.00  0.00     0.102 A 
HETATM   11  C   UNL     1      -4.779  -4.931 -34.460  1.00  0.00     0.018 A 
HETATM   12  C   UNL     1      -3.756  -4.887 -33.451  1.00  0.00     0.012 A 
ENDROOT
BRANCH   8  13
HETATM   13  C   UNL     1      -6.418   0.949 -34.076  1.00  0.00     0.045 C 
BRANCH  13  14
HETATM   14  C   UNL     1      -7.053   1.819 -33.278  1.00  0.00     0.077 A 
HETATM   15  S   UNL     1      -8.196   1.470 -32.045  1.00  0.00    -0.055 SA
HETATM   16  C   UNL     1      -8.562   3.167 -31.774  1.00  0.00     0.149 A 
HETATM   17  S   UNL     1      -9.782   3.638 -30.738  1.00  0.00    -0.052 SA
HETATM   18  N   UNL     1      -7.731   3.954 -32.543  1.00  0.00    -0.294 N 
HETATM   19  C   UNL     1      -6.873   3.288 -33.405  1.00  0.00     0.266 A 
HETATM   20  O   UNL     1      -6.115   3.804 -34.214  1.00  0.00    -0.266 OA
BRANCH  18  21
HETATM   21  C   UNL     1      -7.740   5.414 -32.553  1.00  0.00     0.172 C 
BRANCH  21  22
HETATM   22  C   UNL     1      -6.616   6.005 -31.729  1.00  0.00    -0.037 A 
HETATM   23  C   UNL     1      -6.632   5.892 -30.328  1.00  0.00     0.048 A 
HETATM   24  C   UNL     1      -5.588   6.447 -29.617  1.00  0.00     0.105 A 
HETATM   25  C   UNL     1      -4.553   7.102 -30.238  1.00  0.00     0.105 A 
HETATM   26  O   UNL     1      -5.444   6.416 -28.264  1.00  0.00    -0.323 OA
HETATM   27  O   UNL     1      -3.629   7.570 -29.357  1.00  0.00    -0.323 OA
HETATM   28  C   UNL     1      -4.501   7.239 -31.606  1.00  0.00     0.040 A 
HETATM   29  C   UNL     1      -4.196   7.124 -28.108  1.00  0.00     0.352 A 
HETATM   30  C   UNL     1      -5.543   6.681 -32.356  1.00  0.00     0.012 A 
ENDBRANCH  21  22
ENDBRANCH  18  21
ENDBRANCH  13  14
ENDBRANCH   8  13
BRANCH   9  31
HETATM   31  N   UNL     1      -4.619   0.731 -31.768  1.00  0.00    -0.274 NA
HETATM   32  H   UNL     1      -5.477   1.288 -31.696  1.00  0.00     0.129 HD
BRANCH  31  33
HETATM   33  C   UNL     1      -3.434   1.587 -31.913  1.00  0.00     0.130 C 
BRANCH  33  34
HETATM   34  C   UNL     1      -3.805   3.088 -31.800  1.00  0.00     0.164 C 
BRANCH  34  35
HETATM   35  O   UNL     1      -4.120   3.415 -30.438  1.00  0.00    -0.390 OA
HETATM   36  H   UNL     1      -3.320   3.788 -30.029  1.00  0.00     0.210 HD
ENDBRANCH  34  35
BRANCH  34  37
HETATM   37  C   UNL     1      -2.793   4.100 -32.300  1.00  0.00    -0.029 A 
HETATM   38  C   UNL     1      -2.695   4.508 -33.638  1.00  0.00     0.010 A 
HETATM   39  C   UNL     1      -1.743   5.451 -34.034  1.00  0.00     0.001 A 
HETATM   40  C   UNL     1      -0.870   6.001 -33.099  1.00  0.00     0.000 A 
HETATM   41  C   UNL     1      -0.944   5.603 -31.767  1.00  0.00     0.001 A 
HETATM   42  C   UNL     1      -1.895   4.660 -31.373  1.00  0.00     0.010 A 
ENDBRANCH  34  37
ENDBRANCH  33  34
ENDBRANCH  31  33
ENDBRANCH   9  31
TORSDOF 9
ENDMDL
MODEL 8
REMARK VINA RESULT:      -9.7      3.317      8.629
REMARK  9 active torsions:
REMARK  status: ('A' for Active; 'I' for Inactive)
REMARK    1  A    between atoms: C_8  and  C_9 
REMARK    2  A    between atoms: C_9  and  C_10 
REMARK    3  A    between atoms: N_14  and  C_15 
REMARK    4  A    between atoms: C_15  and  C_16 
REMARK    5  A    between atoms: C_27  and  N_28 
REMARK    6  A    between atoms: N_28  and  C_29 
REMARK    7  A    between atoms: C_29  and  C_30 
REMARK    8  A    between atoms: C_30  and  O_31 
REMARK    9  A    between atoms: C_30  and  C_32 
ROOT
HETATM    1  C   UNL     1      -7.585  -0.102 -34.995  1.00  0.00     0.052 C 
HETATM    2  C   UNL     1      -8.466   0.684 -34.076  1.00  0.00    -0.015 A 
HETATM    3  C   UNL     1      -7.810   1.415 -32.936  1.00  0.00     0.144 A 
HETATM    4  N   UNL     1      -6.540   1.262 -32.733  1.00  0.00    -0.217 NA
HETATM    5  N   UNL     1      -8.619   2.225 -32.156  1.00  0.00    -0.272 N 
HETATM    6  C   UNL     1      -8.059   2.962 -31.126  1.00  0.00     0.266 A 
HETATM    7  O   UNL     1      -8.706   3.672 -30.351  1.00  0.00    -0.267 OA
HETATM    8  C   UNL     1      -6.578   2.863 -30.970  1.00  0.00     0.074 A 
HETATM    9  C   UNL     1      -5.920   1.965 -31.738  1.00  0.00     0.121 A 
HETATM   10  C   UNL     1      -9.991   2.288 -32.367  1.00  0.00     0.102 A 
HETATM   11  C   UNL     1     -10.585   1.602 -33.350  1.00  0.00     0.018 A 
HETATM   12  C   UNL     1      -9.794   0.795 -34.239  1.00  0.00     0.012 A 
ENDROOT
BRANCH   8  13
HETATM   13  C   UNL     1      -5.935   3.746 -30.004  1.00  0.00     0.045 C 
BRANCH  13  14
HETATM   14  C   UNL     1      -5.552   5.010 -30.235  1.00  0.00     0.077 A 
HETATM   15  S   UNL     1      -6.434   6.448 -29.921  1.00  0.00    -0.055 SA
HETATM   16  C   UNL     1      -5.244   7.464 -30.721  1.00  0.00     0.149 A 
HETATM   17  S   UNL     1      -5.512   9.095 -30.956  1.00  0.00    -0.052 SA
HETATM   18  N   UNL     1      -4.161   6.702 -31.106  1.00  0.00    -0.294 N 
HETATM   19  C   UNL     1      -4.254   5.338 -30.879  1.00  0.00     0.266 A 
HETATM   20  O   UNL     1      -3.435   4.492 -31.211  1.00  0.00    -0.266 OA
BRANCH  18  21
HETATM   21  C   UNL     1      -2.974   7.222 -31.779  1.00  0.00     0.172 C 
BRANCH  21  22
HETATM   22  C   UNL     1      -1.810   7.415 -30.831  1.00  0.00    -0.037 A 
HETATM   23  C   UNL     1      -1.923   8.296 -29.741  1.00  0.00     0.048 A 
HETATM   24  C   UNL     1      -0.837   8.442 -28.903  1.00  0.00     0.105 A 
HETATM   25  C   UNL     1       0.337   7.759 -29.111  1.00  0.00     0.105 A 
HETATM   26  O   UNL     1      -0.784   9.240 -27.803  1.00  0.00    -0.323 OA
HETATM   27  O   UNL     1       1.278   8.043 -28.172  1.00  0.00    -0.323 OA
HETATM   28  C   UNL     1       0.492   6.892 -30.168  1.00  0.00     0.040 A 
HETATM   29  C   UNL     1       0.557   8.976 -27.340  1.00  0.00     0.352 A 
HETATM   30  C   UNL     1      -0.595   6.718 -31.032  1.00  0.00     0.012 A 
ENDBRANCH  21  22
ENDBRANCH  18  21
ENDBRANCH  13  14
ENDBRANCH   8  13
BRANCH   9  31
HETATM   31  N   UNL     1      -4.557   1.720 -31.618  1.00  0.00    -0.274 NA
HETATM   32  H   UNL     1      -4.104   2.615 -31.407  1.00  0.00     0.129 HD
BRANCH  31  33
HETATM   33  C   UNL     1      -3.784   0.942 -32.595  1.00  0.00     0.130 C 
BRANCH  33  34
HETATM   34  C   UNL     1      -3.141  -0.307 -31.940  1.00  0.00     0.164 C 
BRANCH  34  35
HETATM   35  O   UNL     1      -3.500  -0.373 -30.552  1.00  0.00    -0.390 OA
HETATM   36  H   UNL     1      -3.930  -1.232 -30.396  1.00  0.00     0.210 HD
ENDBRANCH  34  35
BRANCH  34  37
HETATM   37  C   UNL     1      -3.438  -1.657 -32.563  1.00  0.00    -0.029 A 
HETATM   38  C   UNL     1      -3.036  -2.878 -32.002  1.00  0.00     0.010 A 
HETATM   39  C   UNL     1      -3.348  -4.091 -32.624  1.00  0.00     0.001 A 
HETATM   40  C   UNL     1      -4.064  -4.103 -33.819  1.00  0.00     0.000 A 
HETATM   41  C   UNL     1      -4.463  -2.901 -34.397  1.00  0.00     0.001 A 
HETATM   42  C   UNL     1      -4.151  -1.690 -33.775  1.00  0.00     0.010 A 
ENDBRANCH  34  37
ENDBRANCH  33  34
ENDBRANCH  31  33
ENDBRANCH   9  31
TORSDOF 9
ENDMDL
MODEL 9
REMARK VINA RESULT:      -9.6      3.242      6.997
REMARK  9 active torsions:
REMARK  status: ('A' for Active; 'I' for Inactive)
REMARK    1  A    between atoms: C_8  and  C_9 
REMARK    2  A    between atoms: C_9  and  C_10 
REMARK    3  A    between atoms: N_14  and  C_15 
REMARK    4  A    between atoms: C_15  and  C_16 
REMARK    5  A    between atoms: C_27  and  N_28 
REMARK    6  A    between atoms: N_28  and  C_29 
REMARK    7  A    between atoms: C_29  and  C_30 
REMARK    8  A    between atoms: C_30  and  O_31 
REMARK    9  A    between atoms: C_30  and  C_32 
ROOT
HETATM    1  C   UNL     1      -3.127  -1.272 -32.343  1.00  0.00     0.052 C 
HETATM    2  C   UNL     1      -4.368  -1.600 -33.112  1.00  0.00    -0.015 A 
HETATM    3  C   UNL     1      -5.654  -0.951 -32.674  1.00  0.00     0.144 A 
HETATM    4  N   UNL     1      -5.662  -0.221 -31.605  1.00  0.00    -0.217 NA
HETATM    5  N   UNL     1      -6.774  -1.178 -33.456  1.00  0.00    -0.272 N 
HETATM    6  C   UNL     1      -7.971  -0.563 -33.131  1.00  0.00     0.266 A 
HETATM    7  O   UNL     1      -9.030  -0.742 -33.739  1.00  0.00    -0.267 OA
HETATM    8  C   UNL     1      -7.943   0.363 -31.961  1.00  0.00     0.074 A 
HETATM    9  C   UNL     1      -6.808   0.421 -31.228  1.00  0.00     0.121 A 
HETATM   10  C   UNL     1      -6.728  -2.037 -34.548  1.00  0.00     0.102 A 
HETATM   11  C   UNL     1      -5.597  -2.653 -34.912  1.00  0.00     0.018 A 
HETATM   12  C   UNL     1      -4.382  -2.409 -34.183  1.00  0.00     0.012 A 
ENDROOT
BRANCH   8  13
HETATM   13  C   UNL     1      -9.140   1.149 -31.686  1.00  0.00     0.045 C 
BRANCH  13  14
HETATM   14  C   UNL     1      -9.415   2.357 -32.198  1.00  0.00     0.077 A 
HETATM   15  S   UNL     1      -9.563   2.787 -33.854  1.00  0.00    -0.055 SA
HETATM   16  C   UNL     1      -9.702   4.501 -33.494  1.00  0.00     0.149 A 
HETATM   17  S   UNL     1      -9.734   5.644 -34.709  1.00  0.00    -0.052 SA
HETATM   18  N   UNL     1      -9.743   4.691 -32.128  1.00  0.00    -0.294 N 
HETATM   19  C   UNL     1      -9.585   3.560 -31.343  1.00  0.00     0.266 A 
HETATM   20  O   UNL     1      -9.523   3.530 -30.122  1.00  0.00    -0.266 OA
BRANCH  18  21
HETATM   21  C   UNL     1      -9.878   5.988 -31.471  1.00  0.00     0.172 C 
BRANCH  21  22
HETATM   22  C   UNL     1      -8.538   6.607 -31.135  1.00  0.00    -0.037 A 
HETATM   23  C   UNL     1      -8.032   6.530 -29.825  1.00  0.00     0.048 A 
HETATM   24  C   UNL     1      -6.808   7.109 -29.563  1.00  0.00     0.105 A 
HETATM   25  C   UNL     1      -6.087   7.755 -30.537  1.00  0.00     0.105 A 
HETATM   26  O   UNL     1      -6.174   7.114 -28.359  1.00  0.00    -0.323 OA
HETATM   27  O   UNL     1      -4.910   8.252 -30.071  1.00  0.00    -0.323 OA
HETATM   28  C   UNL     1      -6.547   7.858 -31.830  1.00  0.00     0.040 A 
HETATM   29  C   UNL     1      -4.968   7.834 -28.691  1.00  0.00     0.352 A 
HETATM   30  C   UNL     1      -7.784   7.274 -32.129  1.00  0.00     0.012 A 
ENDBRANCH  21  22
ENDBRANCH  18  21
ENDBRANCH  13  14
ENDBRANCH   8  13
BRANCH   9  31
HETATM   31  N   UNL     1      -6.693   1.177 -30.067  1.00  0.00    -0.274 NA
HETATM   32  H   UNL     1      -7.559   1.717 -29.968  1.00  0.00     0.129 HD
BRANCH  31  33
HETATM   33  C   UNL     1      -5.513   1.988 -29.739  1.00  0.00     0.130 C 
BRANCH  33  34
HETATM   34  C   UNL     1      -5.793   3.499 -29.944  1.00  0.00     0.164 C 
BRANCH  34  35
HETATM   35  O   UNL     1      -5.215   4.255 -28.869  1.00  0.00    -0.390 OA
HETATM   36  H   UNL     1      -4.575   3.683 -28.413  1.00  0.00     0.210 HD
ENDBRANCH  34  35
BRANCH  34  37
HETATM   37  C   UNL     1      -5.343   4.125 -31.249  1.00  0.00    -0.029 A 
HETATM   38  C   UNL     1      -4.170   4.882 -31.386  1.00  0.00     0.010 A 
HETATM   39  C   UNL     1      -3.808   5.428 -32.620  1.00  0.00     0.001 A 
HETATM   40  C   UNL     1      -4.613   5.229 -33.739  1.00  0.00     0.000 A 
HETATM   41  C   UNL     1      -5.787   4.489 -33.623  1.00  0.00     0.001 A 
HETATM   42  C   UNL     1      -6.148   3.944 -32.389  1.00  0.00     0.010 A 
ENDBRANCH  34  37
ENDBRANCH  33  34
ENDBRANCH  31  33
ENDBRANCH   9  31
TORSDOF 9
ENDMDL
MODEL 10
REMARK VINA RESULT:      -9.4      2.565      8.485
REMARK  9 active torsions:
REMARK  status: ('A' for Active; 'I' for Inactive)
REMARK    1  A    between atoms: C_8  and  C_9 
REMARK    2  A    between atoms: C_9  and  C_10 
REMARK    3  A    between atoms: N_14  and  C_15 
REMARK    4  A    between atoms: C_15  and  C_16 
REMARK    5  A    between atoms: C_27  and  N_28 
REMARK    6  A    between atoms: N_28  and  C_29 
REMARK    7  A    between atoms: C_29  and  C_30 
REMARK    8  A    between atoms: C_30  and  O_31 
REMARK    9  A    between atoms: C_30  and  C_32 
ROOT
HETATM    1  C   UNL     1     -12.373   1.826 -35.487  1.00  0.00     0.052 C 
HETATM    2  C   UNL     1     -12.057   2.978 -34.586  1.00  0.00    -0.015 A 
HETATM    3  C   UNL     1     -10.779   2.913 -33.792  1.00  0.00     0.144 A 
HETATM    4  N   UNL     1     -10.059   1.838 -33.839  1.00  0.00    -0.217 NA
HETATM    5  N   UNL     1     -10.443   4.030 -33.045  1.00  0.00    -0.272 N 
HETATM    6  C   UNL     1      -9.253   4.046 -32.337  1.00  0.00     0.266 A 
HETATM    7  O   UNL     1      -8.893   4.974 -31.608  1.00  0.00    -0.267 OA
HETATM    8  C   UNL     1      -8.379   2.846 -32.484  1.00  0.00     0.074 A 
HETATM    9  C   UNL     1      -8.869   1.787 -33.169  1.00  0.00     0.121 A 
HETATM   10  C   UNL     1     -11.294   5.126 -32.966  1.00  0.00     0.102 A 
HETATM   11  C   UNL     1     -12.452   5.168 -33.633  1.00  0.00     0.018 A 
HETATM   12  C   UNL     1     -12.831   4.070 -34.481  1.00  0.00     0.012 A 
ENDROOT
BRANCH   8  13
HETATM   13  C   UNL     1      -7.050   2.894 -31.886  1.00  0.00     0.045 C 
BRANCH  13  14
HETATM   14  C   UNL     1      -5.984   3.523 -32.400  1.00  0.00     0.077 A 
HETATM   15  S   UNL     1      -5.926   4.519 -33.797  1.00  0.00    -0.055 SA
HETATM   16  C   UNL     1      -4.176   4.659 -33.740  1.00  0.00     0.149 A 
HETATM   17  S   UNL     1      -3.325   5.419 -34.958  1.00  0.00    -0.052 SA
HETATM   18  N   UNL     1      -3.694   4.042 -32.605  1.00  0.00    -0.294 N 
HETATM   19  C   UNL     1      -4.625   3.387 -31.815  1.00  0.00     0.266 A 
HETATM   20  O   UNL     1      -4.388   2.726 -30.814  1.00  0.00    -0.266 OA
BRANCH  18  21
HETATM   21  C   UNL     1      -2.285   3.983 -32.223  1.00  0.00     0.172 C 
BRANCH  21  22
HETATM   22  C   UNL     1      -1.849   5.199 -31.434  1.00  0.00    -0.037 A 
HETATM   23  C   UNL     1      -2.797   5.964 -30.732  1.00  0.00     0.048 A 
HETATM   24  C   UNL     1      -2.356   7.065 -30.027  1.00  0.00     0.105 A 
HETATM   25  C   UNL     1      -1.031   7.427 -30.002  1.00  0.00     0.105 A 
HETATM   26  O   UNL     1      -3.135   7.900 -29.289  1.00  0.00    -0.323 OA
HETATM   27  O   UNL     1      -0.808   8.537 -29.249  1.00  0.00    -0.323 OA
HETATM   28  C   UNL     1      -0.071   6.709 -30.679  1.00  0.00     0.040 A 
HETATM   29  C   UNL     1      -2.146   8.826 -28.793  1.00  0.00     0.352 A 
HETATM   30  C   UNL     1      -0.488   5.583 -31.398  1.00  0.00     0.012 A 
ENDBRANCH  21  22
ENDBRANCH  18  21
ENDBRANCH  13  14
ENDBRANCH   8  13
BRANCH   9  31
HETATM   31  N   UNL     1      -8.185   0.584 -33.295  1.00  0.00    -0.274 NA
HETATM   32  H   UNL     1      -7.733   0.394 -32.394  1.00  0.00     0.129 HD
BRANCH  31  33
HETATM   33  C   UNL     1      -7.293   0.271 -34.420  1.00  0.00     0.130 C 
BRANCH  33  34
HETATM   34  C   UNL     1      -5.996  -0.426 -33.934  1.00  0.00     0.164 C 
BRANCH  34  35
HETATM   35  O   UNL     1      -5.832  -0.229 -32.522  1.00  0.00    -0.390 OA
HETATM   36  H   UNL     1      -5.227  -0.917 -32.194  1.00  0.00     0.210 HD
ENDBRANCH  34  35
BRANCH  34  37
HETATM   37  C   UNL     1      -5.848  -1.908 -34.219  1.00  0.00    -0.029 A 
HETATM   38  C   UNL     1      -6.903  -2.729 -34.643  1.00  0.00     0.010 A 
HETATM   39  C   UNL     1      -6.699  -4.089 -34.894  1.00  0.00     0.001 A 
HETATM   40  C   UNL     1      -5.437  -4.652 -34.723  1.00  0.00     0.000 A 
HETATM   41  C   UNL     1      -4.378  -3.857 -34.292  1.00  0.00     0.001 A 
HETATM   42  C   UNL     1      -4.583  -2.498 -34.041  1.00  0.00     0.010 A 
ENDBRANCH  34  37
ENDBRANCH  33  34
ENDBRANCH  31  33
ENDBRANCH   9  31
TORSDOF 9
ENDMDL
