MODEL 1
REMARK VINA RESULT:      -9.5      0.000      0.000
REMARK  5 active torsions:
REMARK  status: ('A' for Active; 'I' for Inactive)
REMARK    1  A    between atoms: C_4  and  C_5 
REMARK    2  A    between atoms: C_5  and  C_6 
REMARK    3  A    between atoms: C_6  and  N_7 
REMARK       I    between atoms: N_7  and  C_8 
REMARK       I    between atoms: C_8  and  N_9 
REMARK    4  A    between atoms: N_9  and  N_10 
REMARK       I    between atoms: N_10  and  C_11 
REMARK    5  A    between atoms: C_11  and  C_12 
ROOT
HETATM    1  N   UNL     1      -5.847   0.804 -31.586  1.00  0.00    -0.341 N 
HETATM    2  C   UNL     1      -5.793   1.113 -30.247  1.00  0.00     0.334 C 
HETATM    3  N   UNL     1      -5.170   2.303 -29.975  1.00  0.00    -0.249 N 
HETATM    4  O   UNL     1      -6.261   0.414 -29.355  1.00  0.00    -0.246 OA
HETATM    5  H   UNL     1      -5.022   1.144 -32.062  1.00  0.00     0.164 HD
HETATM    6  H   UNL     1      -5.011   2.564 -29.003  1.00  0.00     0.192 HD
ENDROOT
BRANCH   3   7
HETATM    7  N   UNL     1      -4.749   3.193 -30.974  1.00  0.00    -0.262 N 
HETATM    8  C   UNL     1      -3.464   3.027 -31.472  1.00  0.00     0.272 C 
HETATM    9  O   UNL     1      -2.797   2.025 -31.221  1.00  0.00    -0.266 OA
HETATM   10  H   UNL     1      -5.160   4.119 -30.939  1.00  0.00     0.190 HD
BRANCH   8  11
HETATM   11  C   UNL     1      -2.956   4.138 -32.278  1.00  0.00     0.061 A 
HETATM   12  C   UNL     1      -1.865   5.014 -31.933  1.00  0.00     0.008 A 
HETATM   13  C   UNL     1      -1.715   5.936 -32.968  1.00  0.00     0.043 A 
HETATM   14  C   UNL     1      -0.991   5.107 -30.828  1.00  0.00     0.015 A 
HETATM   15  C   UNL     1      -0.741   6.943 -32.955  1.00  0.00     0.030 A 
HETATM   16  N   UNL     1      -2.666   5.642 -33.913  1.00  0.00    -0.364 N 
HETATM   17  C   UNL     1       0.110   7.010 -31.849  1.00  0.00     0.002 A 
HETATM   18  C   UNL     1      -0.010   6.105 -30.798  1.00  0.00     0.001 A 
HETATM   19  H   UNL     1      -2.788   6.154 -34.777  1.00  0.00     0.165 HD
HETATM   20  C   UNL     1      -3.415   4.563 -33.517  1.00  0.00     0.106 A 
ENDBRANCH   8  11
ENDBRANCH   3   7
BRANCH   1  21
HETATM   21  C   UNL     1      -6.366  -0.491 -31.980  1.00  0.00     0.138 C 
BRANCH  21  22
HETATM   22  C   UNL     1      -6.694  -0.544 -33.486  1.00  0.00     0.003 C 
HETATM   23  C   UNL     1      -6.251   0.693 -34.350  1.00  0.00     0.016 C 
HETATM   24  C   UNL     1      -7.693   1.222 -34.308  1.00  0.00     0.002 C 
HETATM   25  C   UNL     1      -8.166  -0.178 -33.894  1.00  0.00     0.016 C 
BRANCH  22  26
HETATM   26  C   UNL     1      -6.167  -1.987 -34.021  1.00  0.00    -0.048 A 
HETATM   27  C   UNL     1      -7.052  -2.951 -34.548  1.00  0.00     0.008 A 
HETATM   28  C   UNL     1      -6.613  -4.205 -34.982  1.00  0.00     0.001 A 
HETATM   29  C   UNL     1      -5.265  -4.536 -34.900  1.00  0.00     0.000 A 
HETATM   30  C   UNL     1      -4.362  -3.615 -34.381  1.00  0.00     0.001 A 
HETATM   31  C   UNL     1      -4.810  -2.363 -33.948  1.00  0.00     0.008 A 
ENDBRANCH  22  26
ENDBRANCH  21  22
ENDBRANCH   1  21
TORSDOF 5
ENDMDL
MODEL 2
REMARK VINA RESULT:      -9.4      2.268      2.910
REMARK  5 active torsions:
REMARK  status: ('A' for Active; 'I' for Inactive)
REMARK    1  A    between atoms: C_4  and  C_5 
REMARK    2  A    between atoms: C_5  and  C_6 
REMARK    3  A    between atoms: C_6  and  N_7 
REMARK       I    between atoms: N_7  and  C_8 
REMARK       I    between atoms: C_8  and  N_9 
REMARK    4  A    between atoms: N_9  and  N_10 
REMARK       I    between atoms: N_10  and  C_11 
REMARK    5  A    between atoms: C_11  and  C_12 
ROOT
HETATM    1  N   UNL     1      -6.047   1.477 -33.567  1.00  0.00    -0.341 N 
HETATM    2  C   UNL     1      -7.167   1.958 -32.929  1.00  0.00     0.334 C 
HETATM    3  N   UNL     1      -6.995   3.193 -32.362  1.00  0.00    -0.249 N 
HETATM    4  O   UNL     1      -8.237   1.365 -32.866  1.00  0.00    -0.246 OA
HETATM    5  H   UNL     1      -5.209   1.780 -33.091  1.00  0.00     0.164 HD
HETATM    6  H   UNL     1      -7.748   3.584 -31.797  1.00  0.00     0.192 HD
ENDROOT
BRANCH   3   7
HETATM    7  N   UNL     1      -5.833   3.961 -32.533  1.00  0.00    -0.262 N 
HETATM    8  C   UNL     1      -5.816   4.860 -33.590  1.00  0.00     0.272 C 
HETATM    9  O   UNL     1      -6.836   5.142 -34.216  1.00  0.00    -0.266 OA
HETATM   10  H   UNL     1      -4.971   3.526 -32.228  1.00  0.00     0.190 HD
BRANCH   8  11
HETATM   11  C   UNL     1      -4.503   5.416 -33.919  1.00  0.00     0.061 A 
HETATM   12  C   UNL     1      -3.739   6.335 -33.115  1.00  0.00     0.008 A 
HETATM   13  C   UNL     1      -2.556   6.617 -33.797  1.00  0.00     0.043 A 
HETATM   14  C   UNL     1      -3.950   6.958 -31.866  1.00  0.00     0.015 A 
HETATM   15  C   UNL     1      -1.577   7.486 -33.296  1.00  0.00     0.030 A 
HETATM   16  N   UNL     1      -2.583   5.900 -34.967  1.00  0.00    -0.364 N 
HETATM   17  C   UNL     1      -1.814   8.087 -32.057  1.00  0.00     0.002 A 
HETATM   18  C   UNL     1      -2.983   7.828 -31.349  1.00  0.00     0.001 A 
HETATM   19  H   UNL     1      -1.847   5.914 -35.660  1.00  0.00     0.165 HD
HETATM   20  C   UNL     1      -3.741   5.171 -35.053  1.00  0.00     0.106 A 
ENDBRANCH   8  11
ENDBRANCH   3   7
BRANCH   1  21
HETATM   21  C   UNL     1      -6.072   0.124 -34.090  1.00  0.00     0.138 C 
BRANCH  21  22
HETATM   22  C   UNL     1      -5.132  -0.813 -33.305  1.00  0.00     0.003 C 
HETATM   23  C   UNL     1      -5.165  -0.696 -31.737  1.00  0.00     0.016 C 
HETATM   24  C   UNL     1      -3.880   0.146 -31.785  1.00  0.00     0.002 C 
HETATM   25  C   UNL     1      -3.627  -0.371 -33.209  1.00  0.00     0.016 C 
BRANCH  22  26
HETATM   26  C   UNL     1      -5.377  -2.309 -33.893  1.00  0.00    -0.048 A 
HETATM   27  C   UNL     1      -4.366  -3.293 -33.862  1.00  0.00     0.008 A 
HETATM   28  C   UNL     1      -4.558  -4.572 -34.392  1.00  0.00     0.001 A 
HETATM   29  C   UNL     1      -5.773  -4.907 -34.977  1.00  0.00     0.000 A 
HETATM   30  C   UNL     1      -6.793  -3.963 -35.033  1.00  0.00     0.001 A 
HETATM   31  C   UNL     1      -6.593  -2.685 -34.501  1.00  0.00     0.008 A 
ENDBRANCH  22  26
ENDBRANCH  21  22
ENDBRANCH   1  21
TORSDOF 5
ENDMDL
MODEL 3
REMARK VINA RESULT:      -9.3      1.827      8.396
REMARK  5 active torsions:
REMARK  status: ('A' for Active; 'I' for Inactive)
REMARK    1  A    between atoms: C_4  and  C_5 
REMARK    2  A    between atoms: C_5  and  C_6 
REMARK    3  A    between atoms: C_6  and  N_7 
REMARK       I    between atoms: N_7  and  C_8 
REMARK       I    between atoms: C_8  and  N_9 
REMARK    4  A    between atoms: N_9  and  N_10 
REMARK       I    between atoms: N_10  and  C_11 
REMARK    5  A    between atoms: C_11  and  C_12 
ROOT
HETATM    1  N   UNL     1      -4.400   4.581 -31.822  1.00  0.00    -0.341 N 
HETATM    2  C   UNL     1      -5.087   4.430 -30.641  1.00  0.00     0.334 C 
HETATM    3  N   UNL     1      -5.576   3.166 -30.439  1.00  0.00    -0.249 N 
HETATM    4  O   UNL     1      -5.255   5.323 -29.819  1.00  0.00    -0.246 OA
HETATM    5  H   UNL     1      -4.800   3.996 -32.544  1.00  0.00     0.164 HD
HETATM    6  H   UNL     1      -6.171   2.992 -29.630  1.00  0.00     0.192 HD
ENDROOT
BRANCH   3   7
HETATM    7  N   UNL     1      -5.285   2.087 -31.287  1.00  0.00    -0.262 N 
HETATM    8  C   UNL     1      -5.260   0.821 -30.719  1.00  0.00     0.272 C 
HETATM    9  O   UNL     1      -5.684   0.613 -29.584  1.00  0.00    -0.266 OA
HETATM   10  H   UNL     1      -4.683   2.298 -32.075  1.00  0.00     0.190 HD
BRANCH   8  11
HETATM   11  C   UNL     1      -4.665  -0.227 -31.550  1.00  0.00     0.061 A 
HETATM   12  C   UNL     1      -5.303  -0.911 -32.645  1.00  0.00     0.008 A 
HETATM   13  C   UNL     1      -4.394  -1.837 -33.157  1.00  0.00     0.043 A 
HETATM   14  C   UNL     1      -6.577  -0.829 -33.248  1.00  0.00     0.015 A 
HETATM   15  C   UNL     1      -4.692  -2.681 -34.235  1.00  0.00     0.030 A 
HETATM   16  N   UNL     1      -3.244  -1.727 -32.416  1.00  0.00    -0.364 N 
HETATM   17  C   UNL     1      -5.961  -2.576 -34.811  1.00  0.00     0.002 A 
HETATM   18  C   UNL     1      -6.893  -1.663 -34.327  1.00  0.00     0.001 A 
HETATM   19  H   UNL     1      -2.413  -2.282 -32.568  1.00  0.00     0.165 HD
HETATM   20  C   UNL     1      -3.389  -0.762 -31.452  1.00  0.00     0.106 A 
ENDBRANCH   8  11
ENDBRANCH   3   7
BRANCH   1  21
HETATM   21  C   UNL     1      -3.952   5.906 -32.202  1.00  0.00     0.138 C 
BRANCH  21  22
HETATM   22  C   UNL     1      -2.515   5.890 -32.762  1.00  0.00     0.003 C 
HETATM   23  C   UNL     1      -2.294   6.570 -34.162  1.00  0.00     0.016 C 
HETATM   24  C   UNL     1      -2.302   5.183 -34.823  1.00  0.00     0.002 C 
HETATM   25  C   UNL     1      -2.048   4.554 -33.446  1.00  0.00     0.016 C 
BRANCH  22  26
HETATM   26  C   UNL     1      -1.550   6.430 -31.569  1.00  0.00    -0.048 A 
HETATM   27  C   UNL     1      -0.147   6.469 -31.711  1.00  0.00     0.008 A 
HETATM   28  C   UNL     1       0.692   6.904 -30.681  1.00  0.00     0.001 A 
HETATM   29  C   UNL     1       0.150   7.312 -29.468  1.00  0.00     0.000 A 
HETATM   30  C   UNL     1      -1.229   7.283 -29.287  1.00  0.00     0.001 A 
HETATM   31  C   UNL     1      -2.061   6.846 -30.322  1.00  0.00     0.008 A 
ENDBRANCH  22  26
ENDBRANCH  21  22
ENDBRANCH   1  21
TORSDOF 5
ENDMDL
MODEL 4
REMARK VINA RESULT:      -9.3      4.788      8.440
REMARK  5 active torsions:
REMARK  status: ('A' for Active; 'I' for Inactive)
REMARK    1  A    between atoms: C_4  and  C_5 
REMARK    2  A    between atoms: C_5  and  C_6 
REMARK    3  A    between atoms: C_6  and  N_7 
REMARK       I    between atoms: N_7  and  C_8 
REMARK       I    between atoms: C_8  and  N_9 
REMARK    4  A    between atoms: N_9  and  N_10 
REMARK       I    between atoms: N_10  and  C_11 
REMARK    5  A    between atoms: C_11  and  C_12 
ROOT
HETATM    1  N   UNL     1      -7.834   0.868 -34.209  1.00  0.00    -0.341 N 
HETATM    2  C   UNL     1      -7.740   2.225 -34.006  1.00  0.00     0.334 C 
HETATM    3  N   UNL     1      -8.927   2.821 -33.669  1.00  0.00    -0.249 N 
HETATM    4  O   UNL     1      -6.701   2.869 -34.100  1.00  0.00    -0.246 OA
HETATM    5  H   UNL     1      -8.731   0.630 -34.609  1.00  0.00     0.164 HD
HETATM    6  H   UNL     1      -8.962   3.835 -33.586  1.00  0.00     0.192 HD
ENDROOT
BRANCH   3   7
HETATM    7  N   UNL     1     -10.102   2.098 -33.416  1.00  0.00    -0.262 N 
HETATM    8  C   UNL     1     -11.193   2.353 -34.235  1.00  0.00     0.272 C 
HETATM    9  O   UNL     1     -11.087   3.010 -35.269  1.00  0.00    -0.266 OA
HETATM   10  H   UNL     1     -10.250   1.823 -32.452  1.00  0.00     0.190 HD
BRANCH   8  11
HETATM   11  C   UNL     1     -12.471   1.816 -33.762  1.00  0.00     0.061 A 
HETATM   12  C   UNL     1     -13.539   2.568 -33.155  1.00  0.00     0.008 A 
HETATM   13  C   UNL     1     -14.566   1.676 -32.846  1.00  0.00     0.043 A 
HETATM   14  C   UNL     1     -13.724   3.931 -32.835  1.00  0.00     0.015 A 
HETATM   15  C   UNL     1     -15.762   2.075 -32.236  1.00  0.00     0.030 A 
HETATM   16  N   UNL     1     -14.154   0.430 -33.249  1.00  0.00    -0.364 N 
HETATM   17  C   UNL     1     -15.917   3.430 -31.932  1.00  0.00     0.002 A 
HETATM   18  C   UNL     1     -14.914   4.348 -32.227  1.00  0.00     0.001 A 
HETATM   19  H   UNL     1     -14.705  -0.412 -33.147  1.00  0.00     0.165 HD
HETATM   20  C   UNL     1     -12.903   0.498 -33.806  1.00  0.00     0.106 A 
ENDBRANCH   8  11
ENDBRANCH   3   7
BRANCH   1  21
HETATM   21  C   UNL     1      -6.669   0.155 -34.697  1.00  0.00     0.138 C 
BRANCH  21  22
HETATM   22  C   UNL     1      -5.935  -0.591 -33.564  1.00  0.00     0.003 C 
HETATM   23  C   UNL     1      -6.502  -0.402 -32.110  1.00  0.00     0.016 C 
HETATM   24  C   UNL     1      -5.391   0.619 -31.822  1.00  0.00     0.002 C 
HETATM   25  C   UNL     1      -4.616   0.075 -33.031  1.00  0.00     0.016 C 
BRANCH  22  26
HETATM   26  C   UNL     1      -5.782  -2.134 -34.053  1.00  0.00    -0.048 A 
HETATM   27  C   UNL     1      -6.870  -2.853 -34.591  1.00  0.00     0.008 A 
HETATM   28  C   UNL     1      -6.756  -4.188 -34.986  1.00  0.00     0.001 A 
HETATM   29  C   UNL     1      -5.542  -4.852 -34.852  1.00  0.00     0.000 A 
HETATM   30  C   UNL     1      -4.447  -4.179 -34.321  1.00  0.00     0.001 A 
HETATM   31  C   UNL     1      -4.569  -2.843 -33.927  1.00  0.00     0.008 A 
ENDBRANCH  22  26
ENDBRANCH  21  22
ENDBRANCH   1  21
TORSDOF 5
ENDMDL
MODEL 5
REMARK VINA RESULT:      -9.3      3.970      5.757
REMARK  5 active torsions:
REMARK  status: ('A' for Active; 'I' for Inactive)
REMARK    1  A    between atoms: C_4  and  C_5 
REMARK    2  A    between atoms: C_5  and  C_6 
REMARK    3  A    between atoms: C_6  and  N_7 
REMARK       I    between atoms: N_7  and  C_8 
REMARK       I    between atoms: C_8  and  N_9 
REMARK    4  A    between atoms: N_9  and  N_10 
REMARK       I    between atoms: N_10  and  C_11 
REMARK    5  A    between atoms: C_11  and  C_12 
ROOT
HETATM    1  N   UNL     1      -6.072   0.668 -31.986  1.00  0.00    -0.341 N 
HETATM    2  C   UNL     1      -5.387   0.713 -30.794  1.00  0.00     0.334 C 
HETATM    3  N   UNL     1      -5.989   1.485 -29.835  1.00  0.00    -0.249 N 
HETATM    4  O   UNL     1      -4.337   0.120 -30.577  1.00  0.00    -0.246 OA
HETATM    5  H   UNL     1      -6.536   1.549 -32.163  1.00  0.00     0.164 HD
HETATM    6  H   UNL     1      -5.503   1.641 -28.954  1.00  0.00     0.192 HD
ENDROOT
BRANCH   3   7
HETATM    7  N   UNL     1      -7.256   2.063 -30.001  1.00  0.00    -0.262 N 
HETATM    8  C   UNL     1      -7.318   3.275 -30.674  1.00  0.00     0.272 C 
HETATM    9  O   UNL     1      -6.354   3.722 -31.292  1.00  0.00    -0.266 OA
HETATM   10  H   UNL     1      -7.932   1.855 -29.275  1.00  0.00     0.190 HD
BRANCH   8  11
HETATM   11  C   UNL     1      -8.592   3.988 -30.566  1.00  0.00     0.061 A 
HETATM   12  C   UNL     1      -9.781   3.732 -31.339  1.00  0.00     0.008 A 
HETATM   13  C   UNL     1     -10.759   4.638 -30.929  1.00  0.00     0.043 A 
HETATM   14  C   UNL     1     -10.113   2.811 -32.356  1.00  0.00     0.015 A 
HETATM   15  C   UNL     1     -12.046   4.670 -31.482  1.00  0.00     0.030 A 
HETATM   16  N   UNL     1     -10.203   5.415 -29.943  1.00  0.00    -0.364 N 
HETATM   17  C   UNL     1     -12.345   3.747 -32.486  1.00  0.00     0.002 A 
HETATM   18  C   UNL     1     -11.394   2.828 -32.919  1.00  0.00     0.001 A 
HETATM   19  H   UNL     1     -10.690   6.160 -29.463  1.00  0.00     0.165 HD
HETATM   20  C   UNL     1      -8.906   5.034 -29.710  1.00  0.00     0.106 A 
ENDBRANCH   8  11
ENDBRANCH   3   7
BRANCH   1  21
HETATM   21  C   UNL     1      -5.463  -0.010 -33.114  1.00  0.00     0.138 C 
BRANCH  21  22
HETATM   22  C   UNL     1      -6.516  -0.691 -34.012  1.00  0.00     0.003 C 
HETATM   23  C   UNL     1      -6.947   0.087 -35.309  1.00  0.00     0.016 C 
HETATM   24  C   UNL     1      -8.223   0.552 -34.591  1.00  0.00     0.002 C 
HETATM   25  C   UNL     1      -8.013  -0.561 -33.555  1.00  0.00     0.016 C 
BRANCH  22  26
HETATM   26  C   UNL     1      -5.998  -2.212 -34.257  1.00  0.00    -0.048 A 
HETATM   27  C   UNL     1      -6.862  -3.225 -34.725  1.00  0.00     0.008 A 
HETATM   28  C   UNL     1      -6.433  -4.541 -34.909  1.00  0.00     0.001 A 
HETATM   29  C   UNL     1      -5.118  -4.891 -34.627  1.00  0.00     0.000 A 
HETATM   30  C   UNL     1      -4.236  -3.923 -34.159  1.00  0.00     0.001 A 
HETATM   31  C   UNL     1      -4.673  -2.607 -33.976  1.00  0.00     0.008 A 
ENDBRANCH  22  26
ENDBRANCH  21  22
ENDBRANCH   1  21
TORSDOF 5
ENDMDL
MODEL 6
REMARK VINA RESULT:      -9.2      2.679      3.677
REMARK  5 active torsions:
REMARK  status: ('A' for Active; 'I' for Inactive)
REMARK    1  A    between atoms: C_4  and  C_5 
REMARK    2  A    between atoms: C_5  and  C_6 
REMARK    3  A    between atoms: C_6  and  N_7 
REMARK       I    between atoms: N_7  and  C_8 
REMARK       I    between atoms: C_8  and  N_9 
REMARK    4  A    between atoms: N_9  and  N_10 
REMARK       I    between atoms: N_10  and  C_11 
REMARK    5  A    between atoms: C_11  and  C_12 
ROOT
HETATM    1  N   UNL     1      -8.115   0.244 -32.188  1.00  0.00    -0.341 N 
HETATM    2  C   UNL     1      -9.377   0.737 -31.957  1.00  0.00     0.334 C 
HETATM    3  N   UNL     1      -9.416   1.764 -31.051  1.00  0.00    -0.249 N 
HETATM    4  O   UNL     1     -10.393   0.323 -32.503  1.00  0.00    -0.246 OA
HETATM    5  H   UNL     1      -7.554   0.292 -31.347  1.00  0.00     0.164 HD
HETATM    6  H   UNL     1     -10.321   2.128 -30.758  1.00  0.00     0.192 HD
ENDROOT
BRANCH   3   7
HETATM    7  N   UNL     1      -8.263   2.356 -30.513  1.00  0.00    -0.262 N 
HETATM    8  C   UNL     1      -8.101   3.721 -30.705  1.00  0.00     0.272 C 
HETATM    9  O   UNL     1      -9.014   4.428 -31.127  1.00  0.00    -0.266 OA
HETATM   10  H   UNL     1      -7.449   1.755 -30.453  1.00  0.00     0.190 HD
BRANCH   8  11
HETATM   11  C   UNL     1      -6.767   4.242 -30.403  1.00  0.00     0.061 A 
HETATM   12  C   UNL     1      -5.658   4.328 -31.318  1.00  0.00     0.008 A 
HETATM   13  C   UNL     1      -4.576   4.874 -30.628  1.00  0.00     0.043 A 
HETATM   14  C   UNL     1      -5.474   3.987 -32.676  1.00  0.00     0.015 A 
HETATM   15  C   UNL     1      -3.326   5.094 -31.221  1.00  0.00     0.030 A 
HETATM   16  N   UNL     1      -4.998   5.119 -29.344  1.00  0.00    -0.364 N 
HETATM   17  C   UNL     1      -3.175   4.747 -32.566  1.00  0.00     0.002 A 
HETATM   18  C   UNL     1      -4.234   4.201 -33.287  1.00  0.00     0.001 A 
HETATM   19  H   UNL     1      -4.415   5.517 -28.620  1.00  0.00     0.165 HD
HETATM   20  C   UNL     1      -6.311   4.751 -29.196  1.00  0.00     0.106 A 
ENDBRANCH   8  11
ENDBRANCH   3   7
BRANCH   1  21
HETATM   21  C   UNL     1      -7.969  -0.930 -33.027  1.00  0.00     0.138 C 
BRANCH  21  22
HETATM   22  C   UNL     1      -6.856  -0.750 -34.079  1.00  0.00     0.003 C 
HETATM   23  C   UNL     1      -5.867   0.453 -33.863  1.00  0.00     0.016 C 
HETATM   24  C   UNL     1      -6.646   1.265 -34.910  1.00  0.00     0.002 C 
HETATM   25  C   UNL     1      -7.270  -0.042 -35.419  1.00  0.00     0.016 C 
BRANCH  22  26
HETATM   26  C   UNL     1      -6.150  -2.204 -34.255  1.00  0.00    -0.048 A 
HETATM   27  C   UNL     1      -4.784  -2.405 -33.963  1.00  0.00     0.008 A 
HETATM   28  C   UNL     1      -4.161  -3.644 -34.139  1.00  0.00     0.001 A 
HETATM   29  C   UNL     1      -4.889  -4.727 -34.619  1.00  0.00     0.000 A 
HETATM   30  C   UNL     1      -6.236  -4.567 -34.923  1.00  0.00     0.001 A 
HETATM   31  C   UNL     1      -6.852  -3.324 -34.745  1.00  0.00     0.008 A 
ENDBRANCH  22  26
ENDBRANCH  21  22
ENDBRANCH   1  21
TORSDOF 5
ENDMDL
MODEL 7
REMARK VINA RESULT:      -9.1      3.987      6.448
REMARK  5 active torsions:
REMARK  status: ('A' for Active; 'I' for Inactive)
REMARK    1  A    between atoms: C_4  and  C_5 
REMARK    2  A    between atoms: C_5  and  C_6 
REMARK    3  A    between atoms: C_6  and  N_7 
REMARK       I    between atoms: N_7  and  C_8 
REMARK       I    between atoms: C_8  and  N_9 
REMARK    4  A    between atoms: N_9  and  N_10 
REMARK       I    between atoms: N_10  and  C_11 
REMARK    5  A    between atoms: C_11  and  C_12 
ROOT
HETATM    1  N   UNL     1      -6.519   1.157 -32.438  1.00  0.00    -0.341 N 
HETATM    2  C   UNL     1      -6.295   1.536 -31.135  1.00  0.00     0.334 C 
HETATM    3  N   UNL     1      -6.857   2.740 -30.802  1.00  0.00    -0.249 N 
HETATM    4  O   UNL     1      -5.663   0.874 -30.320  1.00  0.00    -0.246 OA
HETATM    5  H   UNL     1      -6.548   1.965 -33.044  1.00  0.00     0.164 HD
HETATM    6  H   UNL     1      -6.666   3.134 -29.883  1.00  0.00     0.192 HD
ENDROOT
BRANCH   3   7
HETATM    7  N   UNL     1      -7.702   3.456 -31.664  1.00  0.00    -0.262 N 
HETATM    8  C   UNL     1      -9.063   3.412 -31.400  1.00  0.00     0.272 C 
HETATM    9  O   UNL     1      -9.504   2.959 -30.346  1.00  0.00    -0.266 OA
HETATM   10  H   UNL     1      -7.376   3.550 -32.619  1.00  0.00     0.190 HD
BRANCH   8  11
HETATM   11  C   UNL     1      -9.926   3.909 -32.473  1.00  0.00     0.061 A 
HETATM   12  C   UNL     1     -10.812   3.119 -33.290  1.00  0.00     0.008 A 
HETATM   13  C   UNL     1     -11.439   3.977 -34.193  1.00  0.00     0.043 A 
HETATM   14  C   UNL     1     -11.135   1.745 -33.346  1.00  0.00     0.015 A 
HETATM   15  C   UNL     1     -12.367   3.535 -35.144  1.00  0.00     0.030 A 
HETATM   16  N   UNL     1     -10.967   5.242 -33.943  1.00  0.00    -0.364 N 
HETATM   17  C   UNL     1     -12.668   2.171 -35.175  1.00  0.00     0.002 A 
HETATM   18  C   UNL     1     -12.062   1.286 -34.288  1.00  0.00     0.001 A 
HETATM   19  H   UNL     1     -11.253   6.067 -34.452  1.00  0.00     0.165 HD
HETATM   20  C   UNL     1     -10.063   5.218 -32.911  1.00  0.00     0.106 A 
ENDBRANCH   8  11
ENDBRANCH   3   7
BRANCH   1  21
HETATM   21  C   UNL     1      -5.861  -0.035 -32.939  1.00  0.00     0.138 C 
BRANCH  21  22
HETATM   22  C   UNL     1      -6.688  -0.728 -34.042  1.00  0.00     0.003 C 
HETATM   23  C   UNL     1      -6.891   0.072 -35.380  1.00  0.00     0.016 C 
HETATM   24  C   UNL     1      -8.302   0.465 -34.915  1.00  0.00     0.002 C 
HETATM   25  C   UNL     1      -8.250  -0.670 -33.884  1.00  0.00     0.016 C 
BRANCH  22  26
HETATM   26  C   UNL     1      -6.065  -2.220 -34.215  1.00  0.00    -0.048 A 
HETATM   27  C   UNL     1      -4.713  -2.498 -33.921  1.00  0.00     0.008 A 
HETATM   28  C   UNL     1      -4.161  -3.770 -34.095  1.00  0.00     0.001 A 
HETATM   29  C   UNL     1      -4.949  -4.810 -34.574  1.00  0.00     0.000 A 
HETATM   30  C   UNL     1      -6.285  -4.575 -34.880  1.00  0.00     0.001 A 
HETATM   31  C   UNL     1      -6.829  -3.299 -34.704  1.00  0.00     0.008 A 
ENDBRANCH  22  26
ENDBRANCH  21  22
ENDBRANCH   1  21
TORSDOF 5
ENDMDL
MODEL 8
REMARK VINA RESULT:      -9.0      2.131      2.355
REMARK  5 active torsions:
REMARK  status: ('A' for Active; 'I' for Inactive)
REMARK    1  A    between atoms: C_4  and  C_5 
REMARK    2  A    between atoms: C_5  and  C_6 
REMARK    3  A    between atoms: C_6  and  N_7 
REMARK       I    between atoms: N_7  and  C_8 
REMARK       I    between atoms: C_8  and  N_9 
REMARK    4  A    between atoms: N_9  and  N_10 
REMARK       I    between atoms: N_10  and  C_11 
REMARK    5  A    between atoms: C_11  and  C_12 
ROOT
HETATM    1  N   UNL     1      -6.754   2.099 -31.609  1.00  0.00    -0.341 N 
HETATM    2  C   UNL     1      -7.552   3.030 -30.985  1.00  0.00     0.334 C 
HETATM    3  N   UNL     1      -7.006   4.285 -30.935  1.00  0.00    -0.249 N 
HETATM    4  O   UNL     1      -8.659   2.790 -30.517  1.00  0.00    -0.246 OA
HETATM    5  H   UNL     1      -5.777   2.296 -31.437  1.00  0.00     0.164 HD
HETATM    6  H   UNL     1      -7.494   5.013 -30.414  1.00  0.00     0.192 HD
ENDROOT
BRANCH   3   7
HETATM    7  N   UNL     1      -5.809   4.627 -31.581  1.00  0.00    -0.262 N 
HETATM    8  C   UNL     1      -5.900   5.453 -32.692  1.00  0.00     0.272 C 
HETATM    9  O   UNL     1      -6.942   6.041 -32.977  1.00  0.00    -0.266 OA
HETATM   10  H   UNL     1      -5.067   3.939 -31.524  1.00  0.00     0.190 HD
BRANCH   8  11
HETATM   11  C   UNL     1      -4.689   5.542 -33.509  1.00  0.00     0.061 A 
HETATM   12  C   UNL     1      -3.452   6.177 -33.133  1.00  0.00     0.008 A 
HETATM   13  C   UNL     1      -2.563   6.043 -34.199  1.00  0.00     0.043 A 
HETATM   14  C   UNL     1      -3.007   6.859 -31.979  1.00  0.00     0.015 A 
HETATM   15  C   UNL     1      -1.258   6.554 -34.171  1.00  0.00     0.030 A 
HETATM   16  N   UNL     1      -3.218   5.352 -35.188  1.00  0.00    -0.364 N 
HETATM   17  C   UNL     1      -0.847   7.224 -33.016  1.00  0.00     0.002 A 
HETATM   18  C   UNL     1      -1.707   7.375 -31.932  1.00  0.00     0.001 A 
HETATM   19  H   UNL     1      -2.809   5.111 -36.081  1.00  0.00     0.165 HD
HETATM   20  C   UNL     1      -4.492   5.039 -34.787  1.00  0.00     0.106 A 
ENDBRANCH   8  11
ENDBRANCH   3   7
BRANCH   1  21
HETATM   21  C   UNL     1      -7.171   0.710 -31.604  1.00  0.00     0.138 C 
BRANCH  21  22
HETATM   22  C   UNL     1      -7.624   0.241 -33.001  1.00  0.00     0.003 C 
HETATM   23  C   UNL     1      -7.945   1.364 -34.054  1.00  0.00     0.016 C 
HETATM   24  C   UNL     1      -9.445   1.176 -33.778  1.00  0.00     0.002 C 
HETATM   25  C   UNL     1      -9.130  -0.185 -33.141  1.00  0.00     0.016 C 
BRANCH  22  26
HETATM   26  C   UNL     1      -6.543  -0.873 -33.485  1.00  0.00    -0.048 A 
HETATM   27  C   UNL     1      -6.867  -1.852 -34.449  1.00  0.00     0.008 A 
HETATM   28  C   UNL     1      -5.954  -2.832 -34.849  1.00  0.00     0.001 A 
HETATM   29  C   UNL     1      -4.681  -2.865 -34.292  1.00  0.00     0.000 A 
HETATM   30  C   UNL     1      -4.325  -1.921 -33.335  1.00  0.00     0.001 A 
HETATM   31  C   UNL     1      -5.244  -0.944 -32.939  1.00  0.00     0.008 A 
ENDBRANCH  22  26
ENDBRANCH  21  22
ENDBRANCH   1  21
TORSDOF 5
ENDMDL
MODEL 9
REMARK VINA RESULT:      -9.0      2.805      4.492
REMARK  5 active torsions:
REMARK  status: ('A' for Active; 'I' for Inactive)
REMARK    1  A    between atoms: C_4  and  C_5 
REMARK    2  A    between atoms: C_5  and  C_6 
REMARK    3  A    between atoms: C_6  and  N_7 
REMARK       I    between atoms: N_7  and  C_8 
REMARK       I    between atoms: C_8  and  N_9 
REMARK    4  A    between atoms: N_9  and  N_10 
REMARK       I    between atoms: N_10  and  C_11 
REMARK    5  A    between atoms: C_11  and  C_12 
ROOT
HETATM    1  N   UNL     1      -4.830   4.646 -33.524  1.00  0.00    -0.341 N 
HETATM    2  C   UNL     1      -4.114   5.170 -34.575  1.00  0.00     0.334 C 
HETATM    3  N   UNL     1      -3.231   6.152 -34.211  1.00  0.00    -0.249 N 
HETATM    4  O   UNL     1      -4.227   4.805 -35.739  1.00  0.00    -0.246 OA
HETATM    5  H   UNL     1      -5.014   5.358 -32.829  1.00  0.00     0.164 HD
HETATM    6  H   UNL     1      -2.724   6.652 -34.940  1.00  0.00     0.192 HD
ENDROOT
BRANCH   3   7
HETATM    7  N   UNL     1      -2.975   6.497 -32.875  1.00  0.00    -0.262 N 
HETATM    8  C   UNL     1      -2.060   7.514 -32.646  1.00  0.00     0.272 C 
HETATM    9  O   UNL     1      -1.652   8.235 -33.555  1.00  0.00    -0.266 OA
HETATM   10  H   UNL     1      -3.073   5.746 -32.202  1.00  0.00     0.190 HD
BRANCH   8  11
HETATM   11  C   UNL     1      -1.596   7.640 -31.264  1.00  0.00     0.061 A 
HETATM   12  C   UNL     1      -0.717   6.732 -30.573  1.00  0.00     0.008 A 
HETATM   13  C   UNL     1      -0.537   7.215 -29.277  1.00  0.00     0.043 A 
HETATM   14  C   UNL     1      -0.059   5.535 -30.933  1.00  0.00     0.015 A 
HETATM   15  C   UNL     1       0.263   6.566 -28.327  1.00  0.00     0.030 A 
HETATM   16  N   UNL     1      -1.267   8.373 -29.172  1.00  0.00    -0.364 N 
HETATM   17  C   UNL     1       0.901   5.385 -28.712  1.00  0.00     0.002 A 
HETATM   18  C   UNL     1       0.745   4.874 -29.998  1.00  0.00     0.001 A 
HETATM   19  H   UNL     1      -1.319   8.939 -28.336  1.00  0.00     0.165 HD
HETATM   20  C   UNL     1      -1.903   8.645 -30.357  1.00  0.00     0.106 A 
ENDBRANCH   8  11
ENDBRANCH   3   7
BRANCH   1  21
HETATM   21  C   UNL     1      -5.887   3.695 -33.808  1.00  0.00     0.138 C 
BRANCH  21  22
HETATM   22  C   UNL     1      -5.946   2.570 -32.754  1.00  0.00     0.003 C 
HETATM   23  C   UNL     1      -6.883   2.812 -31.514  1.00  0.00     0.016 C 
HETATM   24  C   UNL     1      -5.654   3.194 -30.676  1.00  0.00     0.002 C 
HETATM   25  C   UNL     1      -4.761   2.515 -31.724  1.00  0.00     0.016 C 
BRANCH  22  26
HETATM   26  C   UNL     1      -6.218   1.190 -33.569  1.00  0.00    -0.048 A 
HETATM   27  C   UNL     1      -7.198   1.106 -34.581  1.00  0.00     0.008 A 
HETATM   28  C   UNL     1      -7.459  -0.083 -35.266  1.00  0.00     0.001 A 
HETATM   29  C   UNL     1      -6.746  -1.235 -34.956  1.00  0.00     0.000 A 
HETATM   30  C   UNL     1      -5.775  -1.196 -33.961  1.00  0.00     0.001 A 
HETATM   31  C   UNL     1      -5.520  -0.002 -33.280  1.00  0.00     0.008 A 
ENDBRANCH  22  26
ENDBRANCH  21  22
ENDBRANCH   1  21
TORSDOF 5
ENDMDL
MODEL 10
REMARK VINA RESULT:      -8.9      2.167      2.957
REMARK  5 active torsions:
REMARK  status: ('A' for Active; 'I' for Inactive)
REMARK    1  A    between atoms: C_4  and  C_5 
REMARK    2  A    between atoms: C_5  and  C_6 
REMARK    3  A    between atoms: C_6  and  N_7 
REMARK       I    between atoms: N_7  and  C_8 
REMARK       I    between atoms: C_8  and  N_9 
REMARK    4  A    between atoms: N_9  and  N_10 
REMARK       I    between atoms: N_10  and  C_11 
REMARK    5  A    between atoms: C_11  and  C_12 
ROOT
HETATM    1  N   UNL     1      -5.618   2.384 -33.166  1.00  0.00    -0.341 N 
HETATM    2  C   UNL     1      -6.477   3.278 -33.761  1.00  0.00     0.334 C 
HETATM    3  N   UNL     1      -5.917   4.502 -34.016  1.00  0.00    -0.249 N 
HETATM    4  O   UNL     1      -7.640   3.029 -34.057  1.00  0.00    -0.246 OA
HETATM    5  H   UNL     1      -4.977   2.863 -32.549  1.00  0.00     0.164 HD
HETATM    6  H   UNL     1      -6.509   5.249 -34.376  1.00  0.00     0.192 HD
ENDROOT
BRANCH   3   7
HETATM    7  N   UNL     1      -4.555   4.777 -33.821  1.00  0.00    -0.262 N 
HETATM    8  C   UNL     1      -4.235   5.810 -32.951  1.00  0.00     0.272 C 
HETATM    9  O   UNL     1      -5.077   6.320 -32.214  1.00  0.00    -0.266 OA
HETATM   10  H   UNL     1      -3.949   4.574 -34.607  1.00  0.00     0.190 HD
BRANCH   8  11
HETATM   11  C   UNL     1      -2.844   6.263 -33.001  1.00  0.00     0.061 A 
HETATM   12  C   UNL     1      -1.945   6.384 -31.882  1.00  0.00     0.008 A 
HETATM   13  C   UNL     1      -0.725   6.857 -32.364  1.00  0.00     0.043 A 
HETATM   14  C   UNL     1      -2.061   6.136 -30.497  1.00  0.00     0.015 A 
HETATM   15  C   UNL     1       0.380   7.095 -31.536  1.00  0.00     0.030 A 
HETATM   16  N   UNL     1      -0.861   7.017 -33.721  1.00  0.00    -0.364 N 
HETATM   17  C   UNL     1       0.236   6.839 -30.170  1.00  0.00     0.002 A 
HETATM   18  C   UNL     1      -0.967   6.365 -29.654  1.00  0.00     0.001 A 
HETATM   19  H   UNL     1      -0.126   7.351 -34.331  1.00  0.00     0.165 HD
HETATM   20  C   UNL     1      -2.124   6.660 -34.119  1.00  0.00     0.106 A 
ENDBRANCH   8  11
ENDBRANCH   3   7
BRANCH   1  21
HETATM   21  C   UNL     1      -6.139   1.103 -32.731  1.00  0.00     0.138 C 
BRANCH  21  22
HETATM   22  C   UNL     1      -5.014   0.075 -32.491  1.00  0.00     0.003 C 
HETATM   23  C   UNL     1      -4.655  -0.242 -30.993  1.00  0.00     0.016 C 
HETATM   24  C   UNL     1      -3.440   0.693 -31.100  1.00  0.00     0.002 C 
HETATM   25  C   UNL     1      -3.542   0.608 -32.629  1.00  0.00     0.016 C 
BRANCH  22  26
HETATM   26  C   UNL     1      -5.370  -1.220 -33.407  1.00  0.00    -0.048 A 
HETATM   27  C   UNL     1      -6.696  -1.518 -33.788  1.00  0.00     0.008 A 
HETATM   28  C   UNL     1      -7.014  -2.645 -34.550  1.00  0.00     0.001 A 
HETATM   29  C   UNL     1      -6.011  -3.517 -34.956  1.00  0.00     0.000 A 
HETATM   30  C   UNL     1      -4.692  -3.261 -34.596  1.00  0.00     0.001 A 
HETATM   31  C   UNL     1      -4.381  -2.131 -33.833  1.00  0.00     0.008 A 
ENDBRANCH  22  26
ENDBRANCH  21  22
ENDBRANCH   1  21
TORSDOF 5
ENDMDL
