MODEL 1
REMARK VINA RESULT:      -9.6      0.000      0.000
REMARK  7 active torsions:
REMARK  status: ('A' for Active; 'I' for Inactive)
REMARK    1  A    between atoms: O_2  and  C_3 
REMARK    2  A    between atoms: C_6  and  C_7 
REMARK    3  A    between atoms: N_9  and  C_10 
REMARK    4  A    between atoms: C_10  and  C_11 
REMARK    5  A    between atoms: C_18  and  C_19 
REMARK       I    between atoms: C_19  and  N_20 
REMARK    6  A    between atoms: N_20  and  N_21 
REMARK       I    between atoms: N_21  and  C_22 
REMARK    7  A    between atoms: C_22  and  C_23 
ROOT
HETATM    1  C   UNL     1      -5.864   1.236 -32.683  1.00  0.00     0.104 A 
HETATM    2  N   UNL     1      -4.760   1.991 -32.517  1.00  0.00    -0.171 NA
HETATM    3  N   UNL     1      -5.183   3.098 -31.893  1.00  0.00    -0.275 N 
HETATM    4  C   UNL     1      -6.535   3.141 -31.735  1.00  0.00     0.132 A 
HETATM    5  C   UNL     1      -7.026   1.932 -32.204  1.00  0.00     0.082 A 
ENDROOT
BRANCH   5   6
HETATM    6  C   UNL     1      -8.413   1.498 -32.129  1.00  0.00     0.274 C 
HETATM    7  N   UNL     1      -9.316   2.365 -32.714  1.00  0.00    -0.263 N 
HETATM    8  H   UNL     1      -9.053   3.259 -33.119  1.00  0.00     0.190 HD
HETATM    9  O   UNL     1      -8.778   0.456 -31.590  1.00  0.00    -0.266 OA
BRANCH   7  10
HETATM   10  N   UNL     1     -10.689   2.134 -32.557  1.00  0.00    -0.262 N 
HETATM   11  C   UNL     1     -11.389   1.631 -33.634  1.00  0.00     0.286 C 
HETATM   12  O   UNL     1     -10.814   1.261 -34.659  1.00  0.00    -0.264 OA
HETATM   13  H   UNL     1     -11.142   2.595 -31.771  1.00  0.00     0.190 HD
BRANCH  11  14
HETATM   14  C   UNL     1     -12.825   1.580 -33.487  1.00  0.00     0.102 A 
HETATM   15  N   UNL     1     -13.471   2.299 -32.501  1.00  0.00    -0.361 N 
HETATM   16  H   UNL     1     -12.993   2.895 -31.836  1.00  0.00     0.165 HD
HETATM   17  C   UNL     1     -14.820   2.085 -32.563  1.00  0.00     0.088 A 
HETATM   18  C   UNL     1     -15.063   1.221 -33.605  1.00  0.00     0.019 A 
HETATM   19  C   UNL     1     -13.811   0.903 -34.188  1.00  0.00     0.036 A 
ENDBRANCH  11  14
ENDBRANCH   7  10
ENDBRANCH   5   6
BRANCH   1  20
HETATM   20  C   UNL     1      -5.724  -0.095 -33.287  1.00  0.00    -0.004 A 
HETATM   21  C   UNL     1      -4.613  -0.890 -32.955  1.00  0.00     0.016 A 
HETATM   22  C   UNL     1      -4.430  -2.159 -33.517  1.00  0.00     0.037 A 
HETATM   23  C   UNL     1      -5.361  -2.660 -34.424  1.00  0.00     0.068 A 
HETATM   24  C   UNL     1      -6.460  -1.872 -34.772  1.00  0.00     0.037 A 
HETATM   25  C   UNL     1      -6.638  -0.598 -34.217  1.00  0.00     0.016 A 
BRANCH  23  26
HETATM   26  O   UNL     1      -5.308  -3.881 -35.038  1.00  0.00    -0.356 OA
HETATM   27  C   UNL     1      -6.552  -4.516 -35.307  1.00  0.00     0.210 C 
ENDBRANCH  23  26
ENDBRANCH   1  20
BRANCH   3  28
HETATM   28  C   UNL     1      -4.219   4.092 -31.439  1.00  0.00     0.189 C 
BRANCH  28  29
HETATM   29  C   UNL     1      -3.385   4.607 -32.587  1.00  0.00    -0.038 A 
HETATM   30  C   UNL     1      -1.990   4.706 -32.462  1.00  0.00     0.009 A 
HETATM   31  C   UNL     1      -1.215   5.202 -33.511  1.00  0.00     0.001 A 
HETATM   32  C   UNL     1      -1.824   5.599 -34.698  1.00  0.00     0.000 A 
HETATM   33  C   UNL     1      -3.208   5.499 -34.839  1.00  0.00     0.001 A 
HETATM   34  C   UNL     1      -3.986   5.006 -33.790  1.00  0.00     0.009 A 
ENDBRANCH  28  29
ENDBRANCH   3  28
TORSDOF 7
ENDMDL
MODEL 2
REMARK VINA RESULT:      -9.0      1.237      1.752
REMARK  7 active torsions:
REMARK  status: ('A' for Active; 'I' for Inactive)
REMARK    1  A    between atoms: O_2  and  C_3 
REMARK    2  A    between atoms: C_6  and  C_7 
REMARK    3  A    between atoms: N_9  and  C_10 
REMARK    4  A    between atoms: C_10  and  C_11 
REMARK    5  A    between atoms: C_18  and  C_19 
REMARK       I    between atoms: C_19  and  N_20 
REMARK    6  A    between atoms: N_20  and  N_21 
REMARK       I    between atoms: N_21  and  C_22 
REMARK    7  A    between atoms: C_22  and  C_23 
ROOT
HETATM    1  C   UNL     1      -4.763   1.212 -32.660  1.00  0.00     0.104 A 
HETATM    2  N   UNL     1      -3.531   1.723 -32.467  1.00  0.00    -0.171 NA
HETATM    3  N   UNL     1      -3.733   2.925 -31.911  1.00  0.00    -0.275 N 
HETATM    4  C   UNL     1      -5.050   3.260 -31.824  1.00  0.00     0.132 A 
HETATM    5  C   UNL     1      -5.768   2.161 -32.269  1.00  0.00     0.082 A 
ENDROOT
BRANCH   5   6
HETATM    6  C   UNL     1      -7.218   2.035 -32.249  1.00  0.00     0.274 C 
HETATM    7  N   UNL     1      -7.825   2.216 -33.476  1.00  0.00    -0.263 N 
HETATM    8  H   UNL     1      -7.319   2.470 -34.320  1.00  0.00     0.190 HD
HETATM    9  O   UNL     1      -7.872   1.795 -31.236  1.00  0.00    -0.266 OA
BRANCH   7  10
HETATM   10  N   UNL     1      -9.223   2.284 -33.547  1.00  0.00    -0.262 N 
HETATM   11  C   UNL     1      -9.920   1.107 -33.723  1.00  0.00     0.286 C 
HETATM   12  O   UNL     1      -9.356   0.012 -33.680  1.00  0.00    -0.264 OA
HETATM   13  H   UNL     1      -9.626   3.199 -33.738  1.00  0.00     0.190 HD
BRANCH  11  14
HETATM   14  C   UNL     1     -11.337   1.242 -33.971  1.00  0.00     0.102 A 
HETATM   15  N   UNL     1     -12.255   0.418 -33.352  1.00  0.00    -0.361 N 
HETATM   16  H   UNL     1     -12.001  -0.314 -32.699  1.00  0.00     0.165 HD
HETATM   17  C   UNL     1     -13.524   0.737 -33.749  1.00  0.00     0.088 A 
HETATM   18  C   UNL     1     -13.439   1.786 -34.634  1.00  0.00     0.019 A 
HETATM   19  C   UNL     1     -12.065   2.107 -34.775  1.00  0.00     0.036 A 
ENDBRANCH  11  14
ENDBRANCH   7  10
ENDBRANCH   5   6
BRANCH   1  20
HETATM   20  C   UNL     1      -4.886  -0.148 -33.202  1.00  0.00    -0.004 A 
HETATM   21  C   UNL     1      -5.932  -0.442 -34.095  1.00  0.00     0.016 A 
HETATM   22  C   UNL     1      -6.098  -1.726 -34.626  1.00  0.00     0.037 A 
HETATM   23  C   UNL     1      -5.216  -2.744 -34.274  1.00  0.00     0.068 A 
HETATM   24  C   UNL     1      -4.182  -2.466 -33.377  1.00  0.00     0.037 A 
HETATM   25  C   UNL     1      -4.022  -1.183 -32.838  1.00  0.00     0.016 A 
BRANCH  23  26
HETATM   26  O   UNL     1      -5.258  -4.035 -34.723  1.00  0.00    -0.356 OA
HETATM   27  C   UNL     1      -6.462  -4.454 -35.355  1.00  0.00     0.210 C 
ENDBRANCH  23  26
ENDBRANCH   1  20
BRANCH   3  28
HETATM   28  C   UNL     1      -2.599   3.713 -31.447  1.00  0.00     0.189 C 
BRANCH  28  29
HETATM   29  C   UNL     1      -2.328   4.875 -32.373  1.00  0.00    -0.038 A 
HETATM   30  C   UNL     1      -2.472   6.194 -31.915  1.00  0.00     0.009 A 
HETATM   31  C   UNL     1      -2.246   7.273 -32.771  1.00  0.00     0.001 A 
HETATM   32  C   UNL     1      -1.866   7.046 -34.091  1.00  0.00     0.000 A 
HETATM   33  C   UNL     1      -1.713   5.740 -34.557  1.00  0.00     0.001 A 
HETATM   34  C   UNL     1      -1.941   4.659 -33.704  1.00  0.00     0.009 A 
ENDBRANCH  28  29
ENDBRANCH   3  28
TORSDOF 7
ENDMDL
MODEL 3
REMARK VINA RESULT:      -8.8      2.249      7.779
REMARK  7 active torsions:
REMARK  status: ('A' for Active; 'I' for Inactive)
REMARK    1  A    between atoms: O_2  and  C_3 
REMARK    2  A    between atoms: C_6  and  C_7 
REMARK    3  A    between atoms: N_9  and  C_10 
REMARK    4  A    between atoms: C_10  and  C_11 
REMARK    5  A    between atoms: C_18  and  C_19 
REMARK       I    between atoms: C_19  and  N_20 
REMARK    6  A    between atoms: N_20  and  N_21 
REMARK       I    between atoms: N_21  and  C_22 
REMARK    7  A    between atoms: C_22  and  C_23 
ROOT
HETATM    1  C   UNL     1      -7.452   0.294 -33.418  1.00  0.00     0.104 A 
HETATM    2  N   UNL     1      -8.726  -0.073 -33.180  1.00  0.00    -0.171 NA
HETATM    3  N   UNL     1      -9.407   1.075 -33.070  1.00  0.00    -0.275 N 
HETATM    4  C   UNL     1      -8.610   2.178 -33.127  1.00  0.00     0.132 A 
HETATM    5  C   UNL     1      -7.327   1.724 -33.388  1.00  0.00     0.082 A 
ENDROOT
BRANCH   5   6
HETATM    6  C   UNL     1      -6.167   2.569 -33.638  1.00  0.00     0.274 C 
HETATM    7  N   UNL     1      -5.287   2.662 -32.577  1.00  0.00    -0.263 N 
HETATM    8  H   UNL     1      -5.451   2.226 -31.674  1.00  0.00     0.190 HD
HETATM    9  O   UNL     1      -5.968   3.166 -34.694  1.00  0.00    -0.266 OA
BRANCH   7  10
HETATM   10  N   UNL     1      -4.227   3.575 -32.643  1.00  0.00    -0.262 N 
HETATM   11  C   UNL     1      -3.107   3.323 -31.879  1.00  0.00     0.286 C 
HETATM   12  O   UNL     1      -2.972   2.263 -31.264  1.00  0.00    -0.264 OA
HETATM   13  H   UNL     1      -4.440   4.494 -33.025  1.00  0.00     0.190 HD
BRANCH  11  14
HETATM   14  C   UNL     1      -2.119   4.376 -31.838  1.00  0.00     0.102 A 
HETATM   15  N   UNL     1      -1.458   4.694 -30.669  1.00  0.00    -0.361 N 
HETATM   16  H   UNL     1      -1.618   4.220 -29.787  1.00  0.00     0.165 HD
HETATM   17  C   UNL     1      -0.580   5.720 -30.882  1.00  0.00     0.088 A 
HETATM   18  C   UNL     1      -0.661   6.076 -32.208  1.00  0.00     0.019 A 
HETATM   19  C   UNL     1      -1.627   5.232 -32.812  1.00  0.00     0.036 A 
ENDBRANCH  11  14
ENDBRANCH   7  10
ENDBRANCH   5   6
BRANCH   1  20
HETATM   20  C   UNL     1      -6.449  -0.753 -33.658  1.00  0.00    -0.004 A 
HETATM   21  C   UNL     1      -6.670  -1.699 -34.674  1.00  0.00     0.016 A 
HETATM   22  C   UNL     1      -5.750  -2.723 -34.930  1.00  0.00     0.037 A 
HETATM   23  C   UNL     1      -4.586  -2.818 -34.171  1.00  0.00     0.068 A 
HETATM   24  C   UNL     1      -4.364  -1.891 -33.150  1.00  0.00     0.037 A 
HETATM   25  C   UNL     1      -5.290  -0.873 -32.888  1.00  0.00     0.016 A 
BRANCH  23  26
HETATM   26  O   UNL     1      -3.605  -3.759 -34.319  1.00  0.00    -0.356 OA
HETATM   27  C   UNL     1      -3.737  -4.948 -33.551  1.00  0.00     0.210 C 
ENDBRANCH  23  26
ENDBRANCH   1  20
BRANCH   3  28
HETATM   28  C   UNL     1     -10.858   1.052 -32.935  1.00  0.00     0.189 C 
BRANCH  28  29
HETATM   29  C   UNL     1     -11.497   2.157 -33.741  1.00  0.00    -0.038 A 
HETATM   30  C   UNL     1     -11.871   3.361 -33.122  1.00  0.00     0.009 A 
HETATM   31  C   UNL     1     -12.483   4.378 -33.856  1.00  0.00     0.001 A 
HETATM   32  C   UNL     1     -12.722   4.207 -35.217  1.00  0.00     0.000 A 
HETATM   33  C   UNL     1     -12.350   3.019 -35.845  1.00  0.00     0.001 A 
HETATM   34  C   UNL     1     -11.740   1.999 -35.113  1.00  0.00     0.009 A 
ENDBRANCH  28  29
ENDBRANCH   3  28
TORSDOF 7
ENDMDL
MODEL 4
REMARK VINA RESULT:      -8.7      2.219      6.078
REMARK  7 active torsions:
REMARK  status: ('A' for Active; 'I' for Inactive)
REMARK    1  A    between atoms: O_2  and  C_3 
REMARK    2  A    between atoms: C_6  and  C_7 
REMARK    3  A    between atoms: N_9  and  C_10 
REMARK    4  A    between atoms: C_10  and  C_11 
REMARK    5  A    between atoms: C_18  and  C_19 
REMARK       I    between atoms: C_19  and  N_20 
REMARK    6  A    between atoms: N_20  and  N_21 
REMARK       I    between atoms: N_21  and  C_22 
REMARK    7  A    between atoms: C_22  and  C_23 
ROOT
HETATM    1  C   UNL     1      -4.541   1.345 -32.261  1.00  0.00     0.104 A 
HETATM    2  N   UNL     1      -3.574   0.416 -32.400  1.00  0.00    -0.171 NA
HETATM    3  N   UNL     1      -4.152  -0.744 -32.061  1.00  0.00    -0.275 N 
HETATM    4  C   UNL     1      -5.428  -0.596 -31.612  1.00  0.00     0.132 A 
HETATM    5  C   UNL     1      -5.744   0.746 -31.754  1.00  0.00     0.082 A 
ENDROOT
BRANCH   5   6
HETATM    6  C   UNL     1      -7.049   1.339 -31.497  1.00  0.00     0.274 C 
HETATM    7  N   UNL     1      -8.114   0.619 -32.002  1.00  0.00    -0.263 N 
HETATM    8  H   UNL     1      -8.007  -0.227 -32.555  1.00  0.00     0.190 HD
HETATM    9  O   UNL     1      -7.216   2.394 -30.889  1.00  0.00    -0.266 OA
BRANCH   7  10
HETATM   10  N   UNL     1      -9.399   1.175 -31.962  1.00  0.00    -0.262 N 
HETATM   11  C   UNL     1     -10.023   1.451 -33.160  1.00  0.00     0.286 C 
HETATM   12  O   UNL     1      -9.537   1.097 -34.236  1.00  0.00    -0.264 OA
HETATM   13  H   UNL     1      -9.688   1.592 -31.080  1.00  0.00     0.190 HD
BRANCH  11  14
HETATM   14  C   UNL     1     -11.264   2.187 -33.073  1.00  0.00     0.102 A 
HETATM   15  N   UNL     1     -12.484   1.548 -33.166  1.00  0.00    -0.361 N 
HETATM   16  H   UNL     1     -12.586   0.548 -33.296  1.00  0.00     0.165 HD
HETATM   17  C   UNL     1     -13.503   2.453 -33.059  1.00  0.00     0.088 A 
HETATM   18  C   UNL     1     -12.947   3.698 -32.888  1.00  0.00     0.019 A 
HETATM   19  C   UNL     1     -11.539   3.534 -32.895  1.00  0.00     0.036 A 
ENDBRANCH  11  14
ENDBRANCH   7  10
ENDBRANCH   5   6
BRANCH   1  20
HETATM   20  C   UNL     1      -4.241   2.735 -32.627  1.00  0.00    -0.004 A 
HETATM   21  C   UNL     1      -3.055   3.330 -32.160  1.00  0.00     0.016 A 
HETATM   22  C   UNL     1      -2.734   4.657 -32.470  1.00  0.00     0.037 A 
HETATM   23  C   UNL     1      -3.596   5.416 -33.257  1.00  0.00     0.068 A 
HETATM   24  C   UNL     1      -4.782   4.839 -33.715  1.00  0.00     0.037 A 
HETATM   25  C   UNL     1      -5.108   3.514 -33.396  1.00  0.00     0.016 A 
BRANCH  23  26
HETATM   26  O   UNL     1      -3.401   6.714 -33.640  1.00  0.00    -0.356 OA
HETATM   27  C   UNL     1      -2.052   7.153 -33.749  1.00  0.00     0.210 C 
ENDBRANCH  23  26
ENDBRANCH   1  20
BRANCH   3  28
HETATM   28  C   UNL     1      -3.421  -1.995 -32.218  1.00  0.00     0.189 C 
BRANCH  28  29
HETATM   29  C   UNL     1      -4.118  -2.914 -33.194  1.00  0.00    -0.038 A 
HETATM   30  C   UNL     1      -3.816  -4.285 -33.216  1.00  0.00     0.009 A 
HETATM   31  C   UNL     1      -4.439  -5.136 -34.129  1.00  0.00     0.001 A 
HETATM   32  C   UNL     1      -5.376  -4.629 -35.025  1.00  0.00     0.000 A 
HETATM   33  C   UNL     1      -5.690  -3.270 -35.010  1.00  0.00     0.001 A 
HETATM   34  C   UNL     1      -5.066  -2.416 -34.099  1.00  0.00     0.009 A 
ENDBRANCH  28  29
ENDBRANCH   3  28
TORSDOF 7
ENDMDL
MODEL 5
REMARK VINA RESULT:      -8.4      2.434      5.977
REMARK  7 active torsions:
REMARK  status: ('A' for Active; 'I' for Inactive)
REMARK    1  A    between atoms: O_2  and  C_3 
REMARK    2  A    between atoms: C_6  and  C_7 
REMARK    3  A    between atoms: N_9  and  C_10 
REMARK    4  A    between atoms: C_10  and  C_11 
REMARK    5  A    between atoms: C_18  and  C_19 
REMARK       I    between atoms: C_19  and  N_20 
REMARK    6  A    between atoms: N_20  and  N_21 
REMARK       I    between atoms: N_21  and  C_22 
REMARK    7  A    between atoms: C_22  and  C_23 
ROOT
HETATM    1  C   UNL     1      -5.493   1.882 -31.682  1.00  0.00     0.104 A 
HETATM    2  N   UNL     1      -4.255   1.352 -31.725  1.00  0.00    -0.171 NA
HETATM    3  N   UNL     1      -4.437   0.028 -31.636  1.00  0.00    -0.275 N 
HETATM    4  C   UNL     1      -5.738  -0.322 -31.436  1.00  0.00     0.132 A 
HETATM    5  C   UNL     1      -6.475   0.851 -31.492  1.00  0.00     0.082 A 
ENDROOT
BRANCH   5   6
HETATM    6  C   UNL     1      -7.927   0.939 -31.436  1.00  0.00     0.274 C 
HETATM    7  N   UNL     1      -8.588  -0.032 -32.164  1.00  0.00    -0.263 N 
HETATM    8  H   UNL     1      -8.112  -0.722 -32.738  1.00  0.00     0.190 HD
HETATM    9  O   UNL     1      -8.539   1.799 -30.807  1.00  0.00    -0.266 OA
BRANCH   7  10
HETATM   10  N   UNL     1      -9.977   0.054 -32.320  1.00  0.00    -0.262 N 
HETATM   11  C   UNL     1     -10.465   0.670 -33.454  1.00  0.00     0.286 C 
HETATM   12  O   UNL     1      -9.718   1.012 -34.372  1.00  0.00    -0.264 OA
HETATM   13  H   UNL     1     -10.540  -0.090 -31.485  1.00  0.00     0.190 HD
BRANCH  11  14
HETATM   14  C   UNL     1     -11.891   0.897 -33.487  1.00  0.00     0.102 A 
HETATM   15  N   UNL     1     -12.435   2.104 -33.096  1.00  0.00    -0.361 N 
HETATM   16  H   UNL     1     -11.883   2.889 -32.771  1.00  0.00     0.165 HD
HETATM   17  C   UNL     1     -13.797   2.072 -33.213  1.00  0.00     0.088 A 
HETATM   18  C   UNL     1     -14.151   0.833 -33.691  1.00  0.00     0.019 A 
HETATM   19  C   UNL     1     -12.955   0.092 -33.866  1.00  0.00     0.036 A 
ENDBRANCH  11  14
ENDBRANCH   7  10
ENDBRANCH   5   6
BRANCH   1  20
HETATM   20  C   UNL     1      -5.644   3.336 -31.826  1.00  0.00    -0.004 A 
HETATM   21  C   UNL     1      -6.080   3.865 -33.054  1.00  0.00     0.016 A 
HETATM   22  C   UNL     1      -6.225   5.244 -33.243  1.00  0.00     0.037 A 
HETATM   23  C   UNL     1      -5.936   6.124 -32.202  1.00  0.00     0.068 A 
HETATM   24  C   UNL     1      -5.489   5.609 -30.984  1.00  0.00     0.037 A 
HETATM   25  C   UNL     1      -5.335   4.229 -30.798  1.00  0.00     0.016 A 
BRANCH  23  26
HETATM   26  O   UNL     1      -6.042   7.486 -32.249  1.00  0.00    -0.356 OA
HETATM   27  C   UNL     1      -7.321   8.039 -31.965  1.00  0.00     0.210 C 
ENDBRANCH  23  26
ENDBRANCH   1  20
BRANCH   3  28
HETATM   28  C   UNL     1      -3.303  -0.875 -31.781  1.00  0.00     0.189 C 
BRANCH  28  29
HETATM   29  C   UNL     1      -3.656  -2.059 -32.648  1.00  0.00    -0.038 A 
HETATM   30  C   UNL     1      -3.210  -3.346 -32.307  1.00  0.00     0.009 A 
HETATM   31  C   UNL     1      -3.514  -4.442 -33.116  1.00  0.00     0.001 A 
HETATM   32  C   UNL     1      -4.272  -4.266 -34.270  1.00  0.00     0.000 A 
HETATM   33  C   UNL     1      -4.727  -2.994 -34.618  1.00  0.00     0.001 A 
HETATM   34  C   UNL     1      -4.422  -1.895 -33.812  1.00  0.00     0.009 A 
ENDBRANCH  28  29
ENDBRANCH   3  28
TORSDOF 7
ENDMDL
MODEL 6
REMARK VINA RESULT:      -8.3      3.778      6.664
REMARK  7 active torsions:
REMARK  status: ('A' for Active; 'I' for Inactive)
REMARK    1  A    between atoms: O_2  and  C_3 
REMARK    2  A    between atoms: C_6  and  C_7 
REMARK    3  A    between atoms: N_9  and  C_10 
REMARK    4  A    between atoms: C_10  and  C_11 
REMARK    5  A    between atoms: C_18  and  C_19 
REMARK       I    between atoms: C_19  and  N_20 
REMARK    6  A    between atoms: N_20  and  N_21 
REMARK       I    between atoms: N_21  and  C_22 
REMARK    7  A    between atoms: C_22  and  C_23 
ROOT
HETATM    1  C   UNL     1      -5.875   3.277 -32.473  1.00  0.00     0.104 A 
HETATM    2  N   UNL     1      -5.479   2.047 -32.092  1.00  0.00    -0.171 NA
HETATM    3  N   UNL     1      -6.606   1.401 -31.764  1.00  0.00    -0.275 N 
HETATM    4  C   UNL     1      -7.712   2.193 -31.820  1.00  0.00     0.132 A 
HETATM    5  C   UNL     1      -7.295   3.420 -32.310  1.00  0.00     0.082 A 
ENDROOT
BRANCH   5   6
HETATM    6  C   UNL     1      -8.167   4.540 -32.636  1.00  0.00     0.274 C 
HETATM    7  N   UNL     1      -8.353   4.746 -33.989  1.00  0.00    -0.263 N 
HETATM    8  H   UNL     1      -7.884   4.203 -34.708  1.00  0.00     0.190 HD
HETATM    9  O   UNL     1      -8.700   5.262 -31.796  1.00  0.00    -0.266 OA
BRANCH   7  10
HETATM   10  N   UNL     1      -9.034   5.892 -34.422  1.00  0.00    -0.262 N 
HETATM   11  C   UNL     1     -10.171   5.720 -35.183  1.00  0.00     0.286 C 
HETATM   12  O   UNL     1     -10.662   4.604 -35.366  1.00  0.00    -0.264 OA
HETATM   13  H   UNL     1      -8.519   6.768 -34.388  1.00  0.00     0.190 HD
BRANCH  11  14
HETATM   14  C   UNL     1     -10.735   6.920 -35.756  1.00  0.00     0.102 A 
HETATM   15  N   UNL     1      -9.970   7.779 -36.518  1.00  0.00    -0.361 N 
HETATM   16  H   UNL     1      -8.989   7.627 -36.721  1.00  0.00     0.165 HD
HETATM   17  C   UNL     1     -10.724   8.838 -36.942  1.00  0.00     0.088 A 
HETATM   18  C   UNL     1     -11.999   8.669 -36.459  1.00  0.00     0.019 A 
HETATM   19  C   UNL     1     -12.011   7.464 -35.713  1.00  0.00     0.036 A 
ENDBRANCH  11  14
ENDBRANCH   7  10
ENDBRANCH   5   6
BRANCH   1  20
HETATM   20  C   UNL     1      -4.865   4.223 -32.964  1.00  0.00    -0.004 A 
HETATM   21  C   UNL     1      -4.815   4.529 -34.336  1.00  0.00     0.016 A 
HETATM   22  C   UNL     1      -3.861   5.413 -34.852  1.00  0.00     0.037 A 
HETATM   23  C   UNL     1      -2.936   6.013 -34.002  1.00  0.00     0.068 A 
HETATM   24  C   UNL     1      -2.968   5.705 -32.640  1.00  0.00     0.037 A 
HETATM   25  C   UNL     1      -3.916   4.813 -32.125  1.00  0.00     0.016 A 
BRANCH  23  26
HETATM   26  O   UNL     1      -1.960   6.897 -34.371  1.00  0.00    -0.356 OA
HETATM   27  C   UNL     1      -0.960   7.189 -33.402  1.00  0.00     0.210 C 
ENDBRANCH  23  26
ENDBRANCH   1  20
BRANCH   3  28
HETATM   28  C   UNL     1      -6.561  -0.015 -31.423  1.00  0.00     0.189 C 
BRANCH  28  29
HETATM   29  C   UNL     1      -6.198  -0.854 -32.625  1.00  0.00    -0.038 A 
HETATM   30  C   UNL     1      -4.898  -1.365 -32.766  1.00  0.00     0.009 A 
HETATM   31  C   UNL     1      -4.549  -2.122 -33.884  1.00  0.00     0.001 A 
HETATM   32  C   UNL     1      -5.495  -2.382 -34.872  1.00  0.00     0.000 A 
HETATM   33  C   UNL     1      -6.792  -1.885 -34.742  1.00  0.00     0.001 A 
HETATM   34  C   UNL     1      -7.143  -1.125 -33.625  1.00  0.00     0.009 A 
ENDBRANCH  28  29
ENDBRANCH   3  28
TORSDOF 7
ENDMDL
MODEL 7
REMARK VINA RESULT:      -8.2      1.734      2.772
REMARK  7 active torsions:
REMARK  status: ('A' for Active; 'I' for Inactive)
REMARK    1  A    between atoms: O_2  and  C_3 
REMARK    2  A    between atoms: C_6  and  C_7 
REMARK    3  A    between atoms: N_9  and  C_10 
REMARK    4  A    between atoms: C_10  and  C_11 
REMARK    5  A    between atoms: C_18  and  C_19 
REMARK       I    between atoms: C_19  and  N_20 
REMARK    6  A    between atoms: N_20  and  N_21 
REMARK       I    between atoms: N_21  and  C_22 
REMARK    7  A    between atoms: C_22  and  C_23 
ROOT
HETATM    1  C   UNL     1      -5.895   1.113 -33.285  1.00  0.00     0.104 A 
HETATM    2  N   UNL     1      -4.904   1.986 -33.015  1.00  0.00    -0.171 NA
HETATM    3  N   UNL     1      -5.522   3.131 -32.698  1.00  0.00    -0.275 N 
HETATM    4  C   UNL     1      -6.874   3.069 -32.847  1.00  0.00     0.132 A 
HETATM    5  C   UNL     1      -7.173   1.761 -33.196  1.00  0.00     0.082 A 
ENDROOT
BRANCH   5   6
HETATM    6  C   UNL     1      -8.514   1.214 -33.352  1.00  0.00     0.274 C 
HETATM    7  N   UNL     1      -9.267   1.818 -34.340  1.00  0.00    -0.263 N 
HETATM    8  H   UNL     1      -8.945   2.614 -34.883  1.00  0.00     0.190 HD
HETATM    9  O   UNL     1      -8.964   0.296 -32.669  1.00  0.00    -0.266 OA
BRANCH   7  10
HETATM   10  N   UNL     1     -10.623   1.489 -34.466  1.00  0.00    -0.262 N 
HETATM   11  C   UNL     1     -11.537   2.216 -33.733  1.00  0.00     0.286 C 
HETATM   12  O   UNL     1     -11.201   3.215 -33.094  1.00  0.00    -0.264 OA
HETATM   13  H   UNL     1     -10.836   0.578 -34.866  1.00  0.00     0.190 HD
BRANCH  11  14
HETATM   14  C   UNL     1     -12.897   1.729 -33.754  1.00  0.00     0.102 A 
HETATM   15  N   UNL     1     -13.790   2.053 -32.753  1.00  0.00    -0.361 N 
HETATM   16  H   UNL     1     -13.556   2.640 -31.960  1.00  0.00     0.165 HD
HETATM   17  C   UNL     1     -15.004   1.472 -32.992  1.00  0.00     0.088 A 
HETATM   18  C   UNL     1     -14.909   0.764 -34.167  1.00  0.00     0.019 A 
HETATM   19  C   UNL     1     -13.586   0.924 -34.649  1.00  0.00     0.036 A 
ENDBRANCH  11  14
ENDBRANCH   7  10
ENDBRANCH   5   6
BRANCH   1  20
HETATM   20  C   UNL     1      -5.543  -0.276 -33.607  1.00  0.00    -0.004 A 
HETATM   21  C   UNL     1      -6.316  -0.984 -34.544  1.00  0.00     0.016 A 
HETATM   22  C   UNL     1      -6.028  -2.314 -34.872  1.00  0.00     0.037 A 
HETATM   23  C   UNL     1      -4.955  -2.963 -34.266  1.00  0.00     0.068 A 
HETATM   24  C   UNL     1      -4.190  -2.274 -33.324  1.00  0.00     0.037 A 
HETATM   25  C   UNL     1      -4.484  -0.946 -32.989  1.00  0.00     0.016 A 
BRANCH  23  26
HETATM   26  O   UNL     1      -4.560  -4.252 -34.499  1.00  0.00    -0.356 OA
HETATM   27  C   UNL     1      -3.488  -4.746 -33.706  1.00  0.00     0.210 C 
ENDBRANCH  23  26
ENDBRANCH   1  20
BRANCH   3  28
HETATM   28  C   UNL     1      -4.748   4.270 -32.222  1.00  0.00     0.189 C 
BRANCH  28  29
HETATM   29  C   UNL     1      -5.481   5.008 -31.128  1.00  0.00    -0.038 A 
HETATM   30  C   UNL     1      -5.586   4.449 -29.844  1.00  0.00     0.009 A 
HETATM   31  C   UNL     1      -6.281   5.115 -28.833  1.00  0.00     0.001 A 
HETATM   32  C   UNL     1      -6.873   6.348 -29.092  1.00  0.00     0.000 A 
HETATM   33  C   UNL     1      -6.771   6.917 -30.361  1.00  0.00     0.001 A 
HETATM   34  C   UNL     1      -6.079   6.252 -31.375  1.00  0.00     0.009 A 
ENDBRANCH  28  29
ENDBRANCH   3  28
TORSDOF 7
ENDMDL
MODEL 8
REMARK VINA RESULT:      -8.2      3.697      9.135
REMARK  7 active torsions:
REMARK  status: ('A' for Active; 'I' for Inactive)
REMARK    1  A    between atoms: O_2  and  C_3 
REMARK    2  A    between atoms: C_6  and  C_7 
REMARK    3  A    between atoms: N_9  and  C_10 
REMARK    4  A    between atoms: C_10  and  C_11 
REMARK    5  A    between atoms: C_18  and  C_19 
REMARK       I    between atoms: C_19  and  N_20 
REMARK    6  A    between atoms: N_20  and  N_21 
REMARK       I    between atoms: N_21  and  C_22 
REMARK    7  A    between atoms: C_22  and  C_23 
ROOT
HETATM    1  C   UNL     1      -6.390   1.380 -32.699  1.00  0.00     0.104 A 
HETATM    2  N   UNL     1      -7.024   0.550 -33.551  1.00  0.00    -0.171 NA
HETATM    3  N   UNL     1      -6.077  -0.282 -34.003  1.00  0.00    -0.275 N 
HETATM    4  C   UNL     1      -4.830   0.034 -33.556  1.00  0.00     0.132 A 
HETATM    5  C   UNL     1      -4.983   1.092 -32.673  1.00  0.00     0.082 A 
ENDROOT
BRANCH   5   6
HETATM    6  C   UNL     1      -3.920   1.686 -31.874  1.00  0.00     0.274 C 
HETATM    7  N   UNL     1      -4.001   3.058 -31.743  1.00  0.00    -0.263 N 
HETATM    8  H   UNL     1      -4.707   3.625 -32.205  1.00  0.00     0.190 HD
HETATM    9  O   UNL     1      -3.012   1.042 -31.353  1.00  0.00    -0.266 OA
BRANCH   7  10
HETATM   10  N   UNL     1      -2.945   3.753 -31.139  1.00  0.00    -0.262 N 
HETATM   11  C   UNL     1      -2.327   4.750 -31.865  1.00  0.00     0.286 C 
HETATM   12  O   UNL     1      -2.768   5.122 -32.954  1.00  0.00    -0.264 OA
HETATM   13  H   UNL     1      -2.519   3.317 -30.325  1.00  0.00     0.190 HD
BRANCH  11  14
HETATM   14  C   UNL     1      -1.134   5.314 -31.276  1.00  0.00     0.102 A 
HETATM   15  N   UNL     1      -0.580   4.783 -30.129  1.00  0.00    -0.361 N 
HETATM   16  H   UNL     1      -0.964   3.983 -29.639  1.00  0.00     0.165 HD
HETATM   17  C   UNL     1       0.534   5.488 -29.768  1.00  0.00     0.088 A 
HETATM   18  C   UNL     1       0.718   6.489 -30.693  1.00  0.00     0.019 A 
HETATM   19  C   UNL     1      -0.328   6.381 -31.643  1.00  0.00     0.036 A 
ENDBRANCH  11  14
ENDBRANCH   7  10
ENDBRANCH   5   6
BRANCH   1  20
HETATM   20  C   UNL     1      -7.178   2.384 -31.973  1.00  0.00    -0.004 A 
HETATM   21  C   UNL     1      -7.758   3.451 -32.683  1.00  0.00     0.016 A 
HETATM   22  C   UNL     1      -8.505   4.439 -32.033  1.00  0.00     0.037 A 
HETATM   23  C   UNL     1      -8.688   4.378 -30.653  1.00  0.00     0.068 A 
HETATM   24  C   UNL     1      -8.105   3.331 -29.937  1.00  0.00     0.037 A 
HETATM   25  C   UNL     1      -7.349   2.347 -30.587  1.00  0.00     0.016 A 
BRANCH  23  26
HETATM   26  O   UNL     1      -9.399   5.269 -29.897  1.00  0.00    -0.356 OA
HETATM   27  C   UNL     1      -8.652   6.094 -29.010  1.00  0.00     0.210 C 
ENDBRANCH  23  26
ENDBRANCH   1  20
BRANCH   3  28
HETATM   28  C   UNL     1      -6.439  -1.404 -34.859  1.00  0.00     0.189 C 
BRANCH  28  29
HETATM   29  C   UNL     1      -5.626  -2.631 -34.521  1.00  0.00    -0.038 A 
HETATM   30  C   UNL     1      -6.058  -3.902 -34.931  1.00  0.00     0.009 A 
HETATM   31  C   UNL     1      -5.324  -5.043 -34.604  1.00  0.00     0.001 A 
HETATM   32  C   UNL     1      -4.147  -4.926 -33.870  1.00  0.00     0.000 A 
HETATM   33  C   UNL     1      -3.703  -3.668 -33.462  1.00  0.00     0.001 A 
HETATM   34  C   UNL     1      -4.437  -2.526 -33.785  1.00  0.00     0.009 A 
ENDBRANCH  28  29
ENDBRANCH   3  28
TORSDOF 7
ENDMDL
MODEL 9
REMARK VINA RESULT:      -8.1      3.242      8.566
REMARK  7 active torsions:
REMARK  status: ('A' for Active; 'I' for Inactive)
REMARK    1  A    between atoms: O_2  and  C_3 
REMARK    2  A    between atoms: C_6  and  C_7 
REMARK    3  A    between atoms: N_9  and  C_10 
REMARK    4  A    between atoms: C_10  and  C_11 
REMARK    5  A    between atoms: C_18  and  C_19 
REMARK       I    between atoms: C_19  and  N_20 
REMARK    6  A    between atoms: N_20  and  N_21 
REMARK       I    between atoms: N_21  and  C_22 
REMARK    7  A    between atoms: C_22  and  C_23 
ROOT
HETATM    1  C   UNL     1      -5.724   0.651 -32.589  1.00  0.00     0.104 A 
HETATM    2  N   UNL     1      -5.398  -0.648 -32.732  1.00  0.00    -0.171 NA
HETATM    3  N   UNL     1      -4.077  -0.705 -32.517  1.00  0.00    -0.275 N 
HETATM    4  C   UNL     1      -3.511   0.521 -32.339  1.00  0.00     0.132 A 
HETATM    5  C   UNL     1      -4.549   1.440 -32.342  1.00  0.00     0.082 A 
ENDROOT
BRANCH   5   6
HETATM    6  C   UNL     1      -4.416   2.865 -32.076  1.00  0.00     0.274 C 
HETATM    7  N   UNL     1      -3.304   3.207 -31.331  1.00  0.00    -0.263 N 
HETATM    8  H   UNL     1      -2.654   2.525 -30.949  1.00  0.00     0.190 HD
HETATM    9  O   UNL     1      -5.216   3.713 -32.463  1.00  0.00    -0.266 OA
BRANCH   7  10
HETATM   10  N   UNL     1      -3.163   4.523 -30.873  1.00  0.00    -0.262 N 
HETATM   11  C   UNL     1      -1.940   5.139 -31.038  1.00  0.00     0.286 C 
HETATM   12  O   UNL     1      -1.036   4.612 -31.691  1.00  0.00    -0.264 OA
HETATM   13  H   UNL     1      -3.862   4.853 -30.212  1.00  0.00     0.190 HD
BRANCH  11  14
HETATM   14  C   UNL     1      -1.785   6.422 -30.393  1.00  0.00     0.102 A 
HETATM   15  N   UNL     1      -2.095   6.596 -29.059  1.00  0.00    -0.361 N 
HETATM   16  H   UNL     1      -2.441   5.854 -28.462  1.00  0.00     0.165 HD
HETATM   17  C   UNL     1      -1.869   7.891 -28.684  1.00  0.00     0.088 A 
HETATM   18  C   UNL     1      -1.400   8.573 -29.781  1.00  0.00     0.019 A 
HETATM   19  C   UNL     1      -1.344   7.652 -30.857  1.00  0.00     0.036 A 
ENDBRANCH  11  14
ENDBRANCH   7  10
ENDBRANCH   5   6
BRANCH   1  20
HETATM   20  C   UNL     1      -7.136   1.041 -32.698  1.00  0.00    -0.004 A 
HETATM   21  C   UNL     1      -7.775   0.974 -33.948  1.00  0.00     0.016 A 
HETATM   22  C   UNL     1      -9.115   1.349 -34.104  1.00  0.00     0.037 A 
HETATM   23  C   UNL     1      -9.844   1.798 -33.005  1.00  0.00     0.068 A 
HETATM   24  C   UNL     1      -9.214   1.881 -31.762  1.00  0.00     0.037 A 
HETATM   25  C   UNL     1      -7.871   1.515 -31.608  1.00  0.00     0.016 A 
BRANCH  23  26
HETATM   26  O   UNL     1     -11.155   2.185 -33.015  1.00  0.00    -0.356 OA
HETATM   27  C   UNL     1     -11.828   2.134 -34.268  1.00  0.00     0.210 C 
ENDBRANCH  23  26
ENDBRANCH   1  20
BRANCH   3  28
HETATM   28  C   UNL     1      -3.401  -1.994 -32.468  1.00  0.00     0.189 C 
BRANCH  28  29
HETATM   29  C   UNL     1      -4.082  -3.001 -33.364  1.00  0.00    -0.038 A 
HETATM   30  C   UNL     1      -3.780  -4.368 -33.252  1.00  0.00     0.009 A 
HETATM   31  C   UNL     1      -4.389  -5.302 -34.091  1.00  0.00     0.001 A 
HETATM   32  C   UNL     1      -5.310  -4.882 -35.047  1.00  0.00     0.000 A 
HETATM   33  C   UNL     1      -5.624  -3.528 -35.165  1.00  0.00     0.001 A 
HETATM   34  C   UNL     1      -5.014  -2.591 -34.328  1.00  0.00     0.009 A 
ENDBRANCH  28  29
ENDBRANCH   3  28
TORSDOF 7
ENDMDL
MODEL 10
REMARK VINA RESULT:      -8.1      2.451      6.191
REMARK  7 active torsions:
REMARK  status: ('A' for Active; 'I' for Inactive)
REMARK    1  A    between atoms: O_2  and  C_3 
REMARK    2  A    between atoms: C_6  and  C_7 
REMARK    3  A    between atoms: N_9  and  C_10 
REMARK    4  A    between atoms: C_10  and  C_11 
REMARK    5  A    between atoms: C_18  and  C_19 
REMARK       I    between atoms: C_19  and  N_20 
REMARK    6  A    between atoms: N_20  and  N_21 
REMARK       I    between atoms: N_21  and  C_22 
REMARK    7  A    between atoms: C_22  and  C_23 
ROOT
HETATM    1  C   UNL     1      -6.576   3.703 -31.850  1.00  0.00     0.104 A 
HETATM    2  N   UNL     1      -5.974   4.874 -31.565  1.00  0.00    -0.171 NA
HETATM    3  N   UNL     1      -4.742   4.545 -31.154  1.00  0.00    -0.275 N 
HETATM    4  C   UNL     1      -4.550   3.199 -31.064  1.00  0.00     0.132 A 
HETATM    5  C   UNL     1      -5.707   2.602 -31.540  1.00  0.00     0.082 A 
ENDROOT
BRANCH   5   6
HETATM    6  C   UNL     1      -5.904   1.172 -31.728  1.00  0.00     0.274 C 
HETATM    7  N   UNL     1      -5.784   0.745 -33.036  1.00  0.00    -0.263 N 
HETATM    8  H   UNL     1      -5.625   1.373 -33.819  1.00  0.00     0.190 HD
HETATM    9  O   UNL     1      -6.162   0.389 -30.816  1.00  0.00    -0.266 OA
BRANCH   7  10
HETATM   10  N   UNL     1      -6.116  -0.577 -33.359  1.00  0.00    -0.262 N 
HETATM   11  C   UNL     1      -5.103  -1.419 -33.768  1.00  0.00     0.286 C 
HETATM   12  O   UNL     1      -3.920  -1.074 -33.720  1.00  0.00    -0.264 OA
HETATM   13  H   UNL     1      -7.099  -0.770 -33.538  1.00  0.00     0.190 HD
BRANCH  11  14
HETATM   14  C   UNL     1      -5.514  -2.712 -34.262  1.00  0.00     0.102 A 
HETATM   15  N   UNL     1      -4.638  -3.778 -34.298  1.00  0.00    -0.361 N 
HETATM   16  H   UNL     1      -3.675  -3.724 -33.988  1.00  0.00     0.165 HD
HETATM   17  C   UNL     1      -5.257  -4.886 -34.807  1.00  0.00     0.088 A 
HETATM   18  C   UNL     1      -6.556  -4.545 -35.102  1.00  0.00     0.019 A 
HETATM   19  C   UNL     1      -6.722  -3.180 -34.759  1.00  0.00     0.036 A 
ENDBRANCH  11  14
ENDBRANCH   7  10
ENDBRANCH   5   6
BRANCH   1  20
HETATM   20  C   UNL     1      -7.938   3.726 -32.399  1.00  0.00    -0.004 A 
HETATM   21  C   UNL     1      -9.012   3.303 -31.595  1.00  0.00     0.016 A 
HETATM   22  C   UNL     1     -10.326   3.294 -32.079  1.00  0.00     0.037 A 
HETATM   23  C   UNL     1     -10.590   3.710 -33.382  1.00  0.00     0.068 A 
HETATM   24  C   UNL     1      -9.529   4.117 -34.192  1.00  0.00     0.037 A 
HETATM   25  C   UNL     1      -8.214   4.118 -33.711  1.00  0.00     0.016 A 
BRANCH  23  26
HETATM   26  O   UNL     1     -11.822   3.757 -33.975  1.00  0.00    -0.356 OA
HETATM   27  C   UNL     1     -12.816   2.881 -33.458  1.00  0.00     0.210 C 
ENDBRANCH  23  26
ENDBRANCH   1  20
BRANCH   3  28
HETATM   28  C   UNL     1      -3.761   5.587 -30.880  1.00  0.00     0.189 C 
BRANCH  28  29
HETATM   29  C   UNL     1      -2.887   5.841 -32.085  1.00  0.00    -0.038 A 
HETATM   30  C   UNL     1      -2.573   4.793 -32.966  1.00  0.00     0.009 A 
HETATM   31  C   UNL     1      -1.747   5.015 -34.069  1.00  0.00     0.001 A 
HETATM   32  C   UNL     1      -1.232   6.286 -34.308  1.00  0.00     0.000 A 
HETATM   33  C   UNL     1      -1.540   7.337 -33.444  1.00  0.00     0.001 A 
HETATM   34  C   UNL     1      -2.364   7.117 -32.338  1.00  0.00     0.009 A 
ENDBRANCH  28  29
ENDBRANCH   3  28
TORSDOF 7
ENDMDL
