MODEL 1
REMARK VINA RESULT:     -10.2      0.000      0.000
REMARK  6 active torsions:
REMARK  status: ('A' for Active; 'I' for Inactive)
REMARK    1  A    between atoms: C_6  and  C_7 
REMARK    2  A    between atoms: C_7  and  N_8 
REMARK    3  A    between atoms: C_12  and  C_13 
REMARK    4  A    between atoms: C_13  and  C_14 
REMARK    5  A    between atoms: N_23  and  C_24 
REMARK    6  A    between atoms: C_24  and  C_25 
ROOT
HETATM    1  C   UNL     1      -5.865  -0.719 -33.568  1.00  0.00     0.164 C 
HETATM    2  N   UNL     1      -6.638  -0.580 -32.348  1.00  0.00    -0.319 N 
HETATM    3  C   UNL     1      -5.865  -0.130 -31.298  1.00  0.00     0.326 C 
HETATM    4  O   UNL     1      -6.292  -0.059 -30.160  1.00  0.00    -0.247 OA
HETATM    5  N   UNL     1      -4.627   0.178 -31.758  1.00  0.00    -0.265 N 
HETATM    6  C   UNL     1      -4.479  -0.262 -33.047  1.00  0.00     0.263 C 
HETATM    7  O   UNL     1      -3.441  -0.260 -33.692  1.00  0.00    -0.270 OA
HETATM    8  H   UNL     1      -7.420  -1.179 -32.110  1.00  0.00     0.166 HD
ENDROOT
BRANCH   1   9
HETATM    9  C   UNL     1      -6.334   0.305 -34.681  1.00  0.00     0.033 C 
HETATM   10  C   UNL     1      -6.257   1.800 -34.285  1.00  0.00     0.036 C 
HETATM   11  C   UNL     1      -7.351   2.269 -33.330  1.00  0.00     0.235 C 
HETATM   12  N   UNL     1      -8.713   1.961 -33.911  1.00  0.00    -0.067 N 
HETATM   13  H   UNL     1      -8.817   2.563 -34.736  1.00  0.00     0.280 HD
HETATM   14  C   UNL     1      -8.877   0.529 -34.356  1.00  0.00     0.235 C 
HETATM   15  C   UNL     1      -7.746   0.092 -35.268  1.00  0.00     0.036 C 
BRANCH  12  16
HETATM   16  C   UNL     1      -9.866   2.317 -32.977  1.00  0.00     0.273 C 
BRANCH  16  17
HETATM   17  C   UNL     1     -11.242   1.872 -33.399  1.00  0.00    -0.027 A 
HETATM   18  C   UNL     1     -12.199   2.787 -33.894  1.00  0.00    -0.054 A 
HETATM   19  C   UNL     1     -13.471   2.320 -34.266  1.00  0.00     0.014 A 
HETATM   20  C   UNL     1     -11.919   4.263 -34.029  1.00  0.00     0.049 C 
HETATM   21  C   UNL     1     -13.816   0.971 -34.141  1.00  0.00    -0.061 A 
HETATM   22  C   UNL     1     -15.178   0.504 -34.567  1.00  0.00     0.048 C 
HETATM   23  C   UNL     1     -12.868   0.072 -33.651  1.00  0.00     0.007 A 
HETATM   24  C   UNL     1     -11.600   0.517 -33.273  1.00  0.00     0.010 A 
ENDBRANCH  16  17
ENDBRANCH  12  16
ENDBRANCH   1   9
BRANCH   1  25
HETATM   25  C   UNL     1      -5.797  -2.189 -33.995  1.00  0.00     0.072 A 
HETATM   26  N   UNL     1      -4.598  -2.818 -33.924  1.00  0.00    -0.262 NA
HETATM   27  C   UNL     1      -4.526  -4.108 -34.330  1.00  0.00     0.117 A 
HETATM   28  C   UNL     1      -5.598  -4.813 -34.842  1.00  0.00     0.019 A 
HETATM   29  C   UNL     1      -6.819  -4.163 -34.938  1.00  0.00     0.003 A 
HETATM   30  C   UNL     1      -6.923  -2.841 -34.513  1.00  0.00     0.030 A 
ENDBRANCH   1  25
BRANCH   5  31
HETATM   31  C   UNL     1      -3.560   0.746 -30.947  1.00  0.00     0.168 C 
BRANCH  31  32
HETATM   32  C   UNL     1      -3.429   2.261 -31.143  1.00  0.00     0.140 C 
HETATM   33  O   UNL     1      -2.946   2.574 -32.469  1.00  0.00    -0.384 OA
HETATM   34  C   UNL     1      -3.482   3.864 -32.829  1.00  0.00     0.168 C 
HETATM   35  C   UNL     1      -4.403   4.307 -31.708  1.00  0.00     0.029 C 
HETATM   36  C   UNL     1      -4.746   3.006 -31.025  1.00  0.00     0.036 C 
ENDBRANCH  31  32
ENDBRANCH   5  31
TORSDOF 6
ENDMDL
MODEL 2
REMARK VINA RESULT:     -10.0      2.123      5.485
REMARK  6 active torsions:
REMARK  status: ('A' for Active; 'I' for Inactive)
REMARK    1  A    between atoms: C_6  and  C_7 
REMARK    2  A    between atoms: C_7  and  N_8 
REMARK    3  A    between atoms: C_12  and  C_13 
REMARK    4  A    between atoms: C_13  and  C_14 
REMARK    5  A    between atoms: N_23  and  C_24 
REMARK    6  A    between atoms: C_24  and  C_25 
ROOT
HETATM    1  C   UNL     1      -7.004   1.871 -32.618  1.00  0.00     0.164 C 
HETATM    2  N   UNL     1      -7.432   1.627 -33.983  1.00  0.00    -0.319 N 
HETATM    3  C   UNL     1      -6.690   0.633 -34.585  1.00  0.00     0.326 C 
HETATM    4  O   UNL     1      -6.809   0.356 -35.765  1.00  0.00    -0.247 OA
HETATM    5  N   UNL     1      -5.858   0.081 -33.666  1.00  0.00    -0.265 N 
HETATM    6  C   UNL     1      -5.863   0.827 -32.517  1.00  0.00     0.263 C 
HETATM    7  O   UNL     1      -5.120   0.674 -31.558  1.00  0.00    -0.270 OA
HETATM    8  H   UNL     1      -7.798   2.350 -34.592  1.00  0.00     0.166 HD
ENDROOT
BRANCH   1   9
HETATM    9  C   UNL     1      -8.124   1.478 -31.570  1.00  0.00     0.033 C 
HETATM   10  C   UNL     1      -9.109   0.376 -32.032  1.00  0.00     0.036 C 
HETATM   11  C   UNL     1     -10.155   0.833 -33.046  1.00  0.00     0.235 C 
HETATM   12  N   UNL     1     -10.925   2.014 -32.499  1.00  0.00    -0.067 N 
HETATM   13  H   UNL     1     -11.473   1.659 -31.708  1.00  0.00     0.280 HD
HETATM   14  C   UNL     1     -10.048   3.133 -31.995  1.00  0.00     0.235 C 
HETATM   15  C   UNL     1      -8.997   2.628 -31.025  1.00  0.00     0.036 C 
BRANCH  12  16
HETATM   16  C   UNL     1     -11.933   2.592 -33.489  1.00  0.00     0.273 C 
BRANCH  16  17
HETATM   17  C   UNL     1     -13.374   2.614 -33.052  1.00  0.00    -0.027 A 
HETATM   18  C   UNL     1     -14.242   1.526 -33.300  1.00  0.00    -0.054 A 
HETATM   19  C   UNL     1     -15.580   1.602 -32.879  1.00  0.00     0.014 A 
HETATM   20  C   UNL     1     -13.796   0.278 -34.020  1.00  0.00     0.049 C 
HETATM   21  C   UNL     1     -16.076   2.738 -32.233  1.00  0.00    -0.061 A 
HETATM   22  C   UNL     1     -17.507   2.776 -31.778  1.00  0.00     0.048 C 
HETATM   23  C   UNL     1     -15.216   3.810 -31.991  1.00  0.00     0.007 A 
HETATM   24  C   UNL     1     -13.884   3.755 -32.405  1.00  0.00     0.010 A 
ENDBRANCH  16  17
ENDBRANCH  12  16
ENDBRANCH   1   9
BRANCH   1  25
HETATM   25  C   UNL     1      -6.425   3.284 -32.482  1.00  0.00     0.072 A 
HETATM   26  N   UNL     1      -5.806   3.609 -31.320  1.00  0.00    -0.262 NA
HETATM   27  C   UNL     1      -5.321   4.866 -31.184  1.00  0.00     0.117 A 
HETATM   28  C   UNL     1      -5.446   5.847 -32.149  1.00  0.00     0.019 A 
HETATM   29  C   UNL     1      -6.100   5.522 -33.327  1.00  0.00     0.003 A 
HETATM   30  C   UNL     1      -6.595   4.232 -33.499  1.00  0.00     0.030 A 
ENDBRANCH   1  25
BRANCH   5  31
HETATM   31  C   UNL     1      -4.970  -1.043 -33.922  1.00  0.00     0.168 C 
BRANCH  31  32
HETATM   32  C   UNL     1      -5.663  -2.157 -34.714  1.00  0.00     0.140 C 
HETATM   33  O   UNL     1      -4.794  -3.303 -34.870  1.00  0.00    -0.384 OA
HETATM   34  C   UNL     1      -5.634  -4.472 -34.956  1.00  0.00     0.168 C 
HETATM   35  C   UNL     1      -7.069  -4.022 -34.752  1.00  0.00     0.029 C 
HETATM   36  C   UNL     1      -6.905  -2.704 -34.036  1.00  0.00     0.036 C 
ENDBRANCH  31  32
ENDBRANCH   5  31
TORSDOF 6
ENDMDL
MODEL 3
REMARK VINA RESULT:     -10.0      3.388      8.572
REMARK  6 active torsions:
REMARK  status: ('A' for Active; 'I' for Inactive)
REMARK    1  A    between atoms: C_6  and  C_7 
REMARK    2  A    between atoms: C_7  and  N_8 
REMARK    3  A    between atoms: C_12  and  C_13 
REMARK    4  A    between atoms: C_13  and  C_14 
REMARK    5  A    between atoms: N_23  and  C_24 
REMARK    6  A    between atoms: C_24  and  C_25 
ROOT
HETATM    1  C   UNL     1      -5.941   1.976 -32.521  1.00  0.00     0.164 C 
HETATM    2  N   UNL     1      -5.621   3.088 -33.397  1.00  0.00    -0.319 N 
HETATM    3  C   UNL     1      -6.682   3.958 -33.532  1.00  0.00     0.326 C 
HETATM    4  O   UNL     1      -6.662   4.892 -34.314  1.00  0.00    -0.247 OA
HETATM    5  N   UNL     1      -7.676   3.581 -32.689  1.00  0.00    -0.265 N 
HETATM    6  C   UNL     1      -7.399   2.351 -32.153  1.00  0.00     0.263 C 
HETATM    7  O   UNL     1      -8.156   1.678 -31.470  1.00  0.00    -0.270 OA
HETATM    8  H   UNL     1      -4.994   3.012 -34.191  1.00  0.00     0.166 HD
ENDROOT
BRANCH   1   9
HETATM    9  C   UNL     1      -5.077   2.004 -31.195  1.00  0.00     0.033 C 
HETATM   10  C   UNL     1      -5.469   3.095 -30.168  1.00  0.00     0.036 C 
HETATM   11  C   UNL     1      -5.032   4.511 -30.536  1.00  0.00     0.235 C 
HETATM   12  N   UNL     1      -3.539   4.545 -30.778  1.00  0.00    -0.067 N 
HETATM   13  H   UNL     1      -3.096   4.368 -29.870  1.00  0.00     0.280 HD
HETATM   14  C   UNL     1      -3.054   3.496 -31.747  1.00  0.00     0.235 C 
HETATM   15  C   UNL     1      -3.546   2.112 -31.368  1.00  0.00     0.036 C 
BRANCH  12  16
HETATM   16  C   UNL     1      -3.032   5.909 -31.240  1.00  0.00     0.273 C 
BRANCH  16  17
HETATM   17  C   UNL     1      -1.898   6.512 -30.451  1.00  0.00    -0.027 A 
HETATM   18  C   UNL     1      -0.549   6.335 -30.837  1.00  0.00    -0.054 A 
HETATM   19  C   UNL     1       0.470   6.911 -30.062  1.00  0.00     0.014 A 
HETATM   20  C   UNL     1      -0.149   5.533 -32.050  1.00  0.00     0.049 C 
HETATM   21  C   UNL     1       0.180   7.642 -28.906  1.00  0.00    -0.061 A 
HETATM   22  C   UNL     1       1.294   8.261 -28.112  1.00  0.00     0.048 C 
HETATM   23  C   UNL     1      -1.152   7.813 -28.528  1.00  0.00     0.007 A 
HETATM   24  C   UNL     1      -2.180   7.245 -29.284  1.00  0.00     0.010 A 
ENDBRANCH  16  17
ENDBRANCH  12  16
ENDBRANCH   1   9
BRANCH   1  25
HETATM   25  C   UNL     1      -5.929   0.657 -33.302  1.00  0.00     0.072 A 
HETATM   26  N   UNL     1      -6.708   0.565 -34.407  1.00  0.00    -0.262 NA
HETATM   27  C   UNL     1      -6.724  -0.610 -35.083  1.00  0.00     0.117 A 
HETATM   28  C   UNL     1      -6.017  -1.730 -34.694  1.00  0.00     0.019 A 
HETATM   29  C   UNL     1      -5.239  -1.644 -33.550  1.00  0.00     0.003 A 
HETATM   30  C   UNL     1      -5.192  -0.443 -32.845  1.00  0.00     0.030 A 
ENDBRANCH   1  25
BRANCH   5  31
HETATM   31  C   UNL     1      -8.927   4.303 -32.508  1.00  0.00     0.168 C 
BRANCH  31  32
HETATM   32  C   UNL     1     -10.002   3.852 -33.503  1.00  0.00     0.140 C 
HETATM   33  O   UNL     1     -11.313   3.866 -32.893  1.00  0.00    -0.384 OA
HETATM   34  C   UNL     1     -12.272   4.126 -33.939  1.00  0.00     0.168 C 
HETATM   35  C   UNL     1     -11.497   4.371 -35.221  1.00  0.00     0.029 C 
HETATM   36  C   UNL     1     -10.130   4.757 -34.714  1.00  0.00     0.036 C 
ENDBRANCH  31  32
ENDBRANCH   5  31
TORSDOF 6
ENDMDL
MODEL 4
REMARK VINA RESULT:     -10.0      3.880      8.502
REMARK  6 active torsions:
REMARK  status: ('A' for Active; 'I' for Inactive)
REMARK    1  A    between atoms: C_6  and  C_7 
REMARK    2  A    between atoms: C_7  and  N_8 
REMARK    3  A    between atoms: C_12  and  C_13 
REMARK    4  A    between atoms: C_13  and  C_14 
REMARK    5  A    between atoms: N_23  and  C_24 
REMARK    6  A    between atoms: C_24  and  C_25 
ROOT
HETATM    1  C   UNL     1      -6.049   2.210 -32.496  1.00  0.00     0.164 C 
HETATM    2  N   UNL     1      -5.759   3.343 -33.355  1.00  0.00    -0.319 N 
HETATM    3  C   UNL     1      -6.779   4.270 -33.345  1.00  0.00     0.326 C 
HETATM    4  O   UNL     1      -6.787   5.236 -34.087  1.00  0.00    -0.247 OA
HETATM    5  N   UNL     1      -7.702   3.905 -32.421  1.00  0.00    -0.265 N 
HETATM    6  C   UNL     1      -7.440   2.640 -31.966  1.00  0.00     0.263 C 
HETATM    7  O   UNL     1      -8.160   1.976 -31.236  1.00  0.00    -0.270 OA
HETATM    8  H   UNL     1      -5.220   3.272 -34.211  1.00  0.00     0.166 HD
ENDROOT
BRANCH   1   9
HETATM    9  C   UNL     1      -5.056   2.135 -31.265  1.00  0.00     0.033 C 
HETATM   10  C   UNL     1      -5.311   3.167 -30.140  1.00  0.00     0.036 C 
HETATM   11  C   UNL     1      -4.872   4.593 -30.464  1.00  0.00     0.235 C 
HETATM   12  N   UNL     1      -3.411   4.609 -30.854  1.00  0.00    -0.067 N 
HETATM   13  H   UNL     1      -2.885   4.365 -30.008  1.00  0.00     0.280 HD
HETATM   14  C   UNL     1      -3.056   3.612 -31.929  1.00  0.00     0.235 C 
HETATM   15  C   UNL     1      -3.548   2.219 -31.587  1.00  0.00     0.036 C 
BRANCH  12  16
HETATM   16  C   UNL     1      -2.913   5.987 -31.282  1.00  0.00     0.273 C 
BRANCH  16  17
HETATM   17  C   UNL     1      -1.818   6.600 -30.449  1.00  0.00    -0.027 A 
HETATM   18  C   UNL     1      -0.453   6.339 -30.710  1.00  0.00    -0.054 A 
HETATM   19  C   UNL     1       0.529   6.929 -29.897  1.00  0.00     0.014 A 
HETATM   20  C   UNL     1       0.003   5.433 -31.826  1.00  0.00     0.049 C 
HETATM   21  C   UNL     1       0.184   7.755 -28.823  1.00  0.00    -0.061 A 
HETATM   22  C   UNL     1       1.261   8.386 -27.987  1.00  0.00     0.048 C 
HETATM   23  C   UNL     1      -1.164   8.009 -28.569  1.00  0.00     0.007 A 
HETATM   24  C   UNL     1      -2.155   7.430 -29.364  1.00  0.00     0.010 A 
ENDBRANCH  16  17
ENDBRANCH  12  16
ENDBRANCH   1   9
BRANCH   1  25
HETATM   25  C   UNL     1      -6.186   0.928 -33.326  1.00  0.00     0.072 A 
HETATM   26  N   UNL     1      -6.793   1.016 -34.535  1.00  0.00    -0.262 NA
HETATM   27  C   UNL     1      -6.945  -0.119 -35.259  1.00  0.00     0.117 A 
HETATM   28  C   UNL     1      -6.545  -1.367 -34.824  1.00  0.00     0.019 A 
HETATM   29  C   UNL     1      -5.947  -1.461 -33.577  1.00  0.00     0.003 A 
HETATM   30  C   UNL     1      -5.764  -0.307 -32.818  1.00  0.00     0.030 A 
ENDBRANCH   1  25
BRANCH   5  31
HETATM   31  C   UNL     1      -8.888   4.679 -32.084  1.00  0.00     0.168 C 
BRANCH  31  32
HETATM   32  C   UNL     1      -8.594   5.759 -31.037  1.00  0.00     0.140 C 
HETATM   33  O   UNL     1      -9.668   6.725 -30.970  1.00  0.00    -0.384 OA
HETATM   34  C   UNL     1      -9.704   7.237 -29.622  1.00  0.00     0.168 C 
HETATM   35  C   UNL     1      -8.664   6.480 -28.816  1.00  0.00     0.029 C 
HETATM   36  C   UNL     1      -8.471   5.220 -29.624  1.00  0.00     0.036 C 
ENDBRANCH  31  32
ENDBRANCH   5  31
TORSDOF 6
ENDMDL
MODEL 5
REMARK VINA RESULT:      -9.7      2.982      7.722
REMARK  6 active torsions:
REMARK  status: ('A' for Active; 'I' for Inactive)
REMARK    1  A    between atoms: C_6  and  C_7 
REMARK    2  A    between atoms: C_7  and  N_8 
REMARK    3  A    between atoms: C_12  and  C_13 
REMARK    4  A    between atoms: C_13  and  C_14 
REMARK    5  A    between atoms: N_23  and  C_24 
REMARK    6  A    between atoms: C_24  and  C_25 
ROOT
HETATM    1  C   UNL     1      -4.459   5.299 -31.630  1.00  0.00     0.164 C 
HETATM    2  N   UNL     1      -4.793   4.415 -30.527  1.00  0.00    -0.319 N 
HETATM    3  C   UNL     1      -6.133   4.477 -30.207  1.00  0.00     0.326 C 
HETATM    4  O   UNL     1      -6.596   3.903 -29.237  1.00  0.00    -0.247 OA
HETATM    5  N   UNL     1      -6.772   5.255 -31.116  1.00  0.00    -0.265 N 
HETATM    6  C   UNL     1      -5.860   5.899 -31.910  1.00  0.00     0.263 C 
HETATM    7  O   UNL     1      -6.111   6.771 -32.728  1.00  0.00    -0.270 OA
HETATM    8  H   UNL     1      -4.155   4.203 -29.768  1.00  0.00     0.166 HD
ENDROOT
BRANCH   1   9
HETATM    9  C   UNL     1      -4.004   4.492 -32.913  1.00  0.00     0.033 C 
HETATM   10  C   UNL     1      -5.150   3.877 -33.754  1.00  0.00     0.036 C 
HETATM   11  C   UNL     1      -5.796   2.634 -33.147  1.00  0.00     0.235 C 
HETATM   12  N   UNL     1      -4.743   1.585 -32.870  1.00  0.00    -0.067 N 
HETATM   13  H   UNL     1      -4.398   1.275 -33.785  1.00  0.00     0.280 HD
HETATM   14  C   UNL     1      -3.566   2.098 -32.077  1.00  0.00     0.235 C 
HETATM   15  C   UNL     1      -2.982   3.356 -32.691  1.00  0.00     0.036 C 
BRANCH  12  16
HETATM   16  C   UNL     1      -5.293   0.341 -32.178  1.00  0.00     0.273 C 
BRANCH  16  17
HETATM   17  C   UNL     1      -5.541  -0.864 -33.048  1.00  0.00    -0.027 A 
HETATM   18  C   UNL     1      -6.824  -1.155 -33.565  1.00  0.00    -0.054 A 
HETATM   19  C   UNL     1      -7.002  -2.296 -34.365  1.00  0.00     0.014 A 
HETATM   20  C   UNL     1      -8.030  -0.295 -33.281  1.00  0.00     0.049 C 
HETATM   21  C   UNL     1      -5.939  -3.160 -34.646  1.00  0.00    -0.061 A 
HETATM   22  C   UNL     1      -6.161  -4.360 -35.522  1.00  0.00     0.048 C 
HETATM   23  C   UNL     1      -4.675  -2.869 -34.134  1.00  0.00     0.007 A 
HETATM   24  C   UNL     1      -4.478  -1.741 -33.334  1.00  0.00     0.010 A 
ENDBRANCH  16  17
ENDBRANCH  12  16
ENDBRANCH   1   9
BRANCH   1  25
HETATM   25  C   UNL     1      -3.508   6.406 -31.160  1.00  0.00     0.072 A 
HETATM   26  N   UNL     1      -3.508   6.728 -29.844  1.00  0.00    -0.262 NA
HETATM   27  C   UNL     1      -2.692   7.727 -29.430  1.00  0.00     0.117 A 
HETATM   28  C   UNL     1      -1.881   8.459 -30.276  1.00  0.00     0.019 A 
HETATM   29  C   UNL     1      -1.900   8.145 -31.627  1.00  0.00     0.003 A 
HETATM   30  C   UNL     1      -2.719   7.112 -32.077  1.00  0.00     0.030 A 
ENDBRANCH   1  25
BRANCH   5  31
HETATM   31  C   UNL     1      -8.207   5.495 -31.136  1.00  0.00     0.168 C 
BRANCH  31  32
HETATM   32  C   UNL     1      -8.917   4.664 -32.211  1.00  0.00     0.140 C 
HETATM   33  O   UNL     1      -9.004   3.274 -31.820  1.00  0.00    -0.384 OA
HETATM   34  C   UNL     1     -10.190   2.729 -32.433  1.00  0.00     0.168 C 
HETATM   35  C   UNL     1     -10.898   3.862 -33.152  1.00  0.00     0.029 C 
HETATM   36  C   UNL     1     -10.352   5.087 -32.460  1.00  0.00     0.036 C 
ENDBRANCH  31  32
ENDBRANCH   5  31
TORSDOF 6
ENDMDL
MODEL 6
REMARK VINA RESULT:      -9.6      2.808      7.364
REMARK  6 active torsions:
REMARK  status: ('A' for Active; 'I' for Inactive)
REMARK    1  A    between atoms: C_6  and  C_7 
REMARK    2  A    between atoms: C_7  and  N_8 
REMARK    3  A    between atoms: C_12  and  C_13 
REMARK    4  A    between atoms: C_13  and  C_14 
REMARK    5  A    between atoms: N_23  and  C_24 
REMARK    6  A    between atoms: C_24  and  C_25 
ROOT
HETATM    1  C   UNL     1      -9.878   2.898 -32.683  1.00  0.00     0.164 C 
HETATM    2  N   UNL     1      -8.882   3.337 -33.644  1.00  0.00    -0.319 N 
HETATM    3  C   UNL     1      -8.528   4.656 -33.450  1.00  0.00     0.326 C 
HETATM    4  O   UNL     1      -7.797   5.253 -34.220  1.00  0.00    -0.247 OA
HETATM    5  N   UNL     1      -9.126   5.116 -32.322  1.00  0.00    -0.265 N 
HETATM    6  C   UNL     1     -10.048   4.208 -31.874  1.00  0.00     0.263 C 
HETATM    7  O   UNL     1     -10.846   4.385 -30.965  1.00  0.00    -0.270 OA
HETATM    8  H   UNL     1      -8.831   2.990 -34.595  1.00  0.00     0.166 HD
ENDROOT
BRANCH   1   9
HETATM    9  C   UNL     1      -9.305   1.789 -31.708  1.00  0.00     0.033 C 
HETATM   10  C   UNL     1      -7.867   2.037 -31.190  1.00  0.00     0.036 C 
HETATM   11  C   UNL     1      -6.762   1.774 -32.210  1.00  0.00     0.235 C 
HETATM   12  N   UNL     1      -6.879   0.366 -32.749  1.00  0.00    -0.067 N 
HETATM   13  H   UNL     1      -6.660  -0.261 -31.966  1.00  0.00     0.280 HD
HETATM   14  C   UNL     1      -8.257   0.018 -33.253  1.00  0.00     0.235 C 
HETATM   15  C   UNL     1      -9.327   0.335 -32.226  1.00  0.00     0.036 C 
BRANCH  12  16
HETATM   16  C   UNL     1      -5.863   0.049 -33.844  1.00  0.00     0.273 C 
BRANCH  16  17
HETATM   17  C   UNL     1      -5.247  -1.325 -33.818  1.00  0.00    -0.027 A 
HETATM   18  C   UNL     1      -4.161  -1.636 -32.967  1.00  0.00    -0.054 A 
HETATM   19  C   UNL     1      -3.617  -2.931 -32.989  1.00  0.00     0.014 A 
HETATM   20  C   UNL     1      -3.541  -0.623 -32.037  1.00  0.00     0.049 C 
HETATM   21  C   UNL     1      -4.117  -3.915 -33.846  1.00  0.00    -0.061 A 
HETATM   22  C   UNL     1      -3.525  -5.295 -33.828  1.00  0.00     0.048 C 
HETATM   23  C   UNL     1      -5.188  -3.604 -34.684  1.00  0.00     0.007 A 
HETATM   24  C   UNL     1      -5.740  -2.321 -34.680  1.00  0.00     0.010 A 
ENDBRANCH  16  17
ENDBRANCH  12  16
ENDBRANCH   1   9
BRANCH   1  25
HETATM   25  C   UNL     1     -11.192   2.554 -33.392  1.00  0.00     0.072 A 
HETATM   26  N   UNL     1     -12.332   2.565 -32.659  1.00  0.00    -0.262 NA
HETATM   27  C   UNL     1     -13.492   2.231 -33.275  1.00  0.00     0.117 A 
HETATM   28  C   UNL     1     -13.577   1.850 -34.600  1.00  0.00     0.019 A 
HETATM   29  C   UNL     1     -12.407   1.815 -35.343  1.00  0.00     0.003 A 
HETATM   30  C   UNL     1     -11.203   2.169 -34.739  1.00  0.00     0.030 A 
ENDBRANCH   1  25
BRANCH   5  31
HETATM   31  C   UNL     1      -8.931   6.446 -31.765  1.00  0.00     0.168 C 
BRANCH  31  32
HETATM   32  C   UNL     1      -7.931   6.446 -30.604  1.00  0.00     0.140 C 
HETATM   33  O   UNL     1      -8.535   5.924 -29.398  1.00  0.00    -0.384 OA
HETATM   34  C   UNL     1      -7.485   5.314 -28.620  1.00  0.00     0.168 C 
HETATM   35  C   UNL     1      -6.207   5.390 -29.434  1.00  0.00     0.029 C 
HETATM   36  C   UNL     1      -6.720   5.563 -30.843  1.00  0.00     0.036 C 
ENDBRANCH  31  32
ENDBRANCH   5  31
TORSDOF 6
ENDMDL
MODEL 7
REMARK VINA RESULT:      -9.5      2.321      5.412
REMARK  6 active torsions:
REMARK  status: ('A' for Active; 'I' for Inactive)
REMARK    1  A    between atoms: C_6  and  C_7 
REMARK    2  A    between atoms: C_7  and  N_8 
REMARK    3  A    between atoms: C_12  and  C_13 
REMARK    4  A    between atoms: C_13  and  C_14 
REMARK    5  A    between atoms: N_23  and  C_24 
REMARK    6  A    between atoms: C_24  and  C_25 
ROOT
HETATM    1  C   UNL     1      -5.634   3.339 -32.483  1.00  0.00     0.164 C 
HETATM    2  N   UNL     1      -6.820   3.161 -33.301  1.00  0.00    -0.319 N 
HETATM    3  C   UNL     1      -7.135   1.829 -33.466  1.00  0.00     0.326 C 
HETATM    4  O   UNL     1      -8.023   1.459 -34.213  1.00  0.00    -0.247 OA
HETATM    5  N   UNL     1      -6.309   1.078 -32.695  1.00  0.00    -0.265 N 
HETATM    6  C   UNL     1      -5.302   1.855 -32.187  1.00  0.00     0.263 C 
HETATM    7  O   UNL     1      -4.325   1.453 -31.572  1.00  0.00    -0.270 OA
HETATM    8  H   UNL     1      -7.075   3.784 -34.059  1.00  0.00     0.166 HD
ENDROOT
BRANCH   1   9
HETATM    9  C   UNL     1      -5.968   4.052 -31.109  1.00  0.00     0.033 C 
HETATM   10  C   UNL     1      -7.170   3.465 -30.331  1.00  0.00     0.036 C 
HETATM   11  C   UNL     1      -8.541   3.822 -30.900  1.00  0.00     0.235 C 
HETATM   12  N   UNL     1      -8.682   5.324 -31.007  1.00  0.00    -0.067 N 
HETATM   13  H   UNL     1      -8.702   5.681 -30.045  1.00  0.00     0.280 HD
HETATM   14  C   UNL     1      -7.538   5.994 -31.728  1.00  0.00     0.235 C 
HETATM   15  C   UNL     1      -6.195   5.578 -31.158  1.00  0.00     0.036 C 
BRANCH  12  16
HETATM   16  C   UNL     1      -9.992   5.766 -31.653  1.00  0.00     0.273 C 
BRANCH  16  17
HETATM   17  C   UNL     1     -10.641   4.793 -32.602  1.00  0.00    -0.027 A 
HETATM   18  C   UNL     1     -11.775   4.035 -32.228  1.00  0.00    -0.054 A 
HETATM   19  C   UNL     1     -12.336   3.135 -33.149  1.00  0.00     0.014 A 
HETATM   20  C   UNL     1     -12.408   4.138 -30.864  1.00  0.00     0.049 C 
HETATM   21  C   UNL     1     -11.786   2.960 -34.423  1.00  0.00    -0.061 A 
HETATM   22  C   UNL     1     -12.425   2.004 -35.389  1.00  0.00     0.048 C 
HETATM   23  C   UNL     1     -10.667   3.709 -34.787  1.00  0.00     0.007 A 
HETATM   24  C   UNL     1     -10.093   4.607 -33.885  1.00  0.00     0.010 A 
ENDBRANCH  16  17
ENDBRANCH  12  16
ENDBRANCH   1   9
BRANCH   1  25
HETATM   25  C   UNL     1      -4.504   3.967 -33.307  1.00  0.00     0.072 A 
HETATM   26  N   UNL     1      -3.245   3.913 -32.807  1.00  0.00    -0.262 NA
HETATM   27  C   UNL     1      -2.249   4.494 -33.517  1.00  0.00     0.117 A 
HETATM   28  C   UNL     1      -2.444   5.166 -34.708  1.00  0.00     0.019 A 
HETATM   29  C   UNL     1      -3.734   5.242 -35.208  1.00  0.00     0.003 A 
HETATM   30  C   UNL     1      -4.776   4.640 -34.506  1.00  0.00     0.030 A 
ENDBRANCH   1  25
BRANCH   5  31
HETATM   31  C   UNL     1      -6.389  -0.369 -32.562  1.00  0.00     0.168 C 
BRANCH  31  32
HETATM   32  C   UNL     1      -5.701  -1.095 -33.723  1.00  0.00     0.140 C 
HETATM   33  O   UNL     1      -4.557  -1.849 -33.260  1.00  0.00    -0.384 OA
HETATM   34  C   UNL     1      -4.399  -2.978 -34.144  1.00  0.00     0.168 C 
HETATM   35  C   UNL     1      -5.553  -2.954 -35.129  1.00  0.00     0.029 C 
HETATM   36  C   UNL     1      -6.584  -2.117 -34.413  1.00  0.00     0.036 C 
ENDBRANCH  31  32
ENDBRANCH   5  31
TORSDOF 6
ENDMDL
MODEL 8
REMARK VINA RESULT:      -9.5      3.505      8.032
REMARK  6 active torsions:
REMARK  status: ('A' for Active; 'I' for Inactive)
REMARK    1  A    between atoms: C_6  and  C_7 
REMARK    2  A    between atoms: C_7  and  N_8 
REMARK    3  A    between atoms: C_12  and  C_13 
REMARK    4  A    between atoms: C_13  and  C_14 
REMARK    5  A    between atoms: N_23  and  C_24 
REMARK    6  A    between atoms: C_24  and  C_25 
ROOT
HETATM    1  C   UNL     1      -5.898   1.345 -32.502  1.00  0.00     0.164 C 
HETATM    2  N   UNL     1      -5.673   2.458 -33.407  1.00  0.00    -0.319 N 
HETATM    3  C   UNL     1      -6.753   3.315 -33.445  1.00  0.00     0.326 C 
HETATM    4  O   UNL     1      -6.816   4.245 -34.229  1.00  0.00    -0.247 OA
HETATM    5  N   UNL     1      -7.660   2.929 -32.514  1.00  0.00    -0.265 N 
HETATM    6  C   UNL     1      -7.320   1.704 -32.003  1.00  0.00     0.263 C 
HETATM    7  O   UNL     1      -8.003   1.025 -31.250  1.00  0.00    -0.270 OA
HETATM    8  H   UNL     1      -5.121   2.387 -34.254  1.00  0.00     0.166 HD
ENDROOT
BRANCH   1   9
HETATM    9  C   UNL     1      -4.915   1.389 -31.261  1.00  0.00     0.033 C 
HETATM   10  C   UNL     1      -5.247   2.454 -30.187  1.00  0.00     0.036 C 
HETATM   11  C   UNL     1      -4.894   3.888 -30.573  1.00  0.00     0.235 C 
HETATM   12  N   UNL     1      -3.433   3.978 -30.951  1.00  0.00    -0.067 N 
HETATM   13  H   UNL     1      -2.901   3.806 -30.091  1.00  0.00     0.280 HD
HETATM   14  C   UNL     1      -3.004   2.957 -31.976  1.00  0.00     0.235 C 
HETATM   15  C   UNL     1      -3.412   1.553 -31.573  1.00  0.00     0.036 C 
BRANCH  12  16
HETATM   16  C   UNL     1      -3.017   5.364 -31.438  1.00  0.00     0.273 C 
BRANCH  16  17
HETATM   17  C   UNL     1      -1.987   6.090 -30.613  1.00  0.00    -0.027 A 
HETATM   18  C   UNL     1      -2.354   7.086 -29.677  1.00  0.00    -0.054 A 
HETATM   19  C   UNL     1      -1.353   7.739 -28.939  1.00  0.00     0.014 A 
HETATM   20  C   UNL     1      -3.786   7.494 -29.444  1.00  0.00     0.049 C 
HETATM   21  C   UNL     1      -0.000   7.437 -29.122  1.00  0.00    -0.061 A 
HETATM   22  C   UNL     1       1.042   8.141 -28.300  1.00  0.00     0.048 C 
HETATM   23  C   UNL     1       0.357   6.455 -30.046  1.00  0.00     0.007 A 
HETATM   24  C   UNL     1      -0.623   5.796 -30.792  1.00  0.00     0.010 A 
ENDBRANCH  16  17
ENDBRANCH  12  16
ENDBRANCH   1   9
BRANCH   1  25
HETATM   25  C   UNL     1      -5.941   0.024 -33.277  1.00  0.00     0.072 A 
HETATM   26  N   UNL     1      -7.091  -0.301 -33.917  1.00  0.00    -0.262 NA
HETATM   27  C   UNL     1      -7.144  -1.483 -34.577  1.00  0.00     0.117 A 
HETATM   28  C   UNL     1      -6.104  -2.392 -34.611  1.00  0.00     0.019 A 
HETATM   29  C   UNL     1      -4.936  -2.070 -33.937  1.00  0.00     0.003 A 
HETATM   30  C   UNL     1      -4.850  -0.854 -33.263  1.00  0.00     0.030 A 
ENDBRANCH   1  25
BRANCH   5  31
HETATM   31  C   UNL     1      -8.898   3.636 -32.221  1.00  0.00     0.168 C 
BRANCH  31  32
HETATM   32  C   UNL     1      -8.660   4.885 -31.365  1.00  0.00     0.140 C 
HETATM   33  O   UNL     1      -9.764   5.813 -31.482  1.00  0.00    -0.384 OA
HETATM   34  C   UNL     1      -9.845   6.543 -30.240  1.00  0.00     0.168 C 
HETATM   35  C   UNL     1      -8.803   5.966 -29.300  1.00  0.00     0.029 C 
HETATM   36  C   UNL     1      -8.554   4.596 -29.880  1.00  0.00     0.036 C 
ENDBRANCH  31  32
ENDBRANCH   5  31
TORSDOF 6
ENDMDL
MODEL 9
REMARK VINA RESULT:      -9.2      4.616      8.411
REMARK  6 active torsions:
REMARK  status: ('A' for Active; 'I' for Inactive)
REMARK    1  A    between atoms: C_6  and  C_7 
REMARK    2  A    between atoms: C_7  and  N_8 
REMARK    3  A    between atoms: C_12  and  C_13 
REMARK    4  A    between atoms: C_13  and  C_14 
REMARK    5  A    between atoms: N_23  and  C_24 
REMARK    6  A    between atoms: C_24  and  C_25 
ROOT
HETATM    1  C   UNL     1      -2.739   6.404 -31.518  1.00  0.00     0.164 C 
HETATM    2  N   UNL     1      -3.872   6.155 -30.645  1.00  0.00    -0.319 N 
HETATM    3  C   UNL     1      -4.534   7.319 -30.318  1.00  0.00     0.326 C 
HETATM    4  O   UNL     1      -5.439   7.345 -29.504  1.00  0.00    -0.247 OA
HETATM    5  N   UNL     1      -4.003   8.347 -31.026  1.00  0.00    -0.265 N 
HETATM    6  C   UNL     1      -2.854   7.943 -31.654  1.00  0.00     0.263 C 
HETATM    7  O   UNL     1      -2.071   8.665 -32.253  1.00  0.00    -0.270 OA
HETATM    8  H   UNL     1      -3.893   5.413 -29.955  1.00  0.00     0.166 HD
ENDROOT
BRANCH   1   9
HETATM    9  C   UNL     1      -2.951   5.766 -32.952  1.00  0.00     0.033 C 
HETATM   10  C   UNL     1      -4.402   5.806 -33.490  1.00  0.00     0.036 C 
HETATM   11  C   UNL     1      -5.352   4.795 -32.852  1.00  0.00     0.235 C 
HETATM   12  N   UNL     1      -4.790   3.398 -32.990  1.00  0.00    -0.067 N 
HETATM   13  H   UNL     1      -4.814   3.175 -33.991  1.00  0.00     0.280 HD
HETATM   14  C   UNL     1      -3.364   3.264 -32.516  1.00  0.00     0.235 C 
HETATM   15  C   UNL     1      -2.465   4.313 -33.142  1.00  0.00     0.036 C 
BRANCH  12  16
HETATM   16  C   UNL     1      -5.636   2.333 -32.297  1.00  0.00     0.273 C 
BRANCH  16  17
HETATM   17  C   UNL     1      -5.707   0.984 -32.966  1.00  0.00    -0.027 A 
HETATM   18  C   UNL     1      -4.984  -0.127 -32.473  1.00  0.00    -0.054 A 
HETATM   19  C   UNL     1      -5.078  -1.360 -33.139  1.00  0.00     0.014 A 
HETATM   20  C   UNL     1      -4.092  -0.044 -31.259  1.00  0.00     0.049 C 
HETATM   21  C   UNL     1      -5.858  -1.508 -34.289  1.00  0.00    -0.061 A 
HETATM   22  C   UNL     1      -5.952  -2.847 -34.963  1.00  0.00     0.048 C 
HETATM   23  C   UNL     1      -6.569  -0.410 -34.772  1.00  0.00     0.007 A 
HETATM   24  C   UNL     1      -6.486   0.826 -34.126  1.00  0.00     0.010 A 
ENDBRANCH  16  17
ENDBRANCH  12  16
ENDBRANCH   1   9
BRANCH   1  25
HETATM   25  C   UNL     1      -1.428   6.045 -30.811  1.00  0.00     0.072 A 
HETATM   26  N   UNL     1      -1.300   6.373 -29.502  1.00  0.00    -0.262 NA
HETATM   27  C   UNL     1      -0.131   6.086 -28.881  1.00  0.00     0.117 A 
HETATM   28  C   UNL     1       0.952   5.505 -29.511  1.00  0.00     0.019 A 
HETATM   29  C   UNL     1       0.831   5.191 -30.856  1.00  0.00     0.003 A 
HETATM   30  C   UNL     1      -0.366   5.462 -31.515  1.00  0.00     0.030 A 
ENDBRANCH   1  25
BRANCH   5  31
HETATM   31  C   UNL     1      -4.492   9.717 -30.991  1.00  0.00     0.168 C 
BRANCH  31  32
HETATM   32  C   UNL     1      -3.905  10.509 -29.817  1.00  0.00     0.140 C 
HETATM   33  O   UNL     1      -3.733   9.666 -28.655  1.00  0.00    -0.384 OA
HETATM   34  C   UNL     1      -2.622  10.194 -27.901  1.00  0.00     0.168 C 
HETATM   35  C   UNL     1      -2.041  11.352 -28.691  1.00  0.00     0.029 C 
HETATM   36  C   UNL     1      -2.525  11.075 -30.093  1.00  0.00     0.036 C 
ENDBRANCH  31  32
ENDBRANCH   5  31
TORSDOF 6
ENDMDL
MODEL 10
REMARK VINA RESULT:      -9.1     14.265     17.493
REMARK  6 active torsions:
REMARK  status: ('A' for Active; 'I' for Inactive)
REMARK    1  A    between atoms: C_6  and  C_7 
REMARK    2  A    between atoms: C_7  and  N_8 
REMARK    3  A    between atoms: C_12  and  C_13 
REMARK    4  A    between atoms: C_13  and  C_14 
REMARK    5  A    between atoms: N_23  and  C_24 
REMARK    6  A    between atoms: C_24  and  C_25 
ROOT
HETATM    1  C   UNL     1      -6.778 -14.161 -39.817  1.00  0.00     0.164 C 
HETATM    2  N   UNL     1      -5.933 -12.997 -39.624  1.00  0.00    -0.319 N 
HETATM    3  C   UNL     1      -5.344 -12.991 -38.377  1.00  0.00     0.326 C 
HETATM    4  O   UNL     1      -4.692 -12.045 -37.971  1.00  0.00    -0.247 OA
HETATM    5  N   UNL     1      -5.629 -14.157 -37.746  1.00  0.00    -0.265 N 
HETATM    6  C   UNL     1      -6.578 -14.853 -38.446  1.00  0.00     0.263 C 
HETATM    7  O   UNL     1      -7.144 -15.870 -38.071  1.00  0.00    -0.270 OA
HETATM    8  H   UNL     1      -6.125 -12.092 -40.039  1.00  0.00     0.166 HD
ENDROOT
BRANCH   1   9
HETATM    9  C   UNL     1      -6.209 -15.121 -40.941  1.00  0.00     0.033 C 
HETATM   10  C   UNL     1      -5.131 -16.128 -40.471  1.00  0.00     0.036 C 
HETATM   11  C   UNL     1      -3.750 -15.524 -40.226  1.00  0.00     0.235 C 
HETATM   12  N   UNL     1      -3.273 -14.802 -41.466  1.00  0.00    -0.067 N 
HETATM   13  H   UNL     1      -3.115 -15.524 -42.177  1.00  0.00     0.280 HD
HETATM   14  C   UNL     1      -4.271 -13.815 -42.018  1.00  0.00     0.235 C 
HETATM   15  C   UNL     1      -5.638 -14.445 -42.206  1.00  0.00     0.036 C 
BRANCH  12  16
HETATM   16  C   UNL     1      -1.936 -14.090 -41.276  1.00  0.00     0.273 C 
BRANCH  16  17
HETATM   17  C   UNL     1      -1.042 -14.610 -40.180  1.00  0.00    -0.027 A 
HETATM   18  C   UNL     1      -0.840 -13.886 -38.982  1.00  0.00    -0.054 A 
HETATM   19  C   UNL     1       0.010 -14.411 -37.995  1.00  0.00     0.014 A 
HETATM   20  C   UNL     1      -1.491 -12.551 -38.719  1.00  0.00     0.049 C 
HETATM   21  C   UNL     1       0.674 -15.627 -38.179  1.00  0.00    -0.061 A 
HETATM   22  C   UNL     1       1.560 -16.169 -37.094  1.00  0.00     0.048 C 
HETATM   23  C   UNL     1       0.472 -16.338 -39.363  1.00  0.00     0.007 A 
HETATM   24  C   UNL     1      -0.367 -15.831 -40.357  1.00  0.00     0.010 A 
ENDBRANCH  16  17
ENDBRANCH  12  16
ENDBRANCH   1   9
BRANCH   1  25
HETATM   25  C   UNL     1      -8.243 -13.740 -39.974  1.00  0.00     0.072 A 
HETATM   26  N   UNL     1      -9.137 -14.679 -40.369  1.00  0.00    -0.262 NA
HETATM   27  C   UNL     1     -10.427 -14.304 -40.540  1.00  0.00     0.117 A 
HETATM   28  C   UNL     1     -10.882 -13.012 -40.364  1.00  0.00     0.019 A 
HETATM   29  C   UNL     1      -9.963 -12.045 -39.983  1.00  0.00     0.003 A 
HETATM   30  C   UNL     1      -8.633 -12.408 -39.786  1.00  0.00     0.030 A 
ENDBRANCH   1  25
BRANCH   5  31
HETATM   31  C   UNL     1      -5.120 -14.534 -36.435  1.00  0.00     0.168 C 
BRANCH  31  32
HETATM   32  C   UNL     1      -6.000 -13.999 -35.299  1.00  0.00     0.140 C 
HETATM   33  O   UNL     1      -6.580 -15.082 -34.536  1.00  0.00    -0.384 OA
HETATM   34  C   UNL     1      -6.772 -14.605 -33.189  1.00  0.00     0.168 C 
HETATM   35  C   UNL     1      -6.198 -13.202 -33.113  1.00  0.00     0.029 C 
HETATM   36  C   UNL     1      -5.241 -13.170 -34.279  1.00  0.00     0.036 C 
ENDBRANCH  31  32
ENDBRANCH   5  31
TORSDOF 6
ENDMDL
