MODEL 1
REMARK VINA RESULT:      -8.5      0.000      0.000
REMARK  6 active torsions:
REMARK  status: ('A' for Active; 'I' for Inactive)
REMARK       I    between atoms: C_2  and  N_3 
REMARK    1  A    between atoms: N_3  and  C_4 
REMARK    2  A    between atoms: C_7  and  N_8 
REMARK       I    between atoms: N_8  and  C_9 
REMARK    3  A    between atoms: C_9  and  C_10 
REMARK    4  A    between atoms: C_10  and  S_11 
REMARK    5  A    between atoms: S_11  and  C_12 
REMARK    6  A    between atoms: C_15  and  C_16 
ROOT
HETATM    1  N   UNL     1      -6.851   2.352 -32.098  1.00  0.00    -0.327 N 
HETATM    2  C   UNL     1      -6.103   1.970 -30.999  1.00  0.00     0.231 C 
HETATM    3  O   UNL     1      -6.427   1.140 -30.153  1.00  0.00    -0.272 OA
HETATM    4  H   UNL     1      -6.363   2.943 -32.776  1.00  0.00     0.169 HD
ENDROOT
BRANCH   2   5
HETATM    5  C   UNL     1      -4.779   2.714 -30.891  1.00  0.00     0.185 C 
BRANCH   5   6
HETATM    6  S   UNL     1      -3.697   2.345 -32.300  1.00  0.00    -0.083 SA
BRANCH   6   7
HETATM    7  C   UNL     1      -3.674   0.624 -32.272  1.00  0.00     0.167 A 
HETATM    8  N   UNL     1      -2.948  -0.154 -31.507  1.00  0.00    -0.235 NA
HETATM    9  C   UNL     1      -3.288  -1.428 -31.899  1.00  0.00     0.149 A 
HETATM   10  C   UNL     1      -4.211  -1.425 -32.934  1.00  0.00     0.062 A 
HETATM   11  N   UNL     1      -4.451  -0.083 -33.137  1.00  0.00    -0.333 N 
HETATM   12  H   UNL     1      -5.087   0.327 -33.804  1.00  0.00     0.168 HD
BRANCH  10  13
HETATM   13  C   UNL     1      -4.841  -2.511 -33.687  1.00  0.00    -0.008 A 
HETATM   14  C   UNL     1      -6.094  -2.322 -34.289  1.00  0.00     0.014 A 
HETATM   15  C   UNL     1      -6.714  -3.354 -35.000  1.00  0.00     0.001 A 
HETATM   16  C   UNL     1      -6.090  -4.591 -35.121  1.00  0.00     0.000 A 
HETATM   17  C   UNL     1      -4.846  -4.798 -34.531  1.00  0.00     0.001 A 
HETATM   18  C   UNL     1      -4.227  -3.766 -33.817  1.00  0.00     0.014 A 
ENDBRANCH  10  13
ENDBRANCH   6   7
ENDBRANCH   5   6
ENDBRANCH   2   5
BRANCH   1  19
HETATM   19  C   UNL     1      -8.148   1.941 -32.454  1.00  0.00     0.034 A 
HETATM   20  C   UNL     1      -8.476   0.651 -32.865  1.00  0.00     0.032 A 
HETATM   21  C   UNL     1      -9.805   0.313 -33.168  1.00  0.00     0.032 A 
HETATM   22  C   UNL     1     -10.823   1.260 -33.066  1.00  0.00     0.034 A 
HETATM   23  C   UNL     1     -10.489   2.559 -32.666  1.00  0.00     0.032 A 
HETATM   24  C   UNL     1      -9.166   2.895 -32.361  1.00  0.00     0.032 A 
BRANCH  22  25
HETATM   25  N   UNL     1     -12.183   0.997 -33.326  1.00  0.00    -0.328 N 
HETATM   26  C   UNL     1     -12.845   1.101 -34.536  1.00  0.00     0.218 C 
HETATM   27  C   UNL     1     -14.295   0.696 -34.441  1.00  0.00     0.117 C 
HETATM   28  O   UNL     1     -12.378   1.487 -35.601  1.00  0.00    -0.274 OA
HETATM   29  H   UNL     1     -12.729   0.688 -32.533  1.00  0.00     0.169 HD
ENDBRANCH  22  25
ENDBRANCH   1  19
TORSDOF 6
ENDMDL
MODEL 2
REMARK VINA RESULT:      -8.3      0.985      1.361
REMARK  6 active torsions:
REMARK  status: ('A' for Active; 'I' for Inactive)
REMARK       I    between atoms: C_2  and  N_3 
REMARK    1  A    between atoms: N_3  and  C_4 
REMARK    2  A    between atoms: C_7  and  N_8 
REMARK       I    between atoms: N_8  and  C_9 
REMARK    3  A    between atoms: C_9  and  C_10 
REMARK    4  A    between atoms: C_10  and  S_11 
REMARK    5  A    between atoms: S_11  and  C_12 
REMARK    6  A    between atoms: C_15  and  C_16 
ROOT
HETATM    1  N   UNL     1      -6.973   2.391 -33.535  1.00  0.00    -0.327 N 
HETATM    2  C   UNL     1      -6.176   2.743 -32.461  1.00  0.00     0.231 C 
HETATM    3  O   UNL     1      -6.485   2.674 -31.275  1.00  0.00    -0.272 OA
HETATM    4  H   UNL     1      -6.501   2.370 -34.443  1.00  0.00     0.169 HD
ENDROOT
BRANCH   2   5
HETATM    5  C   UNL     1      -4.813   3.277 -32.881  1.00  0.00     0.185 C 
BRANCH   5   6
HETATM    6  S   UNL     1      -3.527   2.822 -31.684  1.00  0.00    -0.083 SA
BRANCH   6   7
HETATM    7  C   UNL     1      -3.523   1.106 -31.822  1.00  0.00     0.167 A 
HETATM    8  N   UNL     1      -2.760   0.255 -31.180  1.00  0.00    -0.235 NA
HETATM    9  C   UNL     1      -3.138  -0.974 -31.670  1.00  0.00     0.149 A 
HETATM   10  C   UNL     1      -4.124  -0.867 -32.640  1.00  0.00     0.062 A 
HETATM   11  N   UNL     1      -4.360   0.489 -32.699  1.00  0.00    -0.333 N 
HETATM   12  H   UNL     1      -5.031   0.965 -33.283  1.00  0.00     0.168 HD
BRANCH  10  13
HETATM   13  C   UNL     1      -4.811  -1.873 -33.452  1.00  0.00    -0.008 A 
HETATM   14  C   UNL     1      -4.162  -3.067 -33.801  1.00  0.00     0.014 A 
HETATM   15  C   UNL     1      -4.801  -4.030 -34.587  1.00  0.00     0.001 A 
HETATM   16  C   UNL     1      -6.100  -3.815 -35.035  1.00  0.00     0.000 A 
HETATM   17  C   UNL     1      -6.761  -2.637 -34.698  1.00  0.00     0.001 A 
HETATM   18  C   UNL     1      -6.121  -1.672 -33.914  1.00  0.00     0.014 A 
ENDBRANCH  10  13
ENDBRANCH   6   7
ENDBRANCH   5   6
ENDBRANCH   2   5
BRANCH   1  19
HETATM   19  C   UNL     1      -8.308   1.950 -33.521  1.00  0.00     0.034 A 
HETATM   20  C   UNL     1      -8.706   0.669 -33.146  1.00  0.00     0.032 A 
HETATM   21  C   UNL     1     -10.067   0.320 -33.124  1.00  0.00     0.032 A 
HETATM   22  C   UNL     1     -11.046   1.247 -33.479  1.00  0.00     0.034 A 
HETATM   23  C   UNL     1     -10.643   2.529 -33.869  1.00  0.00     0.032 A 
HETATM   24  C   UNL     1      -9.288   2.877 -33.887  1.00  0.00     0.032 A 
BRANCH  22  25
HETATM   25  N   UNL     1     -12.432   0.987 -33.459  1.00  0.00    -0.328 N 
HETATM   26  C   UNL     1     -13.337   1.163 -34.490  1.00  0.00     0.218 C 
HETATM   27  C   UNL     1     -14.735   0.738 -34.115  1.00  0.00     0.117 C 
HETATM   28  O   UNL     1     -13.107   1.624 -35.602  1.00  0.00    -0.274 OA
HETATM   29  H   UNL     1     -12.797   0.621 -32.590  1.00  0.00     0.169 HD
ENDBRANCH  22  25
ENDBRANCH   1  19
TORSDOF 6
ENDMDL
MODEL 3
REMARK VINA RESULT:      -8.2      3.084      6.572
REMARK  6 active torsions:
REMARK  status: ('A' for Active; 'I' for Inactive)
REMARK       I    between atoms: C_2  and  N_3 
REMARK    1  A    between atoms: N_3  and  C_4 
REMARK    2  A    between atoms: C_7  and  N_8 
REMARK       I    between atoms: N_8  and  C_9 
REMARK    3  A    between atoms: C_9  and  C_10 
REMARK    4  A    between atoms: C_10  and  S_11 
REMARK    5  A    between atoms: S_11  and  C_12 
REMARK    6  A    between atoms: C_15  and  C_16 
ROOT
HETATM    1  N   UNL     1      -7.035   3.385 -32.701  1.00  0.00    -0.327 N 
HETATM    2  C   UNL     1      -8.136   3.019 -31.947  1.00  0.00     0.231 C 
HETATM    3  O   UNL     1      -8.156   2.842 -30.732  1.00  0.00    -0.272 OA
HETATM    4  H   UNL     1      -7.234   3.634 -33.673  1.00  0.00     0.169 HD
ENDROOT
BRANCH   2   5
HETATM    5  C   UNL     1      -9.391   2.815 -32.784  1.00  0.00     0.185 C 
BRANCH   5   6
HETATM    6  S   UNL     1      -9.839   1.060 -32.887  1.00  0.00    -0.083 SA
BRANCH   6   7
HETATM    7  C   UNL     1      -8.528   0.425 -33.805  1.00  0.00     0.167 A 
HETATM    8  N   UNL     1      -7.940   0.970 -34.842  1.00  0.00    -0.235 NA
HETATM    9  C   UNL     1      -6.984   0.052 -35.210  1.00  0.00     0.149 A 
HETATM   10  C   UNL     1      -7.009  -1.077 -34.405  1.00  0.00     0.062 A 
HETATM   11  N   UNL     1      -8.006  -0.794 -33.497  1.00  0.00    -0.333 N 
HETATM   12  H   UNL     1      -8.314  -1.373 -32.731  1.00  0.00     0.168 HD
BRANCH  10  13
HETATM   13  C   UNL     1      -6.219  -2.310 -34.423  1.00  0.00    -0.008 A 
HETATM   14  C   UNL     1      -6.795  -3.515 -34.852  1.00  0.00     0.014 A 
HETATM   15  C   UNL     1      -6.058  -4.702 -34.862  1.00  0.00     0.001 A 
HETATM   16  C   UNL     1      -4.731  -4.703 -34.442  1.00  0.00     0.000 A 
HETATM   17  C   UNL     1      -4.142  -3.517 -34.012  1.00  0.00     0.001 A 
HETATM   18  C   UNL     1      -4.881  -2.329 -34.001  1.00  0.00     0.014 A 
ENDBRANCH  10  13
ENDBRANCH   6   7
ENDBRANCH   5   6
ENDBRANCH   2   5
BRANCH   1  19
HETATM   19  C   UNL     1      -5.709   3.568 -32.273  1.00  0.00     0.034 A 
HETATM   20  C   UNL     1      -4.718   2.591 -32.350  1.00  0.00     0.032 A 
HETATM   21  C   UNL     1      -3.406   2.869 -31.934  1.00  0.00     0.032 A 
HETATM   22  C   UNL     1      -3.067   4.126 -31.433  1.00  0.00     0.034 A 
HETATM   23  C   UNL     1      -4.067   5.101 -31.343  1.00  0.00     0.032 A 
HETATM   24  C   UNL     1      -5.373   4.825 -31.762  1.00  0.00     0.032 A 
BRANCH  22  25
HETATM   25  N   UNL     1      -1.771   4.493 -31.019  1.00  0.00    -0.328 N 
HETATM   26  C   UNL     1      -0.798   5.135 -31.765  1.00  0.00     0.218 C 
HETATM   27  C   UNL     1       0.458   5.403 -30.973  1.00  0.00     0.117 C 
HETATM   28  O   UNL     1      -0.869   5.461 -32.944  1.00  0.00    -0.274 OA
HETATM   29  H   UNL     1      -1.536   4.267 -30.062  1.00  0.00     0.169 HD
ENDBRANCH  22  25
ENDBRANCH   1  19
TORSDOF 6
ENDMDL
MODEL 4
REMARK VINA RESULT:      -8.2      4.557      8.270
REMARK  6 active torsions:
REMARK  status: ('A' for Active; 'I' for Inactive)
REMARK       I    between atoms: C_2  and  N_3 
REMARK    1  A    between atoms: N_3  and  C_4 
REMARK    2  A    between atoms: C_7  and  N_8 
REMARK       I    between atoms: N_8  and  C_9 
REMARK    3  A    between atoms: C_9  and  C_10 
REMARK    4  A    between atoms: C_10  and  S_11 
REMARK    5  A    between atoms: S_11  and  C_12 
REMARK    6  A    between atoms: C_15  and  C_16 
ROOT
HETATM    1  N   UNL     1      -3.392   4.516 -32.712  1.00  0.00    -0.327 N 
HETATM    2  C   UNL     1      -4.489   5.013 -33.392  1.00  0.00     0.231 C 
HETATM    3  O   UNL     1      -4.787   6.197 -33.522  1.00  0.00    -0.272 OA
HETATM    4  H   UNL     1      -3.218   3.515 -32.834  1.00  0.00     0.169 HD
ENDROOT
BRANCH   2   5
HETATM    5  C   UNL     1      -5.368   3.920 -33.985  1.00  0.00     0.185 C 
BRANCH   5   6
HETATM    6  S   UNL     1      -5.835   2.694 -32.732  1.00  0.00    -0.083 SA
BRANCH   6   7
HETATM    7  C   UNL     1      -6.217   1.332 -33.712  1.00  0.00     0.167 A 
HETATM    8  N   UNL     1      -7.078   1.272 -34.699  1.00  0.00    -0.235 NA
HETATM    9  C   UNL     1      -7.018  -0.035 -35.122  1.00  0.00     0.149 A 
HETATM   10  C   UNL     1      -6.131  -0.787 -34.367  1.00  0.00     0.062 A 
HETATM   11  N   UNL     1      -5.618   0.132 -33.477  1.00  0.00    -0.333 N 
HETATM   12  H   UNL     1      -4.921  -0.031 -32.767  1.00  0.00     0.168 HD
BRANCH  10  13
HETATM   13  C   UNL     1      -5.753  -2.200 -34.420  1.00  0.00    -0.008 A 
HETATM   14  C   UNL     1      -6.681  -3.167 -34.836  1.00  0.00     0.014 A 
HETATM   15  C   UNL     1      -6.341  -4.522 -34.878  1.00  0.00     0.001 A 
HETATM   16  C   UNL     1      -5.064  -4.932 -34.506  1.00  0.00     0.000 A 
HETATM   17  C   UNL     1      -4.129  -3.988 -34.091  1.00  0.00     0.001 A 
HETATM   18  C   UNL     1      -4.472  -2.632 -34.046  1.00  0.00     0.014 A 
ENDBRANCH  10  13
ENDBRANCH   6   7
ENDBRANCH   5   6
ENDBRANCH   2   5
BRANCH   1  19
HETATM   19  C   UNL     1      -2.430   5.227 -31.974  1.00  0.00     0.034 A 
HETATM   20  C   UNL     1      -1.083   5.313 -32.320  1.00  0.00     0.032 A 
HETATM   21  C   UNL     1      -0.193   6.077 -31.547  1.00  0.00     0.032 A 
HETATM   22  C   UNL     1      -0.638   6.763 -30.417  1.00  0.00     0.034 A 
HETATM   23  C   UNL     1      -1.988   6.663 -30.063  1.00  0.00     0.032 A 
HETATM   24  C   UNL     1      -2.875   5.906 -30.836  1.00  0.00     0.032 A 
BRANCH  22  25
HETATM   25  N   UNL     1       0.183   7.570 -29.604  1.00  0.00    -0.328 N 
HETATM   26  C   UNL     1       0.614   7.306 -28.316  1.00  0.00     0.218 C 
HETATM   27  C   UNL     1       1.517   8.386 -27.773  1.00  0.00     0.117 C 
HETATM   28  O   UNL     1       0.323   6.336 -27.626  1.00  0.00    -0.274 OA
HETATM   29  H   UNL     1       0.496   8.437 -30.020  1.00  0.00     0.169 HD
ENDBRANCH  22  25
ENDBRANCH   1  19
TORSDOF 6
ENDMDL
MODEL 5
REMARK VINA RESULT:      -8.2      4.894      8.600
REMARK  6 active torsions:
REMARK  status: ('A' for Active; 'I' for Inactive)
REMARK       I    between atoms: C_2  and  N_3 
REMARK    1  A    between atoms: N_3  and  C_4 
REMARK    2  A    between atoms: C_7  and  N_8 
REMARK       I    between atoms: N_8  and  C_9 
REMARK    3  A    between atoms: C_9  and  C_10 
REMARK    4  A    between atoms: C_10  and  S_11 
REMARK    5  A    between atoms: S_11  and  C_12 
REMARK    6  A    between atoms: C_15  and  C_16 
ROOT
HETATM    1  N   UNL     1      -4.627   2.523 -31.971  1.00  0.00    -0.327 N 
HETATM    2  C   UNL     1      -4.977   3.081 -30.755  1.00  0.00     0.231 C 
HETATM    3  O   UNL     1      -5.643   2.543 -29.874  1.00  0.00    -0.272 OA
HETATM    4  H   UNL     1      -3.945   3.055 -32.517  1.00  0.00     0.169 HD
ENDROOT
BRANCH   2   5
HETATM    5  C   UNL     1      -4.467   4.505 -30.584  1.00  0.00     0.185 C 
BRANCH   5   6
HETATM    6  S   UNL     1      -3.553   5.061 -32.050  1.00  0.00    -0.083 SA
BRANCH   6   7
HETATM    7  C   UNL     1      -1.977   5.298 -31.401  1.00  0.00     0.167 A 
HETATM    8  N   UNL     1      -0.845   4.820 -31.856  1.00  0.00    -0.235 NA
HETATM    9  C   UNL     1       0.100   5.281 -30.968  1.00  0.00     0.149 A 
HETATM   10  C   UNL     1      -0.468   6.027 -29.946  1.00  0.00     0.062 A 
HETATM   11  N   UNL     1      -1.808   6.032 -30.267  1.00  0.00    -0.333 N 
HETATM   12  H   UNL     1      -2.553   6.492 -29.765  1.00  0.00     0.168 HD
BRANCH  10  13
HETATM   13  C   UNL     1       0.115   6.690 -28.778  1.00  0.00    -0.008 A 
HETATM   14  C   UNL     1      -0.165   6.224 -27.485  1.00  0.00     0.014 A 
HETATM   15  C   UNL     1       0.373   6.854 -26.359  1.00  0.00     0.001 A 
HETATM   16  C   UNL     1       1.201   7.962 -26.510  1.00  0.00     0.000 A 
HETATM   17  C   UNL     1       1.490   8.441 -27.785  1.00  0.00     0.001 A 
HETATM   18  C   UNL     1       0.949   7.810 -28.911  1.00  0.00     0.014 A 
ENDBRANCH  10  13
ENDBRANCH   6   7
ENDBRANCH   5   6
ENDBRANCH   2   5
BRANCH   1  19
HETATM   19  C   UNL     1      -4.999   1.272 -32.494  1.00  0.00     0.034 A 
HETATM   20  C   UNL     1      -4.526   0.051 -32.019  1.00  0.00     0.032 A 
HETATM   21  C   UNL     1      -4.978  -1.157 -32.575  1.00  0.00     0.032 A 
HETATM   22  C   UNL     1      -5.907  -1.160 -33.615  1.00  0.00     0.034 A 
HETATM   23  C   UNL     1      -6.370   0.068 -34.101  1.00  0.00     0.032 A 
HETATM   24  C   UNL     1      -5.923   1.271 -33.544  1.00  0.00     0.032 A 
BRANCH  22  25
HETATM   25  N   UNL     1      -6.430  -2.326 -34.211  1.00  0.00    -0.328 N 
HETATM   26  C   UNL     1      -5.725  -3.362 -34.795  1.00  0.00     0.218 C 
HETATM   27  C   UNL     1      -6.624  -4.467 -35.293  1.00  0.00     0.117 C 
HETATM   28  O   UNL     1      -4.511  -3.436 -34.945  1.00  0.00    -0.274 OA
HETATM   29  H   UNL     1      -7.438  -2.411 -34.196  1.00  0.00     0.169 HD
ENDBRANCH  22  25
ENDBRANCH   1  19
TORSDOF 6
ENDMDL
MODEL 6
REMARK VINA RESULT:      -8.0      1.691      1.965
REMARK  6 active torsions:
REMARK  status: ('A' for Active; 'I' for Inactive)
REMARK       I    between atoms: C_2  and  N_3 
REMARK    1  A    between atoms: N_3  and  C_4 
REMARK    2  A    between atoms: C_7  and  N_8 
REMARK       I    between atoms: N_8  and  C_9 
REMARK    3  A    between atoms: C_9  and  C_10 
REMARK    4  A    between atoms: C_10  and  S_11 
REMARK    5  A    between atoms: S_11  and  C_12 
REMARK    6  A    between atoms: C_15  and  C_16 
ROOT
HETATM    1  N   UNL     1      -7.713   3.682 -32.118  1.00  0.00    -0.327 N 
HETATM    2  C   UNL     1      -6.845   4.377 -32.942  1.00  0.00     0.231 C 
HETATM    3  O   UNL     1      -6.994   4.584 -34.143  1.00  0.00    -0.272 OA
HETATM    4  H   UNL     1      -7.506   3.736 -31.118  1.00  0.00     0.169 HD
ENDROOT
BRANCH   2   5
HETATM    5  C   UNL     1      -5.605   4.876 -32.214  1.00  0.00     0.185 C 
BRANCH   5   6
HETATM    6  S   UNL     1      -4.172   3.815 -32.544  1.00  0.00    -0.083 SA
BRANCH   6   7
HETATM    7  C   UNL     1      -4.825   2.252 -32.238  1.00  0.00     0.167 A 
HETATM    8  N   UNL     1      -5.310   1.796 -31.109  1.00  0.00    -0.235 NA
HETATM    9  C   UNL     1      -5.670   0.499 -31.394  1.00  0.00     0.149 A 
HETATM   10  C   UNL     1      -5.376   0.154 -32.705  1.00  0.00     0.062 A 
HETATM   11  N   UNL     1      -4.848   1.316 -33.225  1.00  0.00    -0.333 N 
HETATM   12  H   UNL     1      -4.527   1.469 -34.169  1.00  0.00     0.168 HD
BRANCH  10  13
HETATM   13  C   UNL     1      -5.548  -1.094 -33.451  1.00  0.00    -0.008 A 
HETATM   14  C   UNL     1      -6.828  -1.518 -33.840  1.00  0.00     0.014 A 
HETATM   15  C   UNL     1      -7.009  -2.713 -34.540  1.00  0.00     0.001 A 
HETATM   16  C   UNL     1      -5.912  -3.505 -34.863  1.00  0.00     0.000 A 
HETATM   17  C   UNL     1      -4.634  -3.103 -34.486  1.00  0.00     0.001 A 
HETATM   18  C   UNL     1      -4.453  -1.907 -33.783  1.00  0.00     0.014 A 
ENDBRANCH  10  13
ENDBRANCH   6   7
ENDBRANCH   5   6
ENDBRANCH   2   5
BRANCH   1  19
HETATM   19  C   UNL     1      -8.899   3.013 -32.470  1.00  0.00     0.034 A 
HETATM   20  C   UNL     1      -8.959   1.677 -32.860  1.00  0.00     0.032 A 
HETATM   21  C   UNL     1     -10.192   1.075 -33.160  1.00  0.00     0.032 A 
HETATM   22  C   UNL     1     -11.380   1.800 -33.075  1.00  0.00     0.034 A 
HETATM   23  C   UNL     1     -11.315   3.146 -32.696  1.00  0.00     0.032 A 
HETATM   24  C   UNL     1     -10.088   3.745 -32.395  1.00  0.00     0.032 A 
BRANCH  22  25
HETATM   25  N   UNL     1     -12.658   1.265 -33.333  1.00  0.00    -0.328 N 
HETATM   26  C   UNL     1     -13.392   1.362 -34.501  1.00  0.00     0.218 C 
HETATM   27  C   UNL     1     -14.708   0.626 -34.423  1.00  0.00     0.117 C 
HETATM   28  O   UNL     1     -13.084   1.975 -35.516  1.00  0.00    -0.274 OA
HETATM   29  H   UNL     1     -13.076   0.742 -32.574  1.00  0.00     0.169 HD
ENDBRANCH  22  25
ENDBRANCH   1  19
TORSDOF 6
ENDMDL
MODEL 7
REMARK VINA RESULT:      -7.9      3.258      6.755
REMARK  6 active torsions:
REMARK  status: ('A' for Active; 'I' for Inactive)
REMARK       I    between atoms: C_2  and  N_3 
REMARK    1  A    between atoms: N_3  and  C_4 
REMARK    2  A    between atoms: C_7  and  N_8 
REMARK       I    between atoms: N_8  and  C_9 
REMARK    3  A    between atoms: C_9  and  C_10 
REMARK    4  A    between atoms: C_10  and  S_11 
REMARK    5  A    between atoms: S_11  and  C_12 
REMARK    6  A    between atoms: C_15  and  C_16 
ROOT
HETATM    1  N   UNL     1      -7.426   3.860 -32.396  1.00  0.00    -0.327 N 
HETATM    2  C   UNL     1      -8.107   4.499 -33.416  1.00  0.00     0.231 C 
HETATM    3  O   UNL     1      -7.609   5.200 -34.293  1.00  0.00    -0.272 OA
HETATM    4  H   UNL     1      -7.980   3.198 -31.847  1.00  0.00     0.169 HD
ENDROOT
BRANCH   2   5
HETATM    5  C   UNL     1      -9.613   4.279 -33.357  1.00  0.00     0.185 C 
BRANCH   5   6
HETATM    6  S   UNL     1     -10.100   2.794 -34.279  1.00  0.00    -0.083 SA
BRANCH   6   7
HETATM    7  C   UNL     1      -9.165   1.581 -33.494  1.00  0.00     0.167 A 
HETATM    8  N   UNL     1      -9.162   1.273 -32.220  1.00  0.00    -0.235 NA
HETATM    9  C   UNL     1      -8.231   0.266 -32.117  1.00  0.00     0.149 A 
HETATM   10  C   UNL     1      -7.641  -0.024 -33.338  1.00  0.00     0.062 A 
HETATM   11  N   UNL     1      -8.282   0.831 -34.208  1.00  0.00    -0.333 N 
HETATM   12  H   UNL     1      -8.137   0.908 -35.203  1.00  0.00     0.168 HD
BRANCH  10  13
HETATM   13  C   UNL     1      -6.600  -0.980 -33.720  1.00  0.00    -0.008 A 
HETATM   14  C   UNL     1      -5.262  -0.751 -33.364  1.00  0.00     0.014 A 
HETATM   15  C   UNL     1      -4.255  -1.647 -33.733  1.00  0.00     0.001 A 
HETATM   16  C   UNL     1      -4.570  -2.789 -34.462  1.00  0.00     0.000 A 
HETATM   17  C   UNL     1      -5.892  -3.034 -34.824  1.00  0.00     0.001 A 
HETATM   18  C   UNL     1      -6.899  -2.136 -34.457  1.00  0.00     0.014 A 
ENDBRANCH  10  13
ENDBRANCH   6   7
ENDBRANCH   5   6
ENDBRANCH   2   5
BRANCH   1  19
HETATM   19  C   UNL     1      -6.054   3.918 -32.095  1.00  0.00     0.034 A 
HETATM   20  C   UNL     1      -5.119   2.975 -32.515  1.00  0.00     0.032 A 
HETATM   21  C   UNL     1      -3.758   3.128 -32.201  1.00  0.00     0.032 A 
HETATM   22  C   UNL     1      -3.316   4.224 -31.462  1.00  0.00     0.034 A 
HETATM   23  C   UNL     1      -4.259   5.163 -31.029  1.00  0.00     0.032 A 
HETATM   24  C   UNL     1      -5.613   5.012 -31.344  1.00  0.00     0.032 A 
BRANCH  22  25
HETATM   25  N   UNL     1      -1.967   4.466 -31.127  1.00  0.00    -0.328 N 
HETATM   26  C   UNL     1      -1.019   5.135 -31.880  1.00  0.00     0.218 C 
HETATM   27  C   UNL     1       0.313   5.234 -31.179  1.00  0.00     0.117 C 
HETATM   28  O   UNL     1      -1.166   5.603 -33.003  1.00  0.00    -0.274 OA
HETATM   29  H   UNL     1      -1.669   4.113 -30.227  1.00  0.00     0.169 HD
ENDBRANCH  22  25
ENDBRANCH   1  19
TORSDOF 6
ENDMDL
MODEL 8
REMARK VINA RESULT:      -7.6      2.107      2.812
REMARK  6 active torsions:
REMARK  status: ('A' for Active; 'I' for Inactive)
REMARK       I    between atoms: C_2  and  N_3 
REMARK    1  A    between atoms: N_3  and  C_4 
REMARK    2  A    between atoms: C_7  and  N_8 
REMARK       I    between atoms: N_8  and  C_9 
REMARK    3  A    between atoms: C_9  and  C_10 
REMARK    4  A    between atoms: C_10  and  S_11 
REMARK    5  A    between atoms: S_11  and  C_12 
REMARK    6  A    between atoms: C_15  and  C_16 
ROOT
HETATM    1  N   UNL     1      -8.681   3.277 -33.598  1.00  0.00    -0.327 N 
HETATM    2  C   UNL     1      -7.850   3.393 -32.498  1.00  0.00     0.231 C 
HETATM    3  O   UNL     1      -8.160   3.182 -31.328  1.00  0.00    -0.272 OA
HETATM    4  H   UNL     1      -8.216   3.344 -34.507  1.00  0.00     0.169 HD
ENDROOT
BRANCH   2   5
HETATM    5  C   UNL     1      -6.445   3.854 -32.859  1.00  0.00     0.185 C 
BRANCH   5   6
HETATM    6  S   UNL     1      -5.217   2.562 -32.518  1.00  0.00    -0.083 SA
BRANCH   6   7
HETATM    7  C   UNL     1      -5.776   1.283 -33.527  1.00  0.00     0.167 A 
HETATM    8  N   UNL     1      -6.664   1.354 -34.489  1.00  0.00    -0.235 NA
HETATM    9  C   UNL     1      -6.764   0.063 -34.953  1.00  0.00     0.149 A 
HETATM   10  C   UNL     1      -5.947  -0.808 -34.247  1.00  0.00     0.062 A 
HETATM   11  N   UNL     1      -5.311   0.018 -33.346  1.00  0.00    -0.333 N 
HETATM   12  H   UNL     1      -4.619  -0.247 -32.662  1.00  0.00     0.168 HD
BRANCH  10  13
HETATM   13  C   UNL     1      -5.734  -2.253 -34.353  1.00  0.00    -0.008 A 
HETATM   14  C   UNL     1      -4.481  -2.808 -34.052  1.00  0.00     0.014 A 
HETATM   15  C   UNL     1      -4.258  -4.184 -34.162  1.00  0.00     0.001 A 
HETATM   16  C   UNL     1      -5.285  -5.026 -34.574  1.00  0.00     0.000 A 
HETATM   17  C   UNL     1      -6.535  -4.494 -34.878  1.00  0.00     0.001 A 
HETATM   18  C   UNL     1      -6.757  -3.117 -34.770  1.00  0.00     0.014 A 
ENDBRANCH  10  13
ENDBRANCH   6   7
ENDBRANCH   5   6
ENDBRANCH   2   5
BRANCH   1  19
HETATM   19  C   UNL     1     -10.052   2.964 -33.624  1.00  0.00     0.034 A 
HETATM   20  C   UNL     1     -10.559   1.673 -33.745  1.00  0.00     0.032 A 
HETATM   21  C   UNL     1     -11.945   1.444 -33.726  1.00  0.00     0.032 A 
HETATM   22  C   UNL     1     -12.841   2.503 -33.587  1.00  0.00     0.034 A 
HETATM   23  C   UNL     1     -12.329   3.801 -33.480  1.00  0.00     0.032 A 
HETATM   24  C   UNL     1     -10.949   4.028 -33.496  1.00  0.00     0.032 A 
BRANCH  22  25
HETATM   25  N   UNL     1     -14.242   2.357 -33.533  1.00  0.00    -0.328 N 
HETATM   26  C   UNL     1     -15.051   2.406 -32.412  1.00  0.00     0.218 C 
HETATM   27  C   UNL     1     -16.514   2.248 -32.745  1.00  0.00     0.117 C 
HETATM   28  O   UNL     1     -14.691   2.539 -31.248  1.00  0.00    -0.274 OA
HETATM   29  H   UNL     1     -14.702   2.210 -34.421  1.00  0.00     0.169 HD
ENDBRANCH  22  25
ENDBRANCH   1  19
TORSDOF 6
ENDMDL
MODEL 9
REMARK VINA RESULT:      -7.4      2.537      3.218
REMARK  6 active torsions:
REMARK  status: ('A' for Active; 'I' for Inactive)
REMARK       I    between atoms: C_2  and  N_3 
REMARK    1  A    between atoms: N_3  and  C_4 
REMARK    2  A    between atoms: C_7  and  N_8 
REMARK       I    between atoms: N_8  and  C_9 
REMARK    3  A    between atoms: C_9  and  C_10 
REMARK    4  A    between atoms: C_10  and  S_11 
REMARK    5  A    between atoms: S_11  and  C_12 
REMARK    6  A    between atoms: C_15  and  C_16 
ROOT
HETATM    1  N   UNL     1      -5.930   5.155 -32.635  1.00  0.00    -0.327 N 
HETATM    2  C   UNL     1      -4.742   5.453 -33.278  1.00  0.00     0.231 C 
HETATM    3  O   UNL     1      -4.542   5.413 -34.489  1.00  0.00    -0.272 OA
HETATM    4  H   UNL     1      -5.959   5.387 -31.639  1.00  0.00     0.169 HD
ENDROOT
BRANCH   2   5
HETATM    5  C   UNL     1      -3.624   5.835 -32.317  1.00  0.00     0.185 C 
BRANCH   5   6
HETATM    6  S   UNL     1      -2.448   4.472 -32.095  1.00  0.00    -0.083 SA
BRANCH   6   7
HETATM    7  C   UNL     1      -3.510   3.140 -31.849  1.00  0.00     0.167 A 
HETATM    8  N   UNL     1      -4.274   2.908 -30.809  1.00  0.00    -0.235 NA
HETATM    9  C   UNL     1      -4.892   1.714 -31.102  1.00  0.00     0.149 A 
HETATM   10  C   UNL     1      -4.479   1.201 -32.322  1.00  0.00     0.062 A 
HETATM   11  N   UNL     1      -3.601   2.156 -32.784  1.00  0.00    -0.333 N 
HETATM   12  H   UNL     1      -3.099   2.149 -33.660  1.00  0.00     0.168 HD
BRANCH  10  13
HETATM   13  C   UNL     1      -4.829  -0.030 -33.035  1.00  0.00    -0.008 A 
HETATM   14  C   UNL     1      -6.075  -0.153 -33.668  1.00  0.00     0.014 A 
HETATM   15  C   UNL     1      -6.428  -1.325 -34.341  1.00  0.00     0.001 A 
HETATM   16  C   UNL     1      -5.540  -2.395 -34.391  1.00  0.00     0.000 A 
HETATM   17  C   UNL     1      -4.299  -2.292 -33.769  1.00  0.00     0.001 A 
HETATM   18  C   UNL     1      -3.947  -1.119 -33.094  1.00  0.00     0.014 A 
ENDBRANCH  10  13
ENDBRANCH   6   7
ENDBRANCH   5   6
ENDBRANCH   2   5
BRANCH   1  19
HETATM   19  C   UNL     1      -7.129   4.684 -33.198  1.00  0.00     0.034 A 
HETATM   20  C   UNL     1      -8.172   5.505 -33.622  1.00  0.00     0.032 A 
HETATM   21  C   UNL     1      -9.323   4.954 -34.208  1.00  0.00     0.032 A 
HETATM   22  C   UNL     1      -9.448   3.576 -34.376  1.00  0.00     0.034 A 
HETATM   23  C   UNL     1      -8.406   2.752 -33.936  1.00  0.00     0.032 A 
HETATM   24  C   UNL     1      -7.258   3.301 -33.356  1.00  0.00     0.032 A 
BRANCH  22  25
HETATM   25  N   UNL     1     -10.557   2.946 -34.977  1.00  0.00    -0.328 N 
HETATM   26  C   UNL     1     -11.662   2.405 -34.346  1.00  0.00     0.218 C 
HETATM   27  C   UNL     1     -12.672   1.848 -35.320  1.00  0.00     0.117 C 
HETATM   28  O   UNL     1     -11.861   2.332 -33.139  1.00  0.00    -0.274 OA
HETATM   29  H   UNL     1     -10.538   2.896 -35.987  1.00  0.00     0.169 HD
ENDBRANCH  22  25
ENDBRANCH   1  19
TORSDOF 6
ENDMDL
MODEL 10
REMARK VINA RESULT:      -7.1      1.925      2.260
REMARK  6 active torsions:
REMARK  status: ('A' for Active; 'I' for Inactive)
REMARK       I    between atoms: C_2  and  N_3 
REMARK    1  A    between atoms: N_3  and  C_4 
REMARK    2  A    between atoms: C_7  and  N_8 
REMARK       I    between atoms: N_8  and  C_9 
REMARK    3  A    between atoms: C_9  and  C_10 
REMARK    4  A    between atoms: C_10  and  S_11 
REMARK    5  A    between atoms: S_11  and  C_12 
REMARK    6  A    between atoms: C_15  and  C_16 
ROOT
HETATM    1  N   UNL     1      -7.504   3.184 -33.355  1.00  0.00    -0.327 N 
HETATM    2  C   UNL     1      -6.588   2.569 -32.520  1.00  0.00     0.231 C 
HETATM    3  O   UNL     1      -6.841   1.983 -31.471  1.00  0.00    -0.272 OA
HETATM    4  H   UNL     1      -7.136   3.491 -34.259  1.00  0.00     0.169 HD
ENDROOT
BRANCH   2   5
HETATM    5  C   UNL     1      -5.153   2.700 -33.012  1.00  0.00     0.185 C 
BRANCH   5   6
HETATM    6  S   UNL     1      -3.965   2.382 -31.677  1.00  0.00    -0.083 SA
BRANCH   6   7
HETATM    7  C   UNL     1      -3.641   0.706 -31.899  1.00  0.00     0.167 A 
HETATM    8  N   UNL     1      -2.647   0.012 -31.400  1.00  0.00    -0.235 NA
HETATM    9  C   UNL     1      -2.836  -1.256 -31.899  1.00  0.00     0.149 A 
HETATM   10  C   UNL     1      -3.943  -1.328 -32.732  1.00  0.00     0.062 A 
HETATM   11  N   UNL     1      -4.448  -0.047 -32.694  1.00  0.00    -0.333 N 
HETATM   12  H   UNL     1      -5.271   0.297 -33.166  1.00  0.00     0.168 HD
BRANCH  10  13
HETATM   13  C   UNL     1      -4.520  -2.433 -33.500  1.00  0.00    -0.008 A 
HETATM   14  C   UNL     1      -5.690  -2.240 -34.250  1.00  0.00     0.014 A 
HETATM   15  C   UNL     1      -6.260  -3.288 -34.977  1.00  0.00     0.001 A 
HETATM   16  C   UNL     1      -5.668  -4.547 -34.967  1.00  0.00     0.000 A 
HETATM   17  C   UNL     1      -4.507  -4.758 -34.229  1.00  0.00     0.001 A 
HETATM   18  C   UNL     1      -3.938  -3.709 -33.499  1.00  0.00     0.014 A 
ENDBRANCH  10  13
ENDBRANCH   6   7
ENDBRANCH   5   6
ENDBRANCH   2   5
BRANCH   1  19
HETATM   19  C   UNL     1      -8.889   3.334 -33.167  1.00  0.00     0.034 A 
HETATM   20  C   UNL     1      -9.494   4.494 -32.686  1.00  0.00     0.032 A 
HETATM   21  C   UNL     1     -10.890   4.573 -32.563  1.00  0.00     0.032 A 
HETATM   22  C   UNL     1     -11.700   3.495 -32.916  1.00  0.00     0.034 A 
HETATM   23  C   UNL     1     -11.090   2.326 -33.385  1.00  0.00     0.032 A 
HETATM   24  C   UNL     1      -9.699   2.248 -33.511  1.00  0.00     0.032 A 
BRANCH  22  25
HETATM   25  N   UNL     1     -13.109   3.502 -32.847  1.00  0.00    -0.328 N 
HETATM   26  C   UNL     1     -13.896   3.642 -31.718  1.00  0.00     0.218 C 
HETATM   27  C   UNL     1     -15.371   3.643 -32.036  1.00  0.00     0.117 C 
HETATM   28  O   UNL     1     -13.512   3.740 -30.559  1.00  0.00    -0.274 OA
HETATM   29  H   UNL     1     -13.591   3.402 -33.730  1.00  0.00     0.169 HD
ENDBRANCH  22  25
ENDBRANCH   1  19
TORSDOF 6
ENDMDL
