MODEL 1
REMARK VINA RESULT:      -8.5      0.000      0.000
REMARK  8 active torsions:
REMARK  status: ('A' for Active; 'I' for Inactive)
REMARK    1  A    between atoms: C_7  and  C_8 
REMARK    2  A    between atoms: C_10  and  O_11 
REMARK    3  A    between atoms: C_13  and  O_14 
REMARK    4  A    between atoms: O_14  and  C_15 
REMARK    5  A    between atoms: C_15  and  C_16 
REMARK       I    between atoms: C_16  and  N_17 
REMARK    6  A    between atoms: C_21  and  C_22 
REMARK       I    between atoms: C_22  and  N_23 
REMARK    7  A    between atoms: N_23  and  C_24 
REMARK    8  A    between atoms: C_24  and  C_25 
ROOT
HETATM    1  C   UNL     1      -2.752   3.529 -31.572  1.00  0.00     0.069 C 
HETATM    2  C   UNL     1      -4.144   3.328 -31.049  1.00  0.00     0.024 C 
HETATM    3  N   UNL     1      -4.750   4.459 -30.546  1.00  0.00    -0.312 N 
HETATM    4  C   UNL     1      -5.917   4.480 -29.843  1.00  0.00     0.321 C 
HETATM    5  O   UNL     1      -6.376   5.520 -29.384  1.00  0.00    -0.247 OA
HETATM    6  N   UNL     1      -6.529   3.285 -29.655  1.00  0.00    -0.330 N 
HETATM    7  C   UNL     1      -6.180   2.061 -30.354  1.00  0.00     0.160 C 
HETATM    8  C   UNL     1      -4.815   2.162 -30.979  1.00  0.00     0.059 C 
HETATM    9  H   UNL     1      -4.277   5.353 -30.592  1.00  0.00     0.170 HD
HETATM   10  H   UNL     1      -7.405   3.326 -29.154  1.00  0.00     0.165 HD
ENDROOT
BRANCH   7  11
HETATM   11  C   UNL     1      -7.273   1.732 -31.363  1.00  0.00    -0.028 A 
HETATM   12  C   UNL     1      -7.584   2.611 -32.418  1.00  0.00     0.049 A 
HETATM   13  C   UNL     1      -8.619   2.341 -33.328  1.00  0.00     0.102 A 
HETATM   14  C   UNL     1      -9.334   1.139 -33.202  1.00  0.00     0.102 A 
HETATM   15  C   UNL     1      -9.025   0.260 -32.155  1.00  0.00     0.040 A 
HETATM   16  C   UNL     1      -8.005   0.547 -31.245  1.00  0.00     0.012 A 
BRANCH  13  17
HETATM   17  O   UNL     1      -8.953   3.199 -34.340  1.00  0.00    -0.353 OA
HETATM   18  C   UNL     1      -9.375   4.512 -33.984  1.00  0.00     0.210 C 
ENDBRANCH  13  17
BRANCH  14  19
HETATM   19  O   UNL     1     -10.376   0.687 -33.971  1.00  0.00    -0.339 OA
BRANCH  19  20
HETATM   20  C   UNL     1     -11.698   1.085 -33.619  1.00  0.00     0.278 C 
BRANCH  20  21
HETATM   21  C   UNL     1     -12.428   1.618 -34.851  1.00  0.00     0.239 C 
HETATM   22  N   UNL     1     -11.647   2.257 -35.772  1.00  0.00    -0.368 N 
HETATM   23  H   UNL     1     -10.707   2.539 -35.520  1.00  0.00     0.159 HD
HETATM   24  H   UNL     1     -12.099   2.681 -36.569  1.00  0.00     0.159 HD
HETATM   25  O   UNL     1     -13.627   1.448 -35.053  1.00  0.00    -0.271 OA
ENDBRANCH  20  21
ENDBRANCH  19  20
ENDBRANCH  14  19
ENDBRANCH   7  11
BRANCH   8  26
HETATM   26  C   UNL     1      -4.241   0.864 -31.413  1.00  0.00     0.252 C 
HETATM   27  N   UNL     1      -4.173   0.684 -32.771  1.00  0.00    -0.353 N 
HETATM   28  H   UNL     1      -4.688   1.308 -33.379  1.00  0.00     0.163 HD
HETATM   29  O   UNL     1      -3.923   0.016 -30.588  1.00  0.00    -0.268 OA
BRANCH  27  30
HETATM   30  C   UNL     1      -3.705  -0.569 -33.320  1.00  0.00     0.161 C 
BRANCH  30  31
HETATM   31  C   UNL     1      -4.811  -1.481 -33.796  1.00  0.00    -0.041 A 
HETATM   32  C   UNL     1      -6.131  -1.040 -33.974  1.00  0.00     0.009 A 
HETATM   33  C   UNL     1      -7.113  -1.902 -34.470  1.00  0.00     0.001 A 
HETATM   34  C   UNL     1      -6.784  -3.209 -34.818  1.00  0.00     0.000 A 
HETATM   35  C   UNL     1      -5.474  -3.656 -34.670  1.00  0.00     0.001 A 
HETATM   36  C   UNL     1      -4.494  -2.798 -34.165  1.00  0.00     0.009 A 
ENDBRANCH  30  31
ENDBRANCH  27  30
ENDBRANCH   8  26
TORSDOF 8
ENDMDL
MODEL 2
REMARK VINA RESULT:      -8.2      2.708      6.492
REMARK  8 active torsions:
REMARK  status: ('A' for Active; 'I' for Inactive)
REMARK    1  A    between atoms: C_7  and  C_8 
REMARK    2  A    between atoms: C_10  and  O_11 
REMARK    3  A    between atoms: C_13  and  O_14 
REMARK    4  A    between atoms: O_14  and  C_15 
REMARK    5  A    between atoms: C_15  and  C_16 
REMARK       I    between atoms: C_16  and  N_17 
REMARK    6  A    between atoms: C_21  and  C_22 
REMARK       I    between atoms: C_22  and  N_23 
REMARK    7  A    between atoms: N_23  and  C_24 
REMARK    8  A    between atoms: C_24  and  C_25 
ROOT
HETATM    1  C   UNL     1      -9.006   4.637 -33.451  1.00  0.00     0.069 C 
HETATM    2  C   UNL     1      -9.095   3.191 -33.056  1.00  0.00     0.024 C 
HETATM    3  N   UNL     1     -10.194   2.518 -33.544  1.00  0.00    -0.312 N 
HETATM    4  C   UNL     1     -10.587   1.271 -33.159  1.00  0.00     0.321 C 
HETATM    5  O   UNL     1     -11.604   0.749 -33.602  1.00  0.00    -0.247 OA
HETATM    6  N   UNL     1      -9.809   0.651 -32.240  1.00  0.00    -0.330 N 
HETATM    7  C   UNL     1      -8.483   1.095 -31.847  1.00  0.00     0.160 C 
HETATM    8  C   UNL     1      -8.250   2.527 -32.245  1.00  0.00     0.059 C 
HETATM    9  H   UNL     1     -10.844   2.985 -34.165  1.00  0.00     0.170 HD
HETATM   10  H   UNL     1     -10.103  -0.282 -31.987  1.00  0.00     0.165 HD
ENDROOT
BRANCH   7  11
HETATM   11  C   UNL     1      -7.444   0.140 -32.422  1.00  0.00    -0.028 A 
HETATM   12  C   UNL     1      -6.260  -0.159 -31.722  1.00  0.00     0.049 A 
HETATM   13  C   UNL     1      -5.274  -1.002 -32.260  1.00  0.00     0.102 A 
HETATM   14  C   UNL     1      -5.498  -1.592 -33.514  1.00  0.00     0.102 A 
HETATM   15  C   UNL     1      -6.678  -1.298 -34.212  1.00  0.00     0.040 A 
HETATM   16  C   UNL     1      -7.644  -0.445 -33.675  1.00  0.00     0.012 A 
BRANCH  13  17
HETATM   17  O   UNL     1      -4.104  -1.279 -31.606  1.00  0.00    -0.353 OA
HETATM   18  C   UNL     1      -3.310  -0.179 -31.174  1.00  0.00     0.210 C 
ENDBRANCH  13  17
BRANCH  14  19
HETATM   19  O   UNL     1      -4.672  -2.431 -34.218  1.00  0.00    -0.339 OA
BRANCH  19  20
HETATM   20  C   UNL     1      -5.215  -3.140 -35.328  1.00  0.00     0.278 C 
BRANCH  20  21
HETATM   21  C   UNL     1      -5.711  -4.513 -34.876  1.00  0.00     0.239 C 
HETATM   22  N   UNL     1      -7.047  -4.744 -35.041  1.00  0.00    -0.368 N 
HETATM   23  H   UNL     1      -7.668  -3.968 -35.236  1.00  0.00     0.159 HD
HETATM   24  H   UNL     1      -7.427  -5.614 -34.696  1.00  0.00     0.159 HD
HETATM   25  O   UNL     1      -4.970  -5.390 -34.440  1.00  0.00    -0.271 OA
ENDBRANCH  20  21
ENDBRANCH  19  20
ENDBRANCH  14  19
ENDBRANCH   7  11
BRANCH   8  26
HETATM   26  C   UNL     1      -7.076   3.161 -31.594  1.00  0.00     0.252 C 
HETATM   27  N   UNL     1      -5.998   3.369 -32.415  1.00  0.00    -0.353 N 
HETATM   28  H   UNL     1      -5.966   2.909 -33.315  1.00  0.00     0.163 HD
HETATM   29  O   UNL     1      -7.088   3.408 -30.394  1.00  0.00    -0.268 OA
BRANCH  27  30
HETATM   30  C   UNL     1      -4.767   3.910 -31.882  1.00  0.00     0.161 C 
BRANCH  30  31
HETATM   31  C   UNL     1      -3.799   4.384 -32.940  1.00  0.00    -0.041 A 
HETATM   32  C   UNL     1      -4.220   4.897 -34.176  1.00  0.00     0.009 A 
HETATM   33  C   UNL     1      -3.293   5.378 -35.105  1.00  0.00     0.001 A 
HETATM   34  C   UNL     1      -1.934   5.375 -34.801  1.00  0.00     0.000 A 
HETATM   35  C   UNL     1      -1.500   4.892 -33.569  1.00  0.00     0.001 A 
HETATM   36  C   UNL     1      -2.426   4.402 -32.645  1.00  0.00     0.009 A 
ENDBRANCH  30  31
ENDBRANCH  27  30
ENDBRANCH   8  26
TORSDOF 8
ENDMDL
MODEL 3
REMARK VINA RESULT:      -8.0      2.793      7.000
REMARK  8 active torsions:
REMARK  status: ('A' for Active; 'I' for Inactive)
REMARK    1  A    between atoms: C_7  and  C_8 
REMARK    2  A    between atoms: C_10  and  O_11 
REMARK    3  A    between atoms: C_13  and  O_14 
REMARK    4  A    between atoms: O_14  and  C_15 
REMARK    5  A    between atoms: C_15  and  C_16 
REMARK       I    between atoms: C_16  and  N_17 
REMARK    6  A    between atoms: C_21  and  C_22 
REMARK       I    between atoms: C_22  and  N_23 
REMARK    7  A    between atoms: N_23  and  C_24 
REMARK    8  A    between atoms: C_24  and  C_25 
ROOT
HETATM    1  C   UNL     1      -8.038   1.201 -31.876  1.00  0.00     0.069 C 
HETATM    2  C   UNL     1      -7.216   2.258 -32.554  1.00  0.00     0.024 C 
HETATM    3  N   UNL     1      -7.920   3.363 -32.981  1.00  0.00    -0.312 N 
HETATM    4  C   UNL     1      -7.429   4.345 -33.789  1.00  0.00     0.321 C 
HETATM    5  O   UNL     1      -8.127   5.278 -34.168  1.00  0.00    -0.247 OA
HETATM    6  N   UNL     1      -6.136   4.218 -34.173  1.00  0.00    -0.330 N 
HETATM    7  C   UNL     1      -5.189   3.285 -33.589  1.00  0.00     0.160 C 
HETATM    8  C   UNL     1      -5.898   2.200 -32.825  1.00  0.00     0.059 C 
HETATM    9  H   UNL     1      -8.910   3.443 -32.785  1.00  0.00     0.170 HD
HETATM   10  H   UNL     1      -5.784   4.969 -34.750  1.00  0.00     0.165 HD
ENDROOT
BRANCH   7  11
HETATM   11  C   UNL     1      -4.187   4.054 -32.738  1.00  0.00    -0.028 A 
HETATM   12  C   UNL     1      -4.605   4.846 -31.651  1.00  0.00     0.049 A 
HETATM   13  C   UNL     1      -3.696   5.595 -30.887  1.00  0.00     0.102 A 
HETATM   14  C   UNL     1      -2.328   5.518 -31.194  1.00  0.00     0.102 A 
HETATM   15  C   UNL     1      -1.909   4.728 -32.273  1.00  0.00     0.040 A 
HETATM   16  C   UNL     1      -2.823   4.000 -33.037  1.00  0.00     0.012 A 
BRANCH  13  17
HETATM   17  O   UNL     1      -4.090   6.394 -29.848  1.00  0.00    -0.353 OA
HETATM   18  C   UNL     1      -5.308   7.118 -29.992  1.00  0.00     0.210 C 
ENDBRANCH  13  17
BRANCH  14  19
HETATM   19  O   UNL     1      -1.284   6.167 -30.585  1.00  0.00    -0.339 OA
BRANCH  19  20
HETATM   20  C   UNL     1       0.024   5.618 -30.720  1.00  0.00     0.278 C 
BRANCH  20  21
HETATM   21  C   UNL     1       0.612   5.329 -29.340  1.00  0.00     0.239 C 
HETATM   22  N   UNL     1       1.268   4.138 -29.213  1.00  0.00    -0.368 N 
HETATM   23  H   UNL     1       1.158   3.428 -29.927  1.00  0.00     0.159 HD
HETATM   24  H   UNL     1       1.615   3.879 -28.300  1.00  0.00     0.159 HD
HETATM   25  O   UNL     1       0.560   6.121 -28.404  1.00  0.00    -0.271 OA
ENDBRANCH  20  21
ENDBRANCH  19  20
ENDBRANCH  14  19
ENDBRANCH   7  11
BRANCH   8  26
HETATM   26  C   UNL     1      -5.047   1.030 -32.488  1.00  0.00     0.252 C 
HETATM   27  N   UNL     1      -4.900   0.110 -33.494  1.00  0.00    -0.353 N 
HETATM   28  H   UNL     1      -5.516   0.151 -34.295  1.00  0.00     0.163 HD
HETATM   29  O   UNL     1      -4.582   0.902 -31.362  1.00  0.00    -0.268 OA
BRANCH  27  30
HETATM   30  C   UNL     1      -4.158  -1.111 -33.267  1.00  0.00     0.161 C 
BRANCH  30  31
HETATM   31  C   UNL     1      -4.801  -2.338 -33.867  1.00  0.00    -0.041 A 
HETATM   32  C   UNL     1      -4.163  -3.587 -33.900  1.00  0.00     0.009 A 
HETATM   33  C   UNL     1      -4.816  -4.711 -34.415  1.00  0.00     0.001 A 
HETATM   34  C   UNL     1      -6.124  -4.607 -34.879  1.00  0.00     0.000 A 
HETATM   35  C   UNL     1      -6.781  -3.381 -34.832  1.00  0.00     0.001 A 
HETATM   36  C   UNL     1      -6.125  -2.255 -34.327  1.00  0.00     0.009 A 
ENDBRANCH  30  31
ENDBRANCH  27  30
ENDBRANCH   8  26
TORSDOF 8
ENDMDL
MODEL 4
REMARK VINA RESULT:      -8.0      2.229      3.136
REMARK  8 active torsions:
REMARK  status: ('A' for Active; 'I' for Inactive)
REMARK    1  A    between atoms: C_7  and  C_8 
REMARK    2  A    between atoms: C_10  and  O_11 
REMARK    3  A    between atoms: C_13  and  O_14 
REMARK    4  A    between atoms: O_14  and  C_15 
REMARK    5  A    between atoms: C_15  and  C_16 
REMARK       I    between atoms: C_16  and  N_17 
REMARK    6  A    between atoms: C_21  and  C_22 
REMARK       I    between atoms: C_22  and  N_23 
REMARK    7  A    between atoms: N_23  and  C_24 
REMARK    8  A    between atoms: C_24  and  C_25 
ROOT
HETATM    1  C   UNL     1      -5.125   2.864 -33.228  1.00  0.00     0.069 C 
HETATM    2  C   UNL     1      -6.354   2.428 -32.486  1.00  0.00     0.024 C 
HETATM    3  N   UNL     1      -6.602   3.106 -31.312  1.00  0.00    -0.312 N 
HETATM    4  C   UNL     1      -7.532   2.754 -30.381  1.00  0.00     0.321 C 
HETATM    5  O   UNL     1      -7.667   3.379 -29.335  1.00  0.00    -0.247 OA
HETATM    6  N   UNL     1      -8.281   1.660 -30.661  1.00  0.00    -0.330 N 
HETATM    7  C   UNL     1      -8.344   1.014 -31.960  1.00  0.00     0.160 C 
HETATM    8  C   UNL     1      -7.184   1.423 -32.827  1.00  0.00     0.059 C 
HETATM    9  H   UNL     1      -6.004   3.874 -31.031  1.00  0.00     0.170 HD
HETATM   10  H   UNL     1      -8.982   1.431 -29.971  1.00  0.00     0.165 HD
ENDROOT
BRANCH   7  11
HETATM   11  C   UNL     1      -9.696   1.306 -32.600  1.00  0.00    -0.028 A 
HETATM   12  C   UNL     1     -10.165   2.625 -32.750  1.00  0.00     0.049 A 
HETATM   13  C   UNL     1     -11.427   2.905 -33.297  1.00  0.00     0.102 A 
HETATM   14  C   UNL     1     -12.225   1.838 -33.741  1.00  0.00     0.102 A 
HETATM   15  C   UNL     1     -11.759   0.523 -33.595  1.00  0.00     0.040 A 
HETATM   16  C   UNL     1     -10.509   0.256 -33.034  1.00  0.00     0.012 A 
BRANCH  13  17
HETATM   17  O   UNL     1     -11.910   4.179 -33.422  1.00  0.00    -0.353 OA
HETATM   18  C   UNL     1     -10.966   5.243 -33.483  1.00  0.00     0.210 C 
ENDBRANCH  13  17
BRANCH  14  19
HETATM   19  O   UNL     1     -13.480   1.889 -34.293  1.00  0.00    -0.339 OA
BRANCH  19  20
HETATM   20  C   UNL     1     -14.555   1.279 -33.583  1.00  0.00     0.278 C 
BRANCH  20  21
HETATM   21  C   UNL     1     -15.149   2.272 -32.585  1.00  0.00     0.239 C 
HETATM   22  N   UNL     1     -14.978   3.593 -32.890  1.00  0.00    -0.368 N 
HETATM   23  H   UNL     1     -14.310   3.859 -33.605  1.00  0.00     0.159 HD
HETATM   24  H   UNL     1     -15.298   4.282 -32.225  1.00  0.00     0.159 HD
HETATM   25  O   UNL     1     -15.790   1.934 -31.595  1.00  0.00    -0.271 OA
ENDBRANCH  20  21
ENDBRANCH  19  20
ENDBRANCH  14  19
ENDBRANCH   7  11
BRANCH   8  26
HETATM   26  C   UNL     1      -6.980   0.567 -34.023  1.00  0.00     0.252 C 
HETATM   27  N   UNL     1      -6.838  -0.771 -33.762  1.00  0.00    -0.353 N 
HETATM   28  H   UNL     1      -6.666  -1.075 -32.812  1.00  0.00     0.163 HD
HETATM   29  O   UNL     1      -6.887   1.067 -35.137  1.00  0.00    -0.268 OA
BRANCH  27  30
HETATM   30  C   UNL     1      -6.557  -1.700 -34.834  1.00  0.00     0.161 C 
BRANCH  30  31
HETATM   31  C   UNL     1      -5.569  -2.781 -34.465  1.00  0.00    -0.041 A 
HETATM   32  C   UNL     1      -4.444  -2.536 -33.664  1.00  0.00     0.009 A 
HETATM   33  C   UNL     1      -3.585  -3.577 -33.299  1.00  0.00     0.001 A 
HETATM   34  C   UNL     1      -3.853  -4.880 -33.709  1.00  0.00     0.000 A 
HETATM   35  C   UNL     1      -4.979  -5.145 -34.484  1.00  0.00     0.001 A 
HETATM   36  C   UNL     1      -5.832  -4.103 -34.857  1.00  0.00     0.009 A 
ENDBRANCH  30  31
ENDBRANCH  27  30
ENDBRANCH   8  26
TORSDOF 8
ENDMDL
MODEL 5
REMARK VINA RESULT:      -7.8      2.677      6.418
REMARK  8 active torsions:
REMARK  status: ('A' for Active; 'I' for Inactive)
REMARK    1  A    between atoms: C_7  and  C_8 
REMARK    2  A    between atoms: C_10  and  O_11 
REMARK    3  A    between atoms: C_13  and  O_14 
REMARK    4  A    between atoms: O_14  and  C_15 
REMARK    5  A    between atoms: C_15  and  C_16 
REMARK       I    between atoms: C_16  and  N_17 
REMARK    6  A    between atoms: C_21  and  C_22 
REMARK       I    between atoms: C_22  and  N_23 
REMARK    7  A    between atoms: N_23  and  C_24 
REMARK    8  A    between atoms: C_24  and  C_25 
ROOT
HETATM    1  C   UNL     1      -8.272   0.741 -31.602  1.00  0.00     0.069 C 
HETATM    2  C   UNL     1      -7.556   1.834 -32.341  1.00  0.00     0.024 C 
HETATM    3  N   UNL     1      -8.341   2.906 -32.705  1.00  0.00    -0.312 N 
HETATM    4  C   UNL     1      -7.962   3.909 -33.547  1.00  0.00     0.321 C 
HETATM    5  O   UNL     1      -8.730   4.810 -33.865  1.00  0.00    -0.247 OA
HETATM    6  N   UNL     1      -6.700   3.841 -34.035  1.00  0.00    -0.330 N 
HETATM    7  C   UNL     1      -5.668   2.951 -33.533  1.00  0.00     0.160 C 
HETATM    8  C   UNL     1      -6.263   1.835 -32.718  1.00  0.00     0.059 C 
HETATM    9  H   UNL     1      -9.315   2.942 -32.430  1.00  0.00     0.170 HD
HETATM   10  H   UNL     1      -6.430   4.606 -34.636  1.00  0.00     0.165 HD
ENDROOT
BRANCH   7  11
HETATM   11  C   UNL     1      -4.636   3.765 -32.763  1.00  0.00    -0.028 A 
HETATM   12  C   UNL     1      -5.022   4.684 -31.769  1.00  0.00     0.049 A 
HETATM   13  C   UNL     1      -4.084   5.473 -31.083  1.00  0.00     0.102 A 
HETATM   14  C   UNL     1      -2.719   5.308 -31.373  1.00  0.00     0.102 A 
HETATM   15  C   UNL     1      -2.332   4.391 -32.361  1.00  0.00     0.040 A 
HETATM   16  C   UNL     1      -3.275   3.624 -33.048  1.00  0.00     0.012 A 
BRANCH  13  17
HETATM   17  O   UNL     1      -4.445   6.392 -30.137  1.00  0.00    -0.353 OA
HETATM   18  C   UNL     1      -5.252   7.490 -30.552  1.00  0.00     0.210 C 
ENDBRANCH  13  17
BRANCH  14  19
HETATM   19  O   UNL     1      -1.650   5.975 -30.832  1.00  0.00    -0.339 OA
BRANCH  19  20
HETATM   20  C   UNL     1      -0.758   6.651 -31.714  1.00  0.00     0.278 C 
BRANCH  20  21
HETATM   21  C   UNL     1      -1.485   7.804 -32.405  1.00  0.00     0.239 C 
HETATM   22  N   UNL     1      -2.002   8.760 -31.577  1.00  0.00    -0.368 N 
HETATM   23  H   UNL     1      -2.080   8.571 -30.584  1.00  0.00     0.159 HD
HETATM   24  H   UNL     1      -2.545   9.505 -31.988  1.00  0.00     0.159 HD
HETATM   25  O   UNL     1      -1.566   7.918 -33.624  1.00  0.00    -0.271 OA
ENDBRANCH  20  21
ENDBRANCH  19  20
ENDBRANCH  14  19
ENDBRANCH   7  11
BRANCH   8  26
HETATM   26  C   UNL     1      -5.336   0.705 -32.455  1.00  0.00     0.252 C 
HETATM   27  N   UNL     1      -5.064  -0.086 -33.541  1.00  0.00    -0.353 N 
HETATM   28  H   UNL     1      -5.640  -0.007 -34.368  1.00  0.00     0.163 HD
HETATM   29  O   UNL     1      -4.919   0.492 -31.323  1.00  0.00    -0.268 OA
BRANCH  27  30
HETATM   30  C   UNL     1      -4.236  -1.264 -33.398  1.00  0.00     0.161 C 
BRANCH  30  31
HETATM   31  C   UNL     1      -4.843  -2.514 -33.987  1.00  0.00    -0.041 A 
HETATM   32  C   UNL     1      -4.179  -3.750 -33.989  1.00  0.00     0.009 A 
HETATM   33  C   UNL     1      -4.801  -4.896 -34.494  1.00  0.00     0.001 A 
HETATM   34  C   UNL     1      -6.103  -4.827 -34.981  1.00  0.00     0.000 A 
HETATM   35  C   UNL     1      -6.786  -3.614 -34.965  1.00  0.00     0.001 A 
HETATM   36  C   UNL     1      -6.161  -2.466 -34.469  1.00  0.00     0.009 A 
ENDBRANCH  30  31
ENDBRANCH  27  30
ENDBRANCH   8  26
TORSDOF 8
ENDMDL
MODEL 6
REMARK VINA RESULT:      -7.7      2.364      5.329
REMARK  8 active torsions:
REMARK  status: ('A' for Active; 'I' for Inactive)
REMARK    1  A    between atoms: C_7  and  C_8 
REMARK    2  A    between atoms: C_10  and  O_11 
REMARK    3  A    between atoms: C_13  and  O_14 
REMARK    4  A    between atoms: O_14  and  C_15 
REMARK    5  A    between atoms: C_15  and  C_16 
REMARK       I    between atoms: C_16  and  N_17 
REMARK    6  A    between atoms: C_21  and  C_22 
REMARK       I    between atoms: C_22  and  N_23 
REMARK    7  A    between atoms: N_23  and  C_24 
REMARK    8  A    between atoms: C_24  and  C_25 
ROOT
HETATM    1  C   UNL     1      -4.052  -0.029 -30.903  1.00  0.00     0.069 C 
HETATM    2  C   UNL     1      -4.906  -0.106 -32.135  1.00  0.00     0.024 C 
HETATM    3  N   UNL     1      -4.927  -1.335 -32.757  1.00  0.00    -0.312 N 
HETATM    4  C   UNL     1      -5.462  -1.586 -33.985  1.00  0.00     0.321 C 
HETATM    5  O   UNL     1      -5.405  -2.697 -34.500  1.00  0.00    -0.247 OA
HETATM    6  N   UNL     1      -6.038  -0.535 -34.618  1.00  0.00    -0.330 N 
HETATM    7  C   UNL     1      -6.351   0.736 -33.988  1.00  0.00     0.160 C 
HETATM    8  C   UNL     1      -5.592   0.906 -32.701  1.00  0.00     0.059 C 
HETATM    9  H   UNL     1      -4.431  -2.120 -32.353  1.00  0.00     0.170 HD
HETATM   10  H   UNL     1      -6.451  -0.748 -35.515  1.00  0.00     0.165 HD
ENDROOT
BRANCH   7  11
HETATM   11  C   UNL     1      -7.860   0.848 -33.809  1.00  0.00    -0.028 A 
HETATM   12  C   UNL     1      -8.597   1.869 -34.438  1.00  0.00     0.049 A 
HETATM   13  C   UNL     1      -9.981   2.011 -34.245  1.00  0.00     0.102 A 
HETATM   14  C   UNL     1     -10.651   1.080 -33.434  1.00  0.00     0.102 A 
HETATM   15  C   UNL     1      -9.919   0.060 -32.810  1.00  0.00     0.040 A 
HETATM   16  C   UNL     1      -8.541  -0.061 -32.995  1.00  0.00     0.012 A 
BRANCH  13  17
HETATM   17  O   UNL     1     -10.706   3.016 -34.824  1.00  0.00    -0.353 OA
HETATM   18  C   UNL     1     -10.383   4.357 -34.468  1.00  0.00     0.210 C 
ENDBRANCH  13  17
BRANCH  14  19
HETATM   19  O   UNL     1     -11.983   1.039 -33.111  1.00  0.00    -0.339 OA
BRANCH  19  20
HETATM   20  C   UNL     1     -12.855   0.272 -33.936  1.00  0.00     0.278 C 
BRANCH  20  21
HETATM   21  C   UNL     1     -14.047   1.124 -34.368  1.00  0.00     0.239 C 
HETATM   22  N   UNL     1     -13.835   2.474 -34.388  1.00  0.00    -0.368 N 
HETATM   23  H   UNL     1     -13.017   2.858 -33.928  1.00  0.00     0.159 HD
HETATM   24  H   UNL     1     -14.615   3.077 -34.605  1.00  0.00     0.159 HD
HETATM   25  O   UNL     1     -15.120   0.651 -34.732  1.00  0.00    -0.271 OA
ENDBRANCH  20  21
ENDBRANCH  19  20
ENDBRANCH  14  19
ENDBRANCH   7  11
BRANCH   8  26
HETATM   26  C   UNL     1      -5.584   2.293 -32.171  1.00  0.00     0.252 C 
HETATM   27  N   UNL     1      -4.622   3.112 -32.703  1.00  0.00    -0.353 N 
HETATM   28  H   UNL     1      -3.864   2.705 -33.234  1.00  0.00     0.163 HD
HETATM   29  O   UNL     1      -6.357   2.623 -31.280  1.00  0.00    -0.268 OA
BRANCH  27  30
HETATM   30  C   UNL     1      -4.461   4.464 -32.215  1.00  0.00     0.161 C 
BRANCH  30  31
HETATM   31  C   UNL     1      -3.361   5.236 -32.903  1.00  0.00    -0.041 A 
HETATM   32  C   UNL     1      -2.941   6.503 -32.470  1.00  0.00     0.009 A 
HETATM   33  C   UNL     1      -1.880   7.159 -33.101  1.00  0.00     0.001 A 
HETATM   34  C   UNL     1      -1.208   6.548 -34.155  1.00  0.00     0.000 A 
HETATM   35  C   UNL     1      -1.596   5.281 -34.582  1.00  0.00     0.001 A 
HETATM   36  C   UNL     1      -2.663   4.629 -33.959  1.00  0.00     0.009 A 
ENDBRANCH  30  31
ENDBRANCH  27  30
ENDBRANCH   8  26
TORSDOF 8
ENDMDL
MODEL 7
REMARK VINA RESULT:      -7.6      2.942      6.950
REMARK  8 active torsions:
REMARK  status: ('A' for Active; 'I' for Inactive)
REMARK    1  A    between atoms: C_7  and  C_8 
REMARK    2  A    between atoms: C_10  and  O_11 
REMARK    3  A    between atoms: C_13  and  O_14 
REMARK    4  A    between atoms: O_14  and  C_15 
REMARK    5  A    between atoms: C_15  and  C_16 
REMARK       I    between atoms: C_16  and  N_17 
REMARK    6  A    between atoms: C_21  and  C_22 
REMARK       I    between atoms: C_22  and  N_23 
REMARK    7  A    between atoms: N_23  and  C_24 
REMARK    8  A    between atoms: C_24  and  C_25 
ROOT
HETATM    1  C   UNL     1      -8.192   0.715 -31.564  1.00  0.00     0.069 C 
HETATM    2  C   UNL     1      -7.524   1.829 -32.316  1.00  0.00     0.024 C 
HETATM    3  N   UNL     1      -8.340   2.892 -32.637  1.00  0.00    -0.312 N 
HETATM    4  C   UNL     1      -8.011   3.911 -33.481  1.00  0.00     0.321 C 
HETATM    5  O   UNL     1      -8.805   4.802 -33.758  1.00  0.00    -0.247 OA
HETATM    6  N   UNL     1      -6.767   3.871 -34.017  1.00  0.00    -0.330 N 
HETATM    7  C   UNL     1      -5.702   2.993 -33.564  1.00  0.00     0.160 C 
HETATM    8  C   UNL     1      -6.246   1.858 -32.741  1.00  0.00     0.059 C 
HETATM    9  H   UNL     1      -9.303   2.907 -32.325  1.00  0.00     0.170 HD
HETATM   10  H   UNL     1      -6.533   4.648 -34.618  1.00  0.00     0.165 HD
ENDROOT
BRANCH   7  11
HETATM   11  C   UNL     1      -4.655   3.817 -32.824  1.00  0.00    -0.028 A 
HETATM   12  C   UNL     1      -3.429   4.155 -33.429  1.00  0.00     0.049 A 
HETATM   13  C   UNL     1      -2.438   4.875 -32.742  1.00  0.00     0.102 A 
HETATM   14  C   UNL     1      -2.697   5.301 -31.430  1.00  0.00     0.102 A 
HETATM   15  C   UNL     1      -3.918   4.968 -30.826  1.00  0.00     0.040 A 
HETATM   16  C   UNL     1      -4.890   4.238 -31.512  1.00  0.00     0.012 A 
BRANCH  13  17
HETATM   17  O   UNL     1      -1.230   5.185 -33.305  1.00  0.00    -0.353 OA
HETATM   18  C   UNL     1      -1.188   6.262 -34.235  1.00  0.00     0.210 C 
ENDBRANCH  13  17
BRANCH  14  19
HETATM   19  O   UNL     1      -1.873   6.002 -30.587  1.00  0.00    -0.339 OA
BRANCH  19  20
HETATM   20  C   UNL     1      -0.625   5.418 -30.222  1.00  0.00     0.278 C 
BRANCH  20  21
HETATM   21  C   UNL     1       0.018   6.226 -29.096  1.00  0.00     0.239 C 
HETATM   22  N   UNL     1      -0.075   5.679 -27.847  1.00  0.00    -0.368 N 
HETATM   23  H   UNL     1      -0.722   4.916 -27.682  1.00  0.00     0.159 HD
HETATM   24  H   UNL     1       0.280   6.211 -27.065  1.00  0.00     0.159 HD
HETATM   25  O   UNL     1       0.632   7.272 -29.279  1.00  0.00    -0.271 OA
ENDBRANCH  20  21
ENDBRANCH  19  20
ENDBRANCH  14  19
ENDBRANCH   7  11
BRANCH   8  26
HETATM   26  C   UNL     1      -5.291   0.741 -32.528  1.00  0.00     0.252 C 
HETATM   27  N   UNL     1      -5.024  -0.015 -33.640  1.00  0.00    -0.353 N 
HETATM   28  H   UNL     1      -5.619   0.073 -34.453  1.00  0.00     0.163 HD
HETATM   29  O   UNL     1      -4.845   0.508 -31.411  1.00  0.00    -0.268 OA
BRANCH  27  30
HETATM   30  C   UNL     1      -4.169  -1.178 -33.546  1.00  0.00     0.161 C 
BRANCH  30  31
HETATM   31  C   UNL     1      -4.810  -2.451 -34.044  1.00  0.00    -0.041 A 
HETATM   32  C   UNL     1      -4.170  -3.698 -33.977  1.00  0.00     0.009 A 
HETATM   33  C   UNL     1      -4.822  -4.861 -34.398  1.00  0.00     0.001 A 
HETATM   34  C   UNL     1      -6.130  -4.797 -34.868  1.00  0.00     0.000 A 
HETATM   35  C   UNL     1      -6.789  -3.571 -34.920  1.00  0.00     0.001 A 
HETATM   36  C   UNL     1      -6.134  -2.408 -34.509  1.00  0.00     0.009 A 
ENDBRANCH  30  31
ENDBRANCH  27  30
ENDBRANCH   8  26
TORSDOF 8
ENDMDL
MODEL 8
REMARK VINA RESULT:      -7.6      2.445      6.529
REMARK  8 active torsions:
REMARK  status: ('A' for Active; 'I' for Inactive)
REMARK    1  A    between atoms: C_7  and  C_8 
REMARK    2  A    between atoms: C_10  and  O_11 
REMARK    3  A    between atoms: C_13  and  O_14 
REMARK    4  A    between atoms: O_14  and  C_15 
REMARK    5  A    between atoms: C_15  and  C_16 
REMARK       I    between atoms: C_16  and  N_17 
REMARK    6  A    between atoms: C_21  and  C_22 
REMARK       I    between atoms: C_22  and  N_23 
REMARK    7  A    between atoms: N_23  and  C_24 
REMARK    8  A    between atoms: C_24  and  C_25 
ROOT
HETATM    1  C   UNL     1     -10.579   4.813 -35.463  1.00  0.00     0.069 C 
HETATM    2  C   UNL     1     -10.619   3.544 -34.661  1.00  0.00     0.024 C 
HETATM    3  N   UNL     1     -11.614   2.660 -35.015  1.00  0.00    -0.312 N 
HETATM    4  C   UNL     1     -11.968   1.549 -34.308  1.00  0.00     0.321 C 
HETATM    5  O   UNL     1     -12.896   0.829 -34.657  1.00  0.00    -0.247 OA
HETATM    6  N   UNL     1     -11.255   1.300 -33.182  1.00  0.00    -0.330 N 
HETATM    7  C   UNL     1     -10.010   1.960 -32.831  1.00  0.00     0.160 C 
HETATM    8  C   UNL     1      -9.826   3.227 -33.620  1.00  0.00     0.059 C 
HETATM    9  H   UNL     1     -12.221   2.863 -35.799  1.00  0.00     0.170 HD
HETATM   10  H   UNL     1     -11.516   0.459 -32.687  1.00  0.00     0.165 HD
ENDROOT
BRANCH   7  11
HETATM   11  C   UNL     1      -8.857   0.978 -33.003  1.00  0.00    -0.028 A 
HETATM   12  C   UNL     1      -8.034   0.619 -31.919  1.00  0.00     0.049 A 
HETATM   13  C   UNL     1      -6.942  -0.249 -32.073  1.00  0.00     0.102 A 
HETATM   14  C   UNL     1      -6.691  -0.804 -33.339  1.00  0.00     0.102 A 
HETATM   15  C   UNL     1      -7.510  -0.450 -34.420  1.00  0.00     0.040 A 
HETATM   16  C   UNL     1      -8.584   0.427 -34.258  1.00  0.00     0.012 A 
BRANCH  13  17
HETATM   17  O   UNL     1      -6.114  -0.584 -31.036  1.00  0.00    -0.353 OA
HETATM   18  C   UNL     1      -6.022   0.323 -29.942  1.00  0.00     0.210 C 
ENDBRANCH  13  17
BRANCH  14  19
HETATM   19  O   UNL     1      -5.683  -1.658 -33.706  1.00  0.00    -0.339 OA
BRANCH  19  20
HETATM   20  C   UNL     1      -5.791  -2.334 -34.956  1.00  0.00     0.278 C 
BRANCH  20  21
HETATM   21  C   UNL     1      -5.736  -3.845 -34.737  1.00  0.00     0.239 C 
HETATM   22  N   UNL     1      -6.860  -4.537 -35.092  1.00  0.00    -0.368 N 
HETATM   23  H   UNL     1      -7.722  -4.034 -35.266  1.00  0.00     0.159 HD
HETATM   24  H   UNL     1      -6.889  -5.528 -34.903  1.00  0.00     0.159 HD
HETATM   25  O   UNL     1      -4.741  -4.432 -34.323  1.00  0.00    -0.271 OA
ENDBRANCH  20  21
ENDBRANCH  19  20
ENDBRANCH  14  19
ENDBRANCH   7  11
BRANCH   8  26
HETATM   26  C   UNL     1      -8.771   4.130 -33.093  1.00  0.00     0.252 C 
HETATM   27  N   UNL     1      -7.670   4.269 -33.898  1.00  0.00    -0.353 N 
HETATM   28  H   UNL     1      -7.531   3.621 -34.662  1.00  0.00     0.163 HD
HETATM   29  O   UNL     1      -8.887   4.644 -31.987  1.00  0.00    -0.268 OA
BRANCH  27  30
HETATM   30  C   UNL     1      -6.541   5.061 -33.462  1.00  0.00     0.161 C 
BRANCH  30  31
HETATM   31  C   UNL     1      -5.398   4.244 -32.909  1.00  0.00    -0.041 A 
HETATM   32  C   UNL     1      -4.426   4.784 -32.053  1.00  0.00     0.009 A 
HETATM   33  C   UNL     1      -3.417   3.978 -31.518  1.00  0.00     0.001 A 
HETATM   34  C   UNL     1      -3.380   2.618 -31.811  1.00  0.00     0.000 A 
HETATM   35  C   UNL     1      -4.350   2.060 -32.639  1.00  0.00     0.001 A 
HETATM   36  C   UNL     1      -5.353   2.867 -33.182  1.00  0.00     0.009 A 
ENDBRANCH  30  31
ENDBRANCH  27  30
ENDBRANCH   8  26
TORSDOF 8
ENDMDL
MODEL 9
REMARK VINA RESULT:      -7.5      2.829      6.335
REMARK  8 active torsions:
REMARK  status: ('A' for Active; 'I' for Inactive)
REMARK    1  A    between atoms: C_7  and  C_8 
REMARK    2  A    between atoms: C_10  and  O_11 
REMARK    3  A    between atoms: C_13  and  O_14 
REMARK    4  A    between atoms: O_14  and  C_15 
REMARK    5  A    between atoms: C_15  and  C_16 
REMARK       I    between atoms: C_16  and  N_17 
REMARK    6  A    between atoms: C_21  and  C_22 
REMARK       I    between atoms: C_22  and  N_23 
REMARK    7  A    between atoms: N_23  and  C_24 
REMARK    8  A    between atoms: C_24  and  C_25 
ROOT
HETATM    1  C   UNL     1      -8.697   0.363 -31.358  1.00  0.00     0.069 C 
HETATM    2  C   UNL     1      -8.403   1.502 -32.290  1.00  0.00     0.024 C 
HETATM    3  N   UNL     1      -9.469   2.335 -32.551  1.00  0.00    -0.312 N 
HETATM    4  C   UNL     1      -9.494   3.303 -33.510  1.00  0.00     0.321 C 
HETATM    5  O   UNL     1     -10.495   3.979 -33.720  1.00  0.00    -0.247 OA
HETATM    6  N   UNL     1      -8.361   3.460 -34.238  1.00  0.00    -0.330 N 
HETATM    7  C   UNL     1      -7.077   2.872 -33.902  1.00  0.00     0.160 C 
HETATM    8  C   UNL     1      -7.236   1.744 -32.919  1.00  0.00     0.059 C 
HETATM    9  H   UNL     1     -10.356   2.188 -32.087  1.00  0.00     0.170 HD
HETATM   10  H   UNL     1      -8.392   4.199 -34.926  1.00  0.00     0.165 HD
ENDROOT
BRANCH   7  11
HETATM   11  C   UNL     1      -6.139   3.966 -33.406  1.00  0.00    -0.028 A 
HETATM   12  C   UNL     1      -5.199   4.567 -34.264  1.00  0.00     0.049 A 
HETATM   13  C   UNL     1      -4.299   5.545 -33.810  1.00  0.00     0.102 A 
HETATM   14  C   UNL     1      -4.369   5.959 -32.470  1.00  0.00     0.102 A 
HETATM   15  C   UNL     1      -5.307   5.363 -31.614  1.00  0.00     0.040 A 
HETATM   16  C   UNL     1      -6.186   4.381 -32.072  1.00  0.00     0.012 A 
BRANCH  13  17
HETATM   17  O   UNL     1      -3.359   6.117 -34.623  1.00  0.00    -0.353 OA
HETATM   18  C   UNL     1      -2.067   5.520 -34.665  1.00  0.00     0.210 C 
ENDBRANCH  13  17
BRANCH  14  19
HETATM   19  O   UNL     1      -3.588   6.884 -31.825  1.00  0.00    -0.339 OA
BRANCH  19  20
HETATM   20  C   UNL     1      -2.966   6.507 -30.600  1.00  0.00     0.278 C 
BRANCH  20  21
HETATM   21  C   UNL     1      -1.461   6.344 -30.810  1.00  0.00     0.239 C 
HETATM   22  N   UNL     1      -0.855   5.393 -30.039  1.00  0.00    -0.368 N 
HETATM   23  H   UNL     1      -1.348   5.006 -29.243  1.00  0.00     0.159 HD
HETATM   24  H   UNL     1       0.148   5.297 -30.100  1.00  0.00     0.159 HD
HETATM   25  O   UNL     1      -0.823   6.974 -31.648  1.00  0.00    -0.271 OA
ENDBRANCH  20  21
ENDBRANCH  19  20
ENDBRANCH  14  19
ENDBRANCH   7  11
BRANCH   8  26
HETATM   26  C   UNL     1      -6.040   0.875 -32.782  1.00  0.00     0.252 C 
HETATM   27  N   UNL     1      -5.792   0.057 -33.853  1.00  0.00    -0.353 N 
HETATM   28  H   UNL     1      -6.510  -0.075 -34.552  1.00  0.00     0.163 HD
HETATM   29  O   UNL     1      -5.387   0.874 -31.745  1.00  0.00    -0.268 OA
BRANCH  27  30
HETATM   30  C   UNL     1      -4.700  -0.892 -33.811  1.00  0.00     0.161 C 
BRANCH  30  31
HETATM   31  C   UNL     1      -5.095  -2.296 -34.202  1.00  0.00    -0.041 A 
HETATM   32  C   UNL     1      -4.233  -3.393 -34.056  1.00  0.00     0.009 A 
HETATM   33  C   UNL     1      -4.658  -4.685 -34.378  1.00  0.00     0.001 A 
HETATM   34  C   UNL     1      -5.958  -4.902 -34.826  1.00  0.00     0.000 A 
HETATM   35  C   UNL     1      -6.834  -3.828 -34.954  1.00  0.00     0.001 A 
HETATM   36  C   UNL     1      -6.407  -2.535 -34.642  1.00  0.00     0.009 A 
ENDBRANCH  30  31
ENDBRANCH  27  30
ENDBRANCH   8  26
TORSDOF 8
ENDMDL
MODEL 10
REMARK VINA RESULT:      -7.5      2.776      6.529
REMARK  8 active torsions:
REMARK  status: ('A' for Active; 'I' for Inactive)
REMARK    1  A    between atoms: C_7  and  C_8 
REMARK    2  A    between atoms: C_10  and  O_11 
REMARK    3  A    between atoms: C_13  and  O_14 
REMARK    4  A    between atoms: O_14  and  C_15 
REMARK    5  A    between atoms: C_15  and  C_16 
REMARK       I    between atoms: C_16  and  N_17 
REMARK    6  A    between atoms: C_21  and  C_22 
REMARK       I    between atoms: C_22  and  N_23 
REMARK    7  A    between atoms: N_23  and  C_24 
REMARK    8  A    between atoms: C_24  and  C_25 
ROOT
HETATM    1  C   UNL     1      -9.278  -0.030 -31.660  1.00  0.00     0.069 C 
HETATM    2  C   UNL     1      -8.721   1.358 -31.785  1.00  0.00     0.024 C 
HETATM    3  N   UNL     1      -9.222   2.272 -30.883  1.00  0.00    -0.312 N 
HETATM    4  C   UNL     1      -9.018   3.619 -30.934  1.00  0.00     0.321 C 
HETATM    5  O   UNL     1      -9.533   4.381 -30.123  1.00  0.00    -0.247 OA
HETATM    6  N   UNL     1      -8.238   4.073 -31.945  1.00  0.00    -0.330 N 
HETATM    7  C   UNL     1      -7.414   3.230 -32.793  1.00  0.00     0.160 C 
HETATM    8  C   UNL     1      -7.841   1.791 -32.708  1.00  0.00     0.059 C 
HETATM    9  H   UNL     1      -9.877   1.979 -30.170  1.00  0.00     0.170 HD
HETATM   10  H   UNL     1      -8.079   5.070 -31.950  1.00  0.00     0.165 HD
ENDROOT
BRANCH   7  11
HETATM   11  C   UNL     1      -5.948   3.438 -32.432  1.00  0.00    -0.028 A 
HETATM   12  C   UNL     1      -5.028   3.943 -33.371  1.00  0.00     0.049 A 
HETATM   13  C   UNL     1      -3.667   4.098 -33.065  1.00  0.00     0.102 A 
HETATM   14  C   UNL     1      -3.222   3.776 -31.773  1.00  0.00     0.102 A 
HETATM   15  C   UNL     1      -4.136   3.275 -30.835  1.00  0.00     0.040 A 
HETATM   16  C   UNL     1      -5.485   3.110 -31.155  1.00  0.00     0.012 A 
BRANCH  13  17
HETATM   17  O   UNL     1      -2.755   4.558 -33.976  1.00  0.00    -0.353 OA
HETATM   18  C   UNL     1      -2.955   5.861 -34.514  1.00  0.00     0.210 C 
ENDBRANCH  13  17
BRANCH  14  19
HETATM   19  O   UNL     1      -1.946   3.844 -31.273  1.00  0.00    -0.339 OA
BRANCH  19  20
HETATM   20  C   UNL     1      -1.270   5.098 -31.315  1.00  0.00     0.278 C 
BRANCH  20  21
HETATM   21  C   UNL     1      -0.026   5.048 -30.430  1.00  0.00     0.239 C 
HETATM   22  N   UNL     1      -0.214   5.395 -29.122  1.00  0.00    -0.368 N 
HETATM   23  H   UNL     1      -1.071   5.862 -28.848  1.00  0.00     0.159 HD
HETATM   24  H   UNL     1       0.594   5.438 -28.519  1.00  0.00     0.159 HD
HETATM   25  O   UNL     1       1.073   4.672 -30.829  1.00  0.00    -0.271 OA
ENDBRANCH  20  21
ENDBRANCH  19  20
ENDBRANCH  14  19
ENDBRANCH   7  11
BRANCH   8  26
HETATM   26  C   UNL     1      -7.292   0.923 -33.780  1.00  0.00     0.252 C 
HETATM   27  N   UNL     1      -6.300   0.064 -33.380  1.00  0.00    -0.353 N 
HETATM   28  H   UNL     1      -5.858   0.203 -32.481  1.00  0.00     0.163 HD
HETATM   29  O   UNL     1      -7.678   1.041 -34.937  1.00  0.00    -0.268 OA
BRANCH  27  30
HETATM   30  C   UNL     1      -5.630  -0.780 -34.346  1.00  0.00     0.161 C 
BRANCH  30  31
HETATM   31  C   UNL     1      -4.733  -1.825 -33.727  1.00  0.00    -0.041 A 
HETATM   32  C   UNL     1      -4.046  -1.615 -32.522  1.00  0.00     0.009 A 
HETATM   33  C   UNL     1      -3.271  -2.630 -31.954  1.00  0.00     0.001 A 
HETATM   34  C   UNL     1      -3.192  -3.876 -32.570  1.00  0.00     0.000 A 
HETATM   35  C   UNL     1      -3.886  -4.110 -33.753  1.00  0.00     0.001 A 
HETATM   36  C   UNL     1      -4.653  -3.092 -34.326  1.00  0.00     0.009 A 
ENDBRANCH  30  31
ENDBRANCH  27  30
ENDBRANCH   8  26
TORSDOF 8
ENDMDL
