MODEL 1
REMARK VINA RESULT:      -7.8      0.000      0.000
REMARK  6 active torsions:
REMARK  status: ('A' for Active; 'I' for Inactive)
REMARK    1  A    between atoms: C_2  and  O_3 
REMARK    2  A    between atoms: O_3  and  C_4 
REMARK    3  A    between atoms: C_7  and  N_8 
REMARK    4  A    between atoms: N_8  and  C_9 
REMARK    5  A    between atoms: C_9  and  C_10 
REMARK    6  A    between atoms: C_17  and  O_18 
ROOT
HETATM    1  C   UNL     1     -10.223   1.993 -33.672  1.00  0.00     0.024 A 
HETATM    2  C   UNL     1     -10.640   2.953 -32.602  1.00  0.00     0.253 A 
HETATM    3  O   UNL     1      -9.819   3.633 -31.992  1.00  0.00    -0.268 OA
HETATM    4  N   UNL     1     -11.978   3.044 -32.325  1.00  0.00    -0.322 N 
HETATM    5  C   UNL     1     -12.957   2.275 -32.961  1.00  0.00     0.048 A 
HETATM    6  C   UNL     1     -12.572   1.363 -33.948  1.00  0.00    -0.009 A 
HETATM    7  C   UNL     1     -14.297   2.414 -32.604  1.00  0.00     0.067 A 
HETATM    8  C   UNL     1     -15.273   1.633 -33.229  1.00  0.00     0.070 A 
HETATM    9  C   UNL     1     -14.894   0.719 -34.215  1.00  0.00     0.038 A 
HETATM   10  C   UNL     1     -13.547   0.585 -34.575  1.00  0.00     0.016 A 
HETATM   11  C   UNL     1     -11.156   1.247 -34.293  1.00  0.00     0.027 A 
HETATM   12  H   UNL     1     -12.237   3.699 -31.599  1.00  0.00     0.169 HD
ENDROOT
BRANCH   1  13
HETATM   13  C   UNL     1      -8.739   1.950 -33.928  1.00  0.00     0.136 C 
BRANCH  13  14
HETATM   14  N   UNL     1      -8.063   1.149 -32.901  1.00  0.00    -0.289 NA
HETATM   15  H   UNL     1      -8.739   0.746 -32.255  1.00  0.00     0.128 HD
BRANCH  14  16
HETATM   16  C   UNL     1      -7.137   0.176 -33.304  1.00  0.00     0.008 A 
HETATM   17  C   UNL     1      -6.060  -0.246 -32.520  1.00  0.00     0.026 A 
HETATM   18  C   UNL     1      -5.220  -1.284 -32.944  1.00  0.00     0.038 A 
HETATM   19  C   UNL     1      -5.453  -1.947 -34.148  1.00  0.00     0.068 A 
HETATM   20  C   UNL     1      -6.545  -1.566 -34.922  1.00  0.00     0.038 A 
HETATM   21  C   UNL     1      -7.383  -0.528 -34.492  1.00  0.00     0.026 A 
BRANCH  19  22
HETATM   22  O   UNL     1      -4.562  -2.941 -34.438  1.00  0.00    -0.352 OA
BRANCH  22  23
HETATM   23  C   UNL     1      -3.736  -3.404 -33.372  1.00  0.00     0.171 C 
HETATM   24  C   UNL     1      -3.631  -4.914 -33.484  1.00  0.00     0.034 C 
ENDBRANCH  22  23
ENDBRANCH  19  22
ENDBRANCH  14  16
ENDBRANCH  13  14
ENDBRANCH   1  13
BRANCH   8  25
HETATM   25  O   UNL     1     -16.549   1.856 -32.788  1.00  0.00    -0.356 OA
HETATM   26  C   UNL     1     -16.779   3.052 -32.054  1.00  0.00     0.210 C 
ENDBRANCH   8  25
TORSDOF 6
ENDMDL
MODEL 2
REMARK VINA RESULT:      -7.8      5.046      7.768
REMARK  6 active torsions:
REMARK  status: ('A' for Active; 'I' for Inactive)
REMARK    1  A    between atoms: C_2  and  O_3 
REMARK    2  A    between atoms: O_3  and  C_4 
REMARK    3  A    between atoms: C_7  and  N_8 
REMARK    4  A    between atoms: N_8  and  C_9 
REMARK    5  A    between atoms: C_9  and  C_10 
REMARK    6  A    between atoms: C_17  and  O_18 
ROOT
HETATM    1  C   UNL     1      -6.322   2.872 -31.765  1.00  0.00     0.024 A 
HETATM    2  C   UNL     1      -5.200   2.944 -30.776  1.00  0.00     0.253 A 
HETATM    3  O   UNL     1      -5.306   2.475 -29.646  1.00  0.00    -0.268 OA
HETATM    4  N   UNL     1      -4.044   3.557 -31.180  1.00  0.00    -0.322 N 
HETATM    5  C   UNL     1      -3.872   4.137 -32.441  1.00  0.00     0.048 A 
HETATM    6  C   UNL     1      -4.922   4.090 -33.361  1.00  0.00    -0.009 A 
HETATM    7  C   UNL     1      -2.668   4.761 -32.765  1.00  0.00     0.067 A 
HETATM    8  C   UNL     1      -2.503   5.355 -34.019  1.00  0.00     0.070 A 
HETATM    9  C   UNL     1      -3.550   5.312 -34.943  1.00  0.00     0.038 A 
HETATM   10  C   UNL     1      -4.757   4.680 -34.616  1.00  0.00     0.016 A 
HETATM   11  C   UNL     1      -6.169   3.426 -32.982  1.00  0.00     0.027 A 
HETATM   12  H   UNL     1      -3.298   3.592 -30.497  1.00  0.00     0.169 HD
ENDROOT
BRANCH   1  13
HETATM   13  C   UNL     1      -7.559   2.180 -31.254  1.00  0.00     0.136 C 
BRANCH  13  14
HETATM   14  N   UNL     1      -7.287   0.760 -31.005  1.00  0.00    -0.289 NA
HETATM   15  H   UNL     1      -8.101   0.303 -30.599  1.00  0.00     0.128 HD
BRANCH  14  16
HETATM   16  C   UNL     1      -6.761  -0.020 -32.046  1.00  0.00     0.008 A 
HETATM   17  C   UNL     1      -5.504  -0.627 -32.004  1.00  0.00     0.026 A 
HETATM   18  C   UNL     1      -5.071  -1.466 -33.040  1.00  0.00     0.038 A 
HETATM   19  C   UNL     1      -5.896  -1.741 -34.129  1.00  0.00     0.068 A 
HETATM   20  C   UNL     1      -7.167  -1.177 -34.167  1.00  0.00     0.038 A 
HETATM   21  C   UNL     1      -7.595  -0.340 -33.126  1.00  0.00     0.026 A 
BRANCH  19  22
HETATM   22  O   UNL     1      -5.353  -2.577 -35.064  1.00  0.00    -0.352 OA
BRANCH  22  23
HETATM   23  C   UNL     1      -5.344  -3.970 -34.762  1.00  0.00     0.171 C 
HETATM   24  C   UNL     1      -6.619  -4.577 -35.320  1.00  0.00     0.034 C 
ENDBRANCH  22  23
ENDBRANCH  19  22
ENDBRANCH  14  16
ENDBRANCH  13  14
ENDBRANCH   1  13
BRANCH   8  25
HETATM   25  O   UNL     1      -1.282   5.940 -34.216  1.00  0.00    -0.356 OA
HETATM   26  C   UNL     1      -0.949   7.037 -33.375  1.00  0.00     0.210 C 
ENDBRANCH   8  25
TORSDOF 6
ENDMDL
MODEL 3
REMARK VINA RESULT:      -7.8      5.763      8.932
REMARK  6 active torsions:
REMARK  status: ('A' for Active; 'I' for Inactive)
REMARK    1  A    between atoms: C_2  and  O_3 
REMARK    2  A    between atoms: O_3  and  C_4 
REMARK    3  A    between atoms: C_7  and  N_8 
REMARK    4  A    between atoms: N_8  and  C_9 
REMARK    5  A    between atoms: C_9  and  C_10 
REMARK    6  A    between atoms: C_17  and  O_18 
ROOT
HETATM    1  C   UNL     1      -5.782   1.991 -33.269  1.00  0.00     0.024 A 
HETATM    2  C   UNL     1      -4.482   1.624 -32.622  1.00  0.00     0.253 A 
HETATM    3  O   UNL     1      -3.814   2.449 -32.006  1.00  0.00    -0.268 OA
HETATM    4  N   UNL     1      -4.064   0.326 -32.744  1.00  0.00    -0.322 N 
HETATM    5  C   UNL     1      -4.764  -0.652 -33.458  1.00  0.00     0.048 A 
HETATM    6  C   UNL     1      -5.967  -0.310 -34.081  1.00  0.00    -0.009 A 
HETATM    7  C   UNL     1      -4.256  -1.947 -33.552  1.00  0.00     0.067 A 
HETATM    8  C   UNL     1      -4.948  -2.919 -34.280  1.00  0.00     0.070 A 
HETATM    9  C   UNL     1      -6.151  -2.583 -34.905  1.00  0.00     0.038 A 
HETATM   10  C   UNL     1      -6.661  -1.282 -34.805  1.00  0.00     0.016 A 
HETATM   11  C   UNL     1      -6.466   1.059 -33.959  1.00  0.00     0.027 A 
HETATM   12  H   UNL     1      -3.185   0.099 -32.298  1.00  0.00     0.169 HD
ENDROOT
BRANCH   1  13
HETATM   13  C   UNL     1      -6.182   3.433 -33.089  1.00  0.00     0.136 C 
BRANCH  13  14
HETATM   14  N   UNL     1      -5.665   4.252 -34.190  1.00  0.00    -0.289 NA
HETATM   15  H   UNL     1      -6.426   4.702 -34.694  1.00  0.00     0.128 HD
BRANCH  14  16
HETATM   16  C   UNL     1      -4.645   5.178 -33.922  1.00  0.00     0.008 A 
HETATM   17  C   UNL     1      -4.592   5.964 -32.769  1.00  0.00     0.026 A 
HETATM   18  C   UNL     1      -3.502   6.808 -32.519  1.00  0.00     0.038 A 
HETATM   19  C   UNL     1      -2.424   6.865 -33.401  1.00  0.00     0.068 A 
HETATM   20  C   UNL     1      -2.442   6.058 -34.534  1.00  0.00     0.038 A 
HETATM   21  C   UNL     1      -3.535   5.214 -34.778  1.00  0.00     0.026 A 
BRANCH  19  22
HETATM   22  O   UNL     1      -1.426   7.724 -33.035  1.00  0.00    -0.352 OA
BRANCH  22  23
HETATM   23  C   UNL     1      -1.047   7.731 -31.661  1.00  0.00     0.171 C 
HETATM   24  C   UNL     1       0.131   6.788 -31.496  1.00  0.00     0.034 C 
ENDBRANCH  22  23
ENDBRANCH  19  22
ENDBRANCH  14  16
ENDBRANCH  13  14
ENDBRANCH   1  13
BRANCH   8  25
HETATM   25  O   UNL     1      -4.347  -4.148 -34.304  1.00  0.00    -0.356 OA
HETATM   26  C   UNL     1      -3.453  -4.449 -33.239  1.00  0.00     0.210 C 
ENDBRANCH   8  25
TORSDOF 6
ENDMDL
MODEL 4
REMARK VINA RESULT:      -7.7      4.405      7.853
REMARK  6 active torsions:
REMARK  status: ('A' for Active; 'I' for Inactive)
REMARK    1  A    between atoms: C_2  and  O_3 
REMARK    2  A    between atoms: O_3  and  C_4 
REMARK    3  A    between atoms: C_7  and  N_8 
REMARK    4  A    between atoms: N_8  and  C_9 
REMARK    5  A    between atoms: C_9  and  C_10 
REMARK    6  A    between atoms: C_17  and  O_18 
ROOT
HETATM    1  C   UNL     1      -6.781   1.156 -31.380  1.00  0.00     0.024 A 
HETATM    2  C   UNL     1      -8.021   0.752 -32.116  1.00  0.00     0.253 A 
HETATM    3  O   UNL     1      -9.102   1.291 -31.898  1.00  0.00    -0.268 OA
HETATM    4  N   UNL     1      -7.904  -0.248 -33.044  1.00  0.00    -0.322 N 
HETATM    5  C   UNL     1      -6.708  -0.921 -33.314  1.00  0.00     0.048 A 
HETATM    6  C   UNL     1      -5.552  -0.562 -32.618  1.00  0.00    -0.009 A 
HETATM    7  C   UNL     1      -6.680  -1.943 -34.261  1.00  0.00     0.067 A 
HETATM    8  C   UNL     1      -5.489  -2.627 -34.519  1.00  0.00     0.070 A 
HETATM    9  C   UNL     1      -4.329  -2.272 -33.824  1.00  0.00     0.038 A 
HETATM   10  C   UNL     1      -4.360  -1.241 -32.877  1.00  0.00     0.016 A 
HETATM   11  C   UNL     1      -5.623   0.517 -31.632  1.00  0.00     0.027 A 
HETATM   12  H   UNL     1      -8.753  -0.503 -33.530  1.00  0.00     0.169 HD
ENDROOT
BRANCH   1  13
HETATM   13  C   UNL     1      -6.982   2.265 -30.380  1.00  0.00     0.136 C 
BRANCH  13  14
HETATM   14  N   UNL     1      -7.302   3.523 -31.064  1.00  0.00    -0.289 NA
HETATM   15  H   UNL     1      -7.601   4.231 -30.397  1.00  0.00     0.128 HD
BRANCH  14  16
HETATM   16  C   UNL     1      -6.364   4.063 -31.957  1.00  0.00     0.008 A 
HETATM   17  C   UNL     1      -6.557   4.136 -33.339  1.00  0.00     0.026 A 
HETATM   18  C   UNL     1      -5.620   4.766 -34.167  1.00  0.00     0.038 A 
HETATM   19  C   UNL     1      -4.480   5.364 -33.633  1.00  0.00     0.068 A 
HETATM   20  C   UNL     1      -4.292   5.336 -32.255  1.00  0.00     0.038 A 
HETATM   21  C   UNL     1      -5.235   4.706 -31.430  1.00  0.00     0.026 A 
BRANCH  19  22
HETATM   22  O   UNL     1      -3.652   5.947 -34.551  1.00  0.00    -0.352 OA
BRANCH  22  23
HETATM   23  C   UNL     1      -2.498   5.209 -34.944  1.00  0.00     0.171 C 
HETATM   24  C   UNL     1      -1.276   5.933 -34.407  1.00  0.00     0.034 C 
ENDBRANCH  22  23
ENDBRANCH  19  22
ENDBRANCH  14  16
ENDBRANCH  13  14
ENDBRANCH   1  13
BRANCH   8  25
HETATM   25  O   UNL     1      -5.590  -3.612 -35.463  1.00  0.00    -0.356 OA
HETATM   26  C   UNL     1      -6.643  -4.554 -35.303  1.00  0.00     0.210 C 
ENDBRANCH   8  25
TORSDOF 6
ENDMDL
MODEL 5
REMARK VINA RESULT:      -7.6      5.965      9.172
REMARK  6 active torsions:
REMARK  status: ('A' for Active; 'I' for Inactive)
REMARK    1  A    between atoms: C_2  and  O_3 
REMARK    2  A    between atoms: O_3  and  C_4 
REMARK    3  A    between atoms: C_7  and  N_8 
REMARK    4  A    between atoms: N_8  and  C_9 
REMARK    5  A    between atoms: C_9  and  C_10 
REMARK    6  A    between atoms: C_17  and  O_18 
ROOT
HETATM    1  C   UNL     1      -4.907   2.200 -32.396  1.00  0.00     0.024 A 
HETATM    2  C   UNL     1      -3.744   1.358 -31.970  1.00  0.00     0.253 A 
HETATM    3  O   UNL     1      -2.843   1.811 -31.270  1.00  0.00    -0.268 OA
HETATM    4  N   UNL     1      -3.723   0.056 -32.394  1.00  0.00    -0.322 N 
HETATM    5  C   UNL     1      -4.702  -0.509 -33.217  1.00  0.00     0.048 A 
HETATM    6  C   UNL     1      -5.779   0.277 -33.633  1.00  0.00    -0.009 A 
HETATM    7  C   UNL     1      -4.593  -1.839 -33.621  1.00  0.00     0.067 A 
HETATM    8  C   UNL     1      -5.563  -2.399 -34.457  1.00  0.00     0.070 A 
HETATM    9  C   UNL     1      -6.642  -1.616 -34.877  1.00  0.00     0.038 A 
HETATM   10  C   UNL     1      -6.751  -0.282 -34.465  1.00  0.00     0.016 A 
HETATM   11  C   UNL     1      -5.856   1.668 -33.187  1.00  0.00     0.027 A 
HETATM   12  H   UNL     1      -2.930  -0.495 -32.093  1.00  0.00     0.169 HD
ENDROOT
BRANCH   1  13
HETATM   13  C   UNL     1      -4.868   3.619 -31.888  1.00  0.00     0.136 C 
BRANCH  13  14
HETATM   14  N   UNL     1      -4.012   4.448 -32.745  1.00  0.00    -0.289 NA
HETATM   15  H   UNL     1      -4.572   5.096 -33.295  1.00  0.00     0.128 HD
BRANCH  14  16
HETATM   16  C   UNL     1      -2.923   5.116 -32.167  1.00  0.00     0.008 A 
HETATM   17  C   UNL     1      -3.026   5.958 -31.057  1.00  0.00     0.026 A 
HETATM   18  C   UNL     1      -1.887   6.528 -30.474  1.00  0.00     0.038 A 
HETATM   19  C   UNL     1      -0.614   6.248 -30.967  1.00  0.00     0.068 A 
HETATM   20  C   UNL     1      -0.490   5.380 -32.047  1.00  0.00     0.038 A 
HETATM   21  C   UNL     1      -1.633   4.810 -32.625  1.00  0.00     0.026 A 
BRANCH  19  22
HETATM   22  O   UNL     1       0.408   6.866 -30.303  1.00  0.00    -0.352 OA
BRANCH  22  23
HETATM   23  C   UNL     1       0.390   6.801 -28.879  1.00  0.00     0.171 C 
HETATM   24  C   UNL     1       0.959   8.103 -28.344  1.00  0.00     0.034 C 
ENDBRANCH  22  23
ENDBRANCH  19  22
ENDBRANCH  14  16
ENDBRANCH  13  14
ENDBRANCH   1  13
BRANCH   8  25
HETATM   25  O   UNL     1      -5.343  -3.708 -34.789  1.00  0.00    -0.356 OA
HETATM   26  C   UNL     1      -6.446  -4.434 -35.317  1.00  0.00     0.210 C 
ENDBRANCH   8  25
TORSDOF 6
ENDMDL
MODEL 6
REMARK VINA RESULT:      -7.6      4.728      8.404
REMARK  6 active torsions:
REMARK  status: ('A' for Active; 'I' for Inactive)
REMARK    1  A    between atoms: C_2  and  O_3 
REMARK    2  A    between atoms: O_3  and  C_4 
REMARK    3  A    between atoms: C_7  and  N_8 
REMARK    4  A    between atoms: N_8  and  C_9 
REMARK    5  A    between atoms: C_9  and  C_10 
REMARK    6  A    between atoms: C_17  and  O_18 
ROOT
HETATM    1  C   UNL     1      -6.797   2.051 -33.524  1.00  0.00     0.024 A 
HETATM    2  C   UNL     1      -7.971   1.452 -34.235  1.00  0.00     0.253 A 
HETATM    3  O   UNL     1      -8.988   2.101 -34.458  1.00  0.00    -0.268 OA
HETATM    4  N   UNL     1      -7.867   0.143 -34.626  1.00  0.00    -0.322 N 
HETATM    5  C   UNL     1      -6.749  -0.657 -34.372  1.00  0.00     0.048 A 
HETATM    6  C   UNL     1      -5.658  -0.109 -33.693  1.00  0.00    -0.009 A 
HETATM    7  C   UNL     1      -6.734  -1.988 -34.787  1.00  0.00     0.067 A 
HETATM    8  C   UNL     1      -5.623  -2.793 -34.518  1.00  0.00     0.070 A 
HETATM    9  C   UNL     1      -4.530  -2.249 -33.838  1.00  0.00     0.038 A 
HETATM   10  C   UNL     1      -4.547  -0.910 -33.428  1.00  0.00     0.016 A 
HETATM   11  C   UNL     1      -5.714   1.291 -33.275  1.00  0.00     0.027 A 
HETATM   12  H   UNL     1      -8.671  -0.241 -35.105  1.00  0.00     0.169 HD
ENDROOT
BRANCH   1  13
HETATM   13  C   UNL     1      -6.978   3.494 -33.128  1.00  0.00     0.136 C 
BRANCH  13  14
HETATM   14  N   UNL     1      -6.474   4.383 -34.182  1.00  0.00    -0.289 NA
HETATM   15  H   UNL     1      -7.167   5.089 -34.421  1.00  0.00     0.128 HD
BRANCH  14  16
HETATM   16  C   UNL     1      -5.213   4.976 -34.020  1.00  0.00     0.008 A 
HETATM   17  C   UNL     1      -4.217   4.965 -34.998  1.00  0.00     0.026 A 
HETATM   18  C   UNL     1      -3.010   5.651 -34.807  1.00  0.00     0.038 A 
HETATM   19  C   UNL     1      -2.781   6.389 -33.647  1.00  0.00     0.068 A 
HETATM   20  C   UNL     1      -3.780   6.443 -32.680  1.00  0.00     0.038 A 
HETATM   21  C   UNL     1      -4.987   5.757 -32.877  1.00  0.00     0.026 A 
BRANCH  19  22
HETATM   22  O   UNL     1      -1.566   7.012 -33.592  1.00  0.00    -0.352 OA
BRANCH  22  23
HETATM   23  C   UNL     1      -1.230   7.672 -32.374  1.00  0.00     0.171 C 
HETATM   24  C   UNL     1      -0.166   6.846 -31.673  1.00  0.00     0.034 C 
ENDBRANCH  22  23
ENDBRANCH  19  22
ENDBRANCH  14  16
ENDBRANCH  13  14
ENDBRANCH   1  13
BRANCH   8  25
HETATM   25  O   UNL     1      -5.729  -4.080 -34.969  1.00  0.00    -0.356 OA
HETATM   26  C   UNL     1      -4.854  -5.040 -34.391  1.00  0.00     0.210 C 
ENDBRANCH   8  25
TORSDOF 6
ENDMDL
MODEL 7
REMARK VINA RESULT:      -7.6      1.733      8.547
REMARK  6 active torsions:
REMARK  status: ('A' for Active; 'I' for Inactive)
REMARK    1  A    between atoms: C_2  and  O_3 
REMARK    2  A    between atoms: O_3  and  C_4 
REMARK    3  A    between atoms: C_7  and  N_8 
REMARK    4  A    between atoms: N_8  and  C_9 
REMARK    5  A    between atoms: C_9  and  C_10 
REMARK    6  A    between atoms: C_17  and  O_18 
ROOT
HETATM    1  C   UNL     1      -6.921   1.772 -33.840  1.00  0.00     0.024 A 
HETATM    2  C   UNL     1      -5.843   1.916 -32.810  1.00  0.00     0.253 A 
HETATM    3  O   UNL     1      -5.670   2.968 -32.202  1.00  0.00    -0.268 OA
HETATM    4  N   UNL     1      -5.050   0.824 -32.574  1.00  0.00    -0.322 N 
HETATM    5  C   UNL     1      -5.177  -0.390 -33.255  1.00  0.00     0.048 A 
HETATM    6  C   UNL     1      -6.169  -0.525 -34.230  1.00  0.00    -0.009 A 
HETATM    7  C   UNL     1      -4.314  -1.447 -32.967  1.00  0.00     0.067 A 
HETATM    8  C   UNL     1      -4.429  -2.655 -33.661  1.00  0.00     0.070 A 
HETATM    9  C   UNL     1      -5.419  -2.794 -34.637  1.00  0.00     0.038 A 
HETATM   10  C   UNL     1      -6.288  -1.732 -34.920  1.00  0.00     0.016 A 
HETATM   11  C   UNL     1      -7.054   0.607 -34.502  1.00  0.00     0.027 A 
HETATM   12  H   UNL     1      -4.330   0.943 -31.874  1.00  0.00     0.169 HD
ENDROOT
BRANCH   1  13
HETATM   13  C   UNL     1      -7.757   3.009 -34.044  1.00  0.00     0.136 C 
BRANCH  13  14
HETATM   14  N   UNL     1      -8.929   2.988 -33.162  1.00  0.00    -0.289 NA
HETATM   15  H   UNL     1      -9.056   3.890 -32.709  1.00  0.00     0.128 HD
BRANCH  14  16
HETATM   16  C   UNL     1     -10.152   2.526 -33.674  1.00  0.00     0.008 A 
HETATM   17  C   UNL     1     -10.675   1.258 -33.412  1.00  0.00     0.026 A 
HETATM   18  C   UNL     1     -11.942   0.888 -33.882  1.00  0.00     0.038 A 
HETATM   19  C   UNL     1     -12.730   1.787 -34.600  1.00  0.00     0.068 A 
HETATM   20  C   UNL     1     -12.240   3.068 -34.834  1.00  0.00     0.038 A 
HETATM   21  C   UNL     1     -10.972   3.433 -34.359  1.00  0.00     0.026 A 
BRANCH  19  22
HETATM   22  O   UNL     1     -13.944   1.300 -34.994  1.00  0.00    -0.352 OA
BRANCH  22  23
HETATM   23  C   UNL     1     -14.726   0.631 -34.007  1.00  0.00     0.171 C 
HETATM   24  C   UNL     1     -15.340   1.685 -33.103  1.00  0.00     0.034 C 
ENDBRANCH  22  23
ENDBRANCH  19  22
ENDBRANCH  14  16
ENDBRANCH  13  14
ENDBRANCH   1  13
BRANCH   8  25
HETATM   25  O   UNL     1      -3.523  -3.612 -33.294  1.00  0.00    -0.356 OA
HETATM   26  C   UNL     1      -3.755  -4.934 -33.764  1.00  0.00     0.210 C 
ENDBRANCH   8  25
TORSDOF 6
ENDMDL
MODEL 8
REMARK VINA RESULT:      -7.5      7.536     10.097
REMARK  6 active torsions:
REMARK  status: ('A' for Active; 'I' for Inactive)
REMARK    1  A    between atoms: C_2  and  O_3 
REMARK    2  A    between atoms: O_3  and  C_4 
REMARK    3  A    between atoms: C_7  and  N_8 
REMARK    4  A    between atoms: N_8  and  C_9 
REMARK    5  A    between atoms: C_9  and  C_10 
REMARK    6  A    between atoms: C_17  and  O_18 
ROOT
HETATM    1  C   UNL     1      -2.423   4.811 -33.822  1.00  0.00     0.024 A 
HETATM    2  C   UNL     1      -3.723   5.086 -34.513  1.00  0.00     0.253 A 
HETATM    3  O   UNL     1      -3.800   5.878 -35.447  1.00  0.00    -0.268 OA
HETATM    4  N   UNL     1      -4.829   4.418 -34.058  1.00  0.00    -0.322 N 
HETATM    5  C   UNL     1      -4.811   3.529 -32.980  1.00  0.00     0.048 A 
HETATM    6  C   UNL     1      -3.605   3.282 -32.320  1.00  0.00    -0.009 A 
HETATM    7  C   UNL     1      -5.989   2.906 -32.567  1.00  0.00     0.067 A 
HETATM    8  C   UNL     1      -5.973   2.030 -31.479  1.00  0.00     0.070 A 
HETATM    9  C   UNL     1      -4.770   1.781 -30.814  1.00  0.00     0.038 A 
HETATM   10  C   UNL     1      -3.588   2.404 -31.234  1.00  0.00     0.016 A 
HETATM   11  C   UNL     1      -2.392   3.955 -32.783  1.00  0.00     0.027 A 
HETATM   12  H   UNL     1      -5.696   4.618 -34.540  1.00  0.00     0.169 HD
ENDROOT
BRANCH   1  13
HETATM   13  C   UNL     1      -1.248   5.574 -34.377  1.00  0.00     0.136 C 
BRANCH  13  14
HETATM   14  N   UNL     1      -1.293   6.974 -33.941  1.00  0.00    -0.289 NA
HETATM   15  H   UNL     1      -2.151   7.423 -34.254  1.00  0.00     0.128 HD
BRANCH  14  16
HETATM   16  C   UNL     1      -1.057   7.268 -32.589  1.00  0.00     0.008 A 
HETATM   17  C   UNL     1      -1.938   7.995 -31.786  1.00  0.00     0.026 A 
HETATM   18  C   UNL     1      -1.685   8.181 -30.420  1.00  0.00     0.038 A 
HETATM   19  C   UNL     1      -0.561   7.619 -29.817  1.00  0.00     0.068 A 
HETATM   20  C   UNL     1       0.306   6.858 -30.595  1.00  0.00     0.038 A 
HETATM   21  C   UNL     1       0.047   6.674 -31.961  1.00  0.00     0.026 A 
BRANCH  19  22
HETATM   22  O   UNL     1      -0.438   7.873 -28.480  1.00  0.00    -0.352 OA
BRANCH  22  23
HETATM   23  C   UNL     1       0.781   7.481 -27.855  1.00  0.00     0.171 C 
HETATM   24  C   UNL     1       1.639   8.721 -27.683  1.00  0.00     0.034 C 
ENDBRANCH  22  23
ENDBRANCH  19  22
ENDBRANCH  14  16
ENDBRANCH  13  14
ENDBRANCH   1  13
BRANCH   8  25
HETATM   25  O   UNL     1      -7.190   1.488 -31.167  1.00  0.00    -0.356 OA
HETATM   26  C   UNL     1      -7.613   0.368 -31.935  1.00  0.00     0.210 C 
ENDBRANCH   8  25
TORSDOF 6
ENDMDL
MODEL 9
REMARK VINA RESULT:      -7.4      4.991      8.070
REMARK  6 active torsions:
REMARK  status: ('A' for Active; 'I' for Inactive)
REMARK    1  A    between atoms: C_2  and  O_3 
REMARK    2  A    between atoms: O_3  and  C_4 
REMARK    3  A    between atoms: C_7  and  N_8 
REMARK    4  A    between atoms: N_8  and  C_9 
REMARK    5  A    between atoms: C_9  and  C_10 
REMARK    6  A    between atoms: C_17  and  O_18 
ROOT
HETATM    1  C   UNL     1      -6.958   1.107 -31.606  1.00  0.00     0.024 A 
HETATM    2  C   UNL     1      -5.553   0.943 -31.116  1.00  0.00     0.253 A 
HETATM    3  O   UNL     1      -5.081   1.682 -30.257  1.00  0.00    -0.268 OA
HETATM    4  N   UNL     1      -4.809  -0.067 -31.666  1.00  0.00    -0.322 N 
HETATM    5  C   UNL     1      -5.278  -0.920 -32.668  1.00  0.00     0.048 A 
HETATM    6  C   UNL     1      -6.582  -0.760 -33.144  1.00  0.00    -0.009 A 
HETATM    7  C   UNL     1      -4.447  -1.910 -33.190  1.00  0.00     0.067 A 
HETATM    8  C   UNL     1      -4.911  -2.753 -34.204  1.00  0.00     0.070 A 
HETATM    9  C   UNL     1      -6.214  -2.596 -34.683  1.00  0.00     0.038 A 
HETATM   10  C   UNL     1      -7.049  -1.603 -34.154  1.00  0.00     0.016 A 
HETATM   11  C   UNL     1      -7.423   0.291 -32.571  1.00  0.00     0.027 A 
HETATM   12  H   UNL     1      -3.863  -0.160 -31.318  1.00  0.00     0.169 HD
ENDROOT
BRANCH   1  13
HETATM   13  C   UNL     1      -7.719   2.232 -30.954  1.00  0.00     0.136 C 
BRANCH  13  14
HETATM   14  N   UNL     1      -8.031   3.278 -31.935  1.00  0.00    -0.289 NA
HETATM   15  H   UNL     1      -8.762   3.894 -31.585  1.00  0.00     0.128 HD
BRANCH  14  16
HETATM   16  C   UNL     1      -6.979   4.032 -32.477  1.00  0.00     0.008 A 
HETATM   17  C   UNL     1      -6.178   4.898 -31.731  1.00  0.00     0.026 A 
HETATM   18  C   UNL     1      -5.087   5.557 -32.314  1.00  0.00     0.038 A 
HETATM   19  C   UNL     1      -4.753   5.343 -33.650  1.00  0.00     0.068 A 
HETATM   20  C   UNL     1      -5.516   4.452 -34.397  1.00  0.00     0.038 A 
HETATM   21  C   UNL     1      -6.605   3.793 -33.807  1.00  0.00     0.026 A 
BRANCH  19  22
HETATM   22  O   UNL     1      -3.665   6.044 -34.089  1.00  0.00    -0.352 OA
BRANCH  22  23
HETATM   23  C   UNL     1      -2.760   5.361 -34.954  1.00  0.00     0.171 C 
HETATM   24  C   UNL     1      -1.381   5.411 -34.319  1.00  0.00     0.034 C 
ENDBRANCH  22  23
ENDBRANCH  19  22
ENDBRANCH  14  16
ENDBRANCH  13  14
ENDBRANCH   1  13
BRANCH   8  25
HETATM   25  O   UNL     1      -4.002  -3.679 -34.636  1.00  0.00    -0.356 OA
HETATM   26  C   UNL     1      -3.545  -4.629 -33.682  1.00  0.00     0.210 C 
ENDBRANCH   8  25
TORSDOF 6
ENDMDL
MODEL 10
REMARK VINA RESULT:      -7.3     14.949     16.325
REMARK  6 active torsions:
REMARK  status: ('A' for Active; 'I' for Inactive)
REMARK    1  A    between atoms: C_2  and  O_3 
REMARK    2  A    between atoms: O_3  and  C_4 
REMARK    3  A    between atoms: C_7  and  N_8 
REMARK    4  A    between atoms: N_8  and  C_9 
REMARK    5  A    between atoms: C_9  and  C_10 
REMARK    6  A    between atoms: C_17  and  O_18 
ROOT
HETATM    1  C   UNL     1      -6.701 -13.468 -37.744  1.00  0.00     0.024 A 
HETATM    2  C   UNL     1      -6.978 -14.930 -37.910  1.00  0.00     0.253 A 
HETATM    3  O   UNL     1      -6.234 -15.784 -37.437  1.00  0.00    -0.268 OA
HETATM    4  N   UNL     1      -8.100 -15.281 -38.614  1.00  0.00    -0.322 N 
HETATM    5  C   UNL     1      -8.968 -14.357 -39.202  1.00  0.00     0.048 A 
HETATM    6  C   UNL     1      -8.705 -12.992 -39.067  1.00  0.00    -0.009 A 
HETATM    7  C   UNL     1     -10.077 -14.800 -39.922  1.00  0.00     0.067 A 
HETATM    8  C   UNL     1     -10.936 -13.876 -40.524  1.00  0.00     0.070 A 
HETATM    9  C   UNL     1     -10.676 -12.510 -40.392  1.00  0.00     0.038 A 
HETATM   10  C   UNL     1      -9.564 -12.068 -39.665  1.00  0.00     0.016 A 
HETATM   11  C   UNL     1      -7.531 -12.568 -38.305  1.00  0.00     0.027 A 
HETATM   12  H   UNL     1      -8.268 -16.273 -38.712  1.00  0.00     0.169 HD
ENDROOT
BRANCH   1  13
HETATM   13  C   UNL     1      -5.456 -13.155 -36.954  1.00  0.00     0.136 C 
BRANCH  13  14
HETATM   14  N   UNL     1      -4.569 -12.273 -37.721  1.00  0.00    -0.289 NA
HETATM   15  H   UNL     1      -4.299 -11.463 -37.167  1.00  0.00     0.128 HD
BRANCH  14  16
HETATM   16  C   UNL     1      -3.445 -12.828 -38.351  1.00  0.00     0.008 A 
HETATM   17  C   UNL     1      -3.513 -13.695 -39.443  1.00  0.00     0.026 A 
HETATM   18  C   UNL     1      -2.351 -14.146 -40.082  1.00  0.00     0.038 A 
HETATM   19  C   UNL     1      -1.092 -13.718 -39.663  1.00  0.00     0.068 A 
HETATM   20  C   UNL     1      -1.008 -12.823 -38.602  1.00  0.00     0.038 A 
HETATM   21  C   UNL     1      -2.174 -12.373 -37.968  1.00  0.00     0.026 A 
BRANCH  19  22
HETATM   22  O   UNL     1      -0.044 -14.231 -40.375  1.00  0.00    -0.352 OA
BRANCH  22  23
HETATM   23  C   UNL     1       0.607 -15.379 -39.837  1.00  0.00     0.171 C 
HETATM   24  C   UNL     1       1.761 -14.900 -38.975  1.00  0.00     0.034 C 
ENDBRANCH  22  23
ENDBRANCH  19  22
ENDBRANCH  14  16
ENDBRANCH  13  14
ENDBRANCH   1  13
BRANCH   8  25
HETATM   25  O   UNL     1     -11.984 -14.433 -41.206  1.00  0.00    -0.356 OA
HETATM   26  C   UNL     1     -11.711 -15.607 -41.960  1.00  0.00     0.210 C 
ENDBRANCH   8  25
TORSDOF 6
ENDMDL
