MODEL 1
REMARK VINA RESULT:      -6.6      0.000      0.000
REMARK  5 active torsions:
REMARK  status: ('A' for Active; 'I' for Inactive)
REMARK    1  A    between atoms: C_2  and  C_3 
REMARK    2  A    between atoms: C_3  and  C_4 
REMARK    3  A    between atoms: C_10  and  C_11 
REMARK    4  A    between atoms: C_12  and  O_13 
REMARK    5  A    between atoms: C_22  and  N_23 
ROOT
HETATM    1  C   UNL     1      -9.181   1.774 -32.877  1.00  0.00     0.066 A 
HETATM    2  N   UNL     1      -9.957   1.752 -33.974  1.00  0.00    -0.177 NA
HETATM    3  N   UNL     1      -9.408   0.808 -34.760  1.00  0.00    -0.256 N 
HETATM    4  H   UNL     1      -9.835   0.606 -35.657  1.00  0.00     0.191 HD
HETATM    5  C   UNL     1      -8.304   0.248 -34.208  1.00  0.00     0.175 A 
HETATM    6  C   UNL     1      -8.112   0.845 -32.986  1.00  0.00     0.035 A 
HETATM    7  C   UNL     1      -6.965   0.413 -32.131  1.00  0.00     0.107 A 
HETATM    8  C   UNL     1      -6.096  -0.600 -32.883  1.00  0.00     0.067 A 
HETATM    9  C   UNL     1      -4.778  -0.992 -32.233  1.00  0.00     0.020 C 
HETATM   10  N   UNL     1      -3.686  -1.318 -31.694  1.00  0.00    -0.096 N 
HETATM   11  C   UNL     1      -6.411  -1.097 -34.109  1.00  0.00     0.139 A 
HETATM   12  O   UNL     1      -7.573  -0.695 -34.791  1.00  0.00    -0.279 OA
ENDROOT
BRANCH   7  13
HETATM   13  C   UNL     1      -6.213   1.671 -31.729  1.00  0.00    -0.010 A 
HETATM   14  C   UNL     1      -5.974   1.980 -30.380  1.00  0.00     0.073 A 
HETATM   15  C   UNL     1      -5.193   3.073 -30.006  1.00  0.00     0.038 A 
HETATM   16  C   UNL     1      -4.649   3.905 -30.981  1.00  0.00     0.022 A 
HETATM   17  C   UNL     1      -4.885   3.631 -32.324  1.00  0.00     0.011 A 
HETATM   18 BR   UNL     1      -4.145   4.753 -33.653  1.00  0.00    -0.051 Br
HETATM   19  C   UNL     1      -5.651   2.526 -32.701  1.00  0.00     0.030 A 
BRANCH  14  20
HETATM   20  O   UNL     1      -6.477   1.229 -29.357  1.00  0.00    -0.360 OA
HETATM   21  H   UNL     1      -7.271   1.668 -29.008  1.00  0.00     0.217 HD
ENDBRANCH  14  20
ENDBRANCH   7  13
BRANCH  11  22
HETATM   22  N   UNL     1      -5.660  -1.998 -34.825  1.00  0.00    -0.282 NA
HETATM   23  H   UNL     1      -6.157  -2.813 -35.178  1.00  0.00     0.126 HD
HETATM   24  H   UNL     1      -4.790  -2.236 -34.355  1.00  0.00     0.126 HD
ENDBRANCH  11  22
BRANCH   1  25
HETATM   25  C   UNL     1      -9.504   2.731 -31.775  1.00  0.00     0.061 C 
BRANCH  25  26
HETATM   26  C   UNL     1      -8.984   4.152 -32.010  1.00  0.00     0.002 C 
HETATM   27  C   UNL     1      -8.399   4.784 -30.755  1.00  0.00     0.005 C 
ENDBRANCH  25  26
ENDBRANCH   1  25
TORSDOF 5
ENDMDL
MODEL 2
REMARK VINA RESULT:      -6.3      2.875      4.456
REMARK  5 active torsions:
REMARK  status: ('A' for Active; 'I' for Inactive)
REMARK    1  A    between atoms: C_2  and  C_3 
REMARK    2  A    between atoms: C_3  and  C_4 
REMARK    3  A    between atoms: C_10  and  C_11 
REMARK    4  A    between atoms: C_12  and  O_13 
REMARK    5  A    between atoms: C_22  and  N_23 
ROOT
HETATM    1  C   UNL     1      -8.620   0.527 -33.817  1.00  0.00     0.066 A 
HETATM    2  N   UNL     1      -9.962   0.587 -33.875  1.00  0.00    -0.177 NA
HETATM    3  N   UNL     1     -10.238   1.900 -33.973  1.00  0.00    -0.256 N 
HETATM    4  H   UNL     1     -11.206   2.195 -34.038  1.00  0.00     0.191 HD
HETATM    5  C   UNL     1      -9.123   2.670 -33.958  1.00  0.00     0.175 A 
HETATM    6  C   UNL     1      -8.045   1.825 -33.854  1.00  0.00     0.035 A 
HETATM    7  C   UNL     1      -6.665   2.395 -33.831  1.00  0.00     0.107 A 
HETATM    8  C   UNL     1      -6.725   3.926 -33.809  1.00  0.00     0.067 A 
HETATM    9  C   UNL     1      -5.413   4.663 -33.585  1.00  0.00     0.020 C 
HETATM   10  N   UNL     1      -4.326   5.274 -33.400  1.00  0.00    -0.096 N 
HETATM   11  C   UNL     1      -7.882   4.634 -33.908  1.00  0.00     0.139 A 
HETATM   12  O   UNL     1      -9.129   3.997 -34.025  1.00  0.00    -0.279 OA
ENDROOT
BRANCH   7  13
HETATM   13  C   UNL     1      -5.959   1.803 -32.622  1.00  0.00    -0.010 A 
HETATM   14  C   UNL     1      -6.426   2.035 -31.318  1.00  0.00     0.073 A 
HETATM   15  C   UNL     1      -5.851   1.409 -30.212  1.00  0.00     0.038 A 
HETATM   16  C   UNL     1      -4.769   0.550 -30.384  1.00  0.00     0.022 A 
HETATM   17  C   UNL     1      -4.276   0.317 -31.664  1.00  0.00     0.011 A 
HETATM   18 BR   UNL     1      -2.811  -0.853 -31.905  1.00  0.00    -0.051 Br
HETATM   19  C   UNL     1      -4.863   0.927 -32.775  1.00  0.00     0.030 A 
BRANCH  14  20
HETATM   20  O   UNL     1      -7.472   2.870 -31.053  1.00  0.00    -0.360 OA
HETATM   21  H   UNL     1      -8.212   2.639 -31.638  1.00  0.00     0.217 HD
ENDBRANCH  14  20
ENDBRANCH   7  13
BRANCH  11  22
HETATM   22  N   UNL     1      -7.986   6.005 -33.884  1.00  0.00    -0.282 NA
HETATM   23  H   UNL     1      -8.209   6.420 -32.982  1.00  0.00     0.126 HD
HETATM   24  H   UNL     1      -8.566   6.361 -34.639  1.00  0.00     0.126 HD
ENDBRANCH  11  22
BRANCH   1  25
HETATM   25  C   UNL     1      -7.956  -0.808 -33.697  1.00  0.00     0.061 C 
BRANCH  25  26
HETATM   26  C   UNL     1      -7.033  -1.153 -34.869  1.00  0.00     0.002 C 
HETATM   27  C   UNL     1      -5.966  -2.175 -34.502  1.00  0.00     0.005 C 
ENDBRANCH  25  26
ENDBRANCH   1  25
TORSDOF 5
ENDMDL
MODEL 3
REMARK VINA RESULT:      -6.2     15.911     17.326
REMARK  5 active torsions:
REMARK  status: ('A' for Active; 'I' for Inactive)
REMARK    1  A    between atoms: C_2  and  C_3 
REMARK    2  A    between atoms: C_3  and  C_4 
REMARK    3  A    between atoms: C_10  and  C_11 
REMARK    4  A    between atoms: C_12  and  O_13 
REMARK    5  A    between atoms: C_22  and  N_23 
ROOT
HETATM    1  C   UNL     1      -5.863 -12.496 -38.723  1.00  0.00     0.066 A 
HETATM    2  N   UNL     1      -7.157 -12.467 -38.361  1.00  0.00    -0.177 NA
HETATM    3  N   UNL     1      -7.173 -12.980 -37.118  1.00  0.00    -0.256 N 
HETATM    4  H   UNL     1      -8.058 -13.053 -36.628  1.00  0.00     0.191 HD
HETATM    5  C   UNL     1      -5.941 -13.350 -36.690  1.00  0.00     0.175 A 
HETATM    6  C   UNL     1      -5.056 -13.060 -37.699  1.00  0.00     0.035 A 
HETATM    7  C   UNL     1      -3.603 -13.347 -37.505  1.00  0.00     0.107 A 
HETATM    8  C   UNL     1      -3.380 -14.068 -36.171  1.00  0.00     0.067 A 
HETATM    9  C   UNL     1      -1.983 -14.611 -35.908  1.00  0.00     0.020 C 
HETATM   10  N   UNL     1      -0.826 -15.059 -35.689  1.00  0.00    -0.096 N 
HETATM   11  C   UNL     1      -4.369 -14.299 -35.267  1.00  0.00     0.139 A 
HETATM   12  O   UNL     1      -5.694 -13.898 -35.506  1.00  0.00    -0.279 OA
ENDROOT
BRANCH   7  13
HETATM   13  C   UNL     1      -3.144 -14.155 -38.709  1.00  0.00    -0.010 A 
HETATM   14  C   UNL     1      -2.100 -13.706 -39.534  1.00  0.00     0.073 A 
HETATM   15  C   UNL     1      -1.602 -14.490 -40.575  1.00  0.00     0.038 A 
HETATM   16  C   UNL     1      -2.160 -15.739 -40.834  1.00  0.00     0.022 A 
HETATM   17  C   UNL     1      -3.207 -16.199 -40.042  1.00  0.00     0.011 A 
HETATM   18 BR   UNL     1      -3.966 -17.896 -40.384  1.00  0.00    -0.051 Br
HETATM   19  C   UNL     1      -3.694 -15.424 -38.987  1.00  0.00     0.030 A 
BRANCH  14  20
HETATM   20  O   UNL     1      -1.502 -12.492 -39.363  1.00  0.00    -0.360 OA
HETATM   21  H   UNL     1      -1.962 -11.837 -39.915  1.00  0.00     0.217 HD
ENDBRANCH  14  20
ENDBRANCH   7  13
BRANCH  11  22
HETATM   22  N   UNL     1      -4.218 -14.948 -34.064  1.00  0.00    -0.282 NA
HETATM   23  H   UNL     1      -5.049 -15.000 -33.479  1.00  0.00     0.126 HD
HETATM   24  H   UNL     1      -3.394 -14.636 -33.558  1.00  0.00     0.126 HD
ENDBRANCH  11  22
BRANCH   1  25
HETATM   25  C   UNL     1      -5.473 -11.995 -40.077  1.00  0.00     0.061 C 
BRANCH  25  26
HETATM   26  C   UNL     1      -6.102 -12.773 -41.236  1.00  0.00     0.002 C 
HETATM   27  C   UNL     1      -5.105 -13.667 -41.960  1.00  0.00     0.005 C 
ENDBRANCH  25  26
ENDBRANCH   1  25
TORSDOF 5
ENDMDL
MODEL 4
REMARK VINA RESULT:      -6.2      3.458      5.083
REMARK  5 active torsions:
REMARK  status: ('A' for Active; 'I' for Inactive)
REMARK    1  A    between atoms: C_2  and  C_3 
REMARK    2  A    between atoms: C_3  and  C_4 
REMARK    3  A    between atoms: C_10  and  C_11 
REMARK    4  A    between atoms: C_12  and  O_13 
REMARK    5  A    between atoms: C_22  and  N_23 
ROOT
HETATM    1  C   UNL     1      -8.830   4.882 -33.354  1.00  0.00     0.066 A 
HETATM    2  N   UNL     1      -8.717   5.848 -34.282  1.00  0.00    -0.177 NA
HETATM    3  N   UNL     1      -9.651   5.546 -35.202  1.00  0.00    -0.256 N 
HETATM    4  H   UNL     1      -9.758   6.150 -36.009  1.00  0.00     0.191 HD
HETATM    5  C   UNL     1     -10.335   4.416 -34.899  1.00  0.00     0.175 A 
HETATM    6  C   UNL     1      -9.836   3.944 -33.710  1.00  0.00     0.035 A 
HETATM    7  C   UNL     1     -10.415   2.703 -33.112  1.00  0.00     0.107 A 
HETATM    8  C   UNL     1     -11.446   2.088 -34.064  1.00  0.00     0.067 A 
HETATM    9  C   UNL     1     -11.986   0.715 -33.698  1.00  0.00     0.020 C 
HETATM   10  N   UNL     1     -12.436  -0.423 -33.394  1.00  0.00    -0.096 N 
HETATM   11  C   UNL     1     -11.835   2.672 -35.229  1.00  0.00     0.139 A 
HETATM   12  O   UNL     1     -11.296   3.898 -35.656  1.00  0.00    -0.279 OA
ENDROOT
BRANCH   7  13
HETATM   13  C   UNL     1      -9.252   1.774 -32.802  1.00  0.00    -0.010 A 
HETATM   14  C   UNL     1      -8.887   1.478 -31.479  1.00  0.00     0.073 A 
HETATM   15  C   UNL     1      -7.892   0.544 -31.186  1.00  0.00     0.038 A 
HETATM   16  C   UNL     1      -7.217  -0.100 -32.219  1.00  0.00     0.022 A 
HETATM   17  C   UNL     1      -7.548   0.189 -33.539  1.00  0.00     0.011 A 
HETATM   18 BR   UNL     1      -6.638  -0.685 -34.947  1.00  0.00    -0.051 Br
HETATM   19  C   UNL     1      -8.557   1.109 -33.834  1.00  0.00     0.030 A 
BRANCH  14  20
HETATM   20  O   UNL     1      -9.485   2.069 -30.404  1.00  0.00    -0.360 OA
HETATM   21  H   UNL     1     -10.422   2.220 -30.613  1.00  0.00     0.217 HD
ENDBRANCH  14  20
ENDBRANCH   7  13
BRANCH  11  22
HETATM   22  N   UNL     1     -12.748   2.155 -36.118  1.00  0.00    -0.282 NA
HETATM   23  H   UNL     1     -12.744   2.564 -37.050  1.00  0.00     0.126 HD
HETATM   24  H   UNL     1     -13.680   2.086 -35.718  1.00  0.00     0.126 HD
ENDBRANCH  11  22
BRANCH   1  25
HETATM   25  C   UNL     1      -7.922   4.903 -32.166  1.00  0.00     0.061 C 
BRANCH  25  26
HETATM   26  C   UNL     1      -6.433   4.852 -32.518  1.00  0.00     0.002 C 
HETATM   27  C   UNL     1      -5.833   3.462 -32.360  1.00  0.00     0.005 C 
ENDBRANCH  25  26
ENDBRANCH   1  25
TORSDOF 5
ENDMDL
MODEL 5
REMARK VINA RESULT:      -6.0      3.132      5.419
REMARK  5 active torsions:
REMARK  status: ('A' for Active; 'I' for Inactive)
REMARK    1  A    between atoms: C_2  and  C_3 
REMARK    2  A    between atoms: C_3  and  C_4 
REMARK    3  A    between atoms: C_10  and  C_11 
REMARK    4  A    between atoms: C_12  and  O_13 
REMARK    5  A    between atoms: C_22  and  N_23 
ROOT
HETATM    1  C   UNL     1      -9.304   0.426 -33.030  1.00  0.00     0.066 A 
HETATM    2  N   UNL     1     -10.225  -0.479 -32.657  1.00  0.00    -0.177 NA
HETATM    3  N   UNL     1     -11.396   0.039 -33.073  1.00  0.00    -0.256 N 
HETATM    4  H   UNL     1     -12.250  -0.480 -32.904  1.00  0.00     0.191 HD
HETATM    5  C   UNL     1     -11.248   1.244 -33.675  1.00  0.00     0.175 A 
HETATM    6  C   UNL     1      -9.907   1.542 -33.668  1.00  0.00     0.035 A 
HETATM    7  C   UNL     1      -9.435   2.817 -34.288  1.00  0.00     0.107 A 
HETATM    8  C   UNL     1     -10.632   3.661 -34.737  1.00  0.00     0.067 A 
HETATM    9  C   UNL     1     -10.337   5.077 -35.208  1.00  0.00     0.020 C 
HETATM   10  N   UNL     1     -10.092   6.250 -35.599  1.00  0.00    -0.096 N 
HETATM   11  C   UNL     1     -11.921   3.234 -34.670  1.00  0.00     0.139 A 
HETATM   12  O   UNL     1     -12.252   1.968 -34.157  1.00  0.00    -0.279 OA
ENDROOT
BRANCH   7  13
HETATM   13  C   UNL     1      -8.561   3.514 -33.258  1.00  0.00    -0.010 A 
HETATM   14  C   UNL     1      -7.169   3.606 -33.424  1.00  0.00     0.073 A 
HETATM   15  C   UNL     1      -6.374   4.336 -32.541  1.00  0.00     0.038 A 
HETATM   16  C   UNL     1      -6.953   4.973 -31.447  1.00  0.00     0.022 A 
HETATM   17  C   UNL     1      -8.326   4.882 -31.249  1.00  0.00     0.011 A 
HETATM   18 BR   UNL     1      -9.120   5.748 -29.769  1.00  0.00    -0.051 Br
HETATM   19  C   UNL     1      -9.128   4.168 -32.144  1.00  0.00     0.030 A 
BRANCH  14  20
HETATM   20  O   UNL     1      -6.514   3.005 -34.459  1.00  0.00    -0.360 OA
HETATM   21  H   UNL     1      -5.559   3.143 -34.346  1.00  0.00     0.217 HD
ENDBRANCH  14  20
ENDBRANCH   7  13
BRANCH  11  22
HETATM   22  N   UNL     1     -13.026   3.957 -35.052  1.00  0.00    -0.282 NA
HETATM   23  H   UNL     1     -12.920   4.523 -35.892  1.00  0.00     0.126 HD
HETATM   24  H   UNL     1     -13.439   4.469 -34.277  1.00  0.00     0.126 HD
ENDBRANCH  11  22
BRANCH   1  25
HETATM   25  C   UNL     1      -7.864   0.170 -32.716  1.00  0.00     0.061 C 
BRANCH  25  26
HETATM   26  C   UNL     1      -7.176  -0.797 -33.683  1.00  0.00     0.002 C 
HETATM   27  C   UNL     1      -7.260  -0.345 -35.135  1.00  0.00     0.005 C 
ENDBRANCH  25  26
ENDBRANCH   1  25
TORSDOF 5
ENDMDL
MODEL 6
REMARK VINA RESULT:      -6.0     15.997     17.162
REMARK  5 active torsions:
REMARK  status: ('A' for Active; 'I' for Inactive)
REMARK    1  A    between atoms: C_2  and  C_3 
REMARK    2  A    between atoms: C_3  and  C_4 
REMARK    3  A    between atoms: C_10  and  C_11 
REMARK    4  A    between atoms: C_12  and  O_13 
REMARK    5  A    between atoms: C_22  and  N_23 
ROOT
HETATM    1  C   UNL     1      -6.925 -13.343 -36.949  1.00  0.00     0.066 A 
HETATM    2  N   UNL     1      -7.463 -13.834 -35.820  1.00  0.00    -0.177 NA
HETATM    3  N   UNL     1      -6.406 -14.223 -35.082  1.00  0.00    -0.256 N 
HETATM    4  H   UNL     1      -6.569 -14.627 -34.167  1.00  0.00     0.191 HD
HETATM    5  C   UNL     1      -5.225 -14.014 -35.713  1.00  0.00     0.175 A 
HETATM    6  C   UNL     1      -5.509 -13.448 -36.932  1.00  0.00     0.035 A 
HETATM    7  C   UNL     1      -4.388 -13.087 -37.852  1.00  0.00     0.107 A 
HETATM    8  C   UNL     1      -3.052 -13.557 -37.268  1.00  0.00     0.067 A 
HETATM    9  C   UNL     1      -1.831 -13.446 -38.169  1.00  0.00     0.020 C 
HETATM   10  N   UNL     1      -0.819 -13.353 -38.914  1.00  0.00    -0.096 N 
HETATM   11  C   UNL     1      -2.927 -14.120 -36.037  1.00  0.00     0.139 A 
HETATM   12  O   UNL     1      -4.039 -14.328 -35.204  1.00  0.00    -0.279 OA
ENDROOT
BRANCH   7  13
HETATM   13  C   UNL     1      -4.706 -13.706 -39.204  1.00  0.00    -0.010 A 
HETATM   14  C   UNL     1      -4.922 -12.909 -40.339  1.00  0.00     0.073 A 
HETATM   15  C   UNL     1      -5.107 -13.470 -41.603  1.00  0.00     0.038 A 
HETATM   16  C   UNL     1      -5.106 -14.854 -41.757  1.00  0.00     0.022 A 
HETATM   17  C   UNL     1      -4.912 -15.666 -40.645  1.00  0.00     0.011 A 
HETATM   18 BR   UNL     1      -4.904 -17.546 -40.846  1.00  0.00    -0.051 Br
HETATM   19  C   UNL     1      -4.707 -15.106 -39.381  1.00  0.00     0.030 A 
BRANCH  14  20
HETATM   20  O   UNL     1      -4.952 -11.546 -40.283  1.00  0.00    -0.360 OA
HETATM   21  H   UNL     1      -4.039 -11.215 -40.252  1.00  0.00     0.217 HD
ENDBRANCH  14  20
ENDBRANCH   7  13
BRANCH  11  22
HETATM   22  N   UNL     1      -1.753 -14.565 -35.476  1.00  0.00    -0.282 NA
HETATM   23  H   UNL     1      -1.224 -15.240 -36.024  1.00  0.00     0.126 HD
HETATM   24  H   UNL     1      -1.871 -14.845 -34.506  1.00  0.00     0.126 HD
ENDBRANCH  11  22
BRANCH   1  25
HETATM   25  C   UNL     1      -7.830 -12.816 -38.017  1.00  0.00     0.061 C 
BRANCH  25  26
HETATM   26  C   UNL     1      -8.642 -13.896 -38.736  1.00  0.00     0.002 C 
HETATM   27  C   UNL     1      -8.571 -13.781 -40.253  1.00  0.00     0.005 C 
ENDBRANCH  25  26
ENDBRANCH   1  25
TORSDOF 5
ENDMDL
MODEL 7
REMARK VINA RESULT:      -6.0      2.467      4.775
REMARK  5 active torsions:
REMARK  status: ('A' for Active; 'I' for Inactive)
REMARK    1  A    between atoms: C_2  and  C_3 
REMARK    2  A    between atoms: C_3  and  C_4 
REMARK    3  A    between atoms: C_10  and  C_11 
REMARK    4  A    between atoms: C_12  and  O_13 
REMARK    5  A    between atoms: C_22  and  N_23 
ROOT
HETATM    1  C   UNL     1      -4.932   1.036 -32.210  1.00  0.00     0.066 A 
HETATM    2  N   UNL     1      -4.914  -0.114 -31.516  1.00  0.00    -0.177 NA
HETATM    3  N   UNL     1      -6.198  -0.515 -31.490  1.00  0.00    -0.256 N 
HETATM    4  H   UNL     1      -6.433  -1.380 -31.017  1.00  0.00     0.191 HD
HETATM    5  C   UNL     1      -7.027   0.349 -32.125  1.00  0.00     0.175 A 
HETATM    6  C   UNL     1      -6.253   1.377 -32.606  1.00  0.00     0.035 A 
HETATM    7  C   UNL     1      -6.898   2.484 -33.375  1.00  0.00     0.107 A 
HETATM    8  C   UNL     1      -8.420   2.309 -33.377  1.00  0.00     0.067 A 
HETATM    9  C   UNL     1      -9.243   3.455 -33.945  1.00  0.00     0.020 C 
HETATM   10  N   UNL     1      -9.926   4.404 -34.417  1.00  0.00    -0.096 N 
HETATM   11  C   UNL     1      -9.054   1.231 -32.843  1.00  0.00     0.139 A 
HETATM   12  O   UNL     1      -8.342   0.189 -32.224  1.00  0.00    -0.279 OA
ENDROOT
BRANCH   7  13
HETATM   13  C   UNL     1      -6.443   3.789 -32.741  1.00  0.00    -0.010 A 
HETATM   14  C   UNL     1      -5.786   4.776 -33.492  1.00  0.00     0.073 A 
HETATM   15  C   UNL     1      -5.462   6.017 -32.946  1.00  0.00     0.038 A 
HETATM   16  C   UNL     1      -5.767   6.293 -31.616  1.00  0.00     0.022 A 
HETATM   17  C   UNL     1      -6.402   5.326 -30.844  1.00  0.00     0.011 A 
HETATM   18 BR   UNL     1      -6.825   5.695 -29.039  1.00  0.00    -0.051 Br
HETATM   19  C   UNL     1      -6.746   4.089 -31.395  1.00  0.00     0.030 A 
BRANCH  14  20
HETATM   20  O   UNL     1      -5.436   4.590 -34.798  1.00  0.00    -0.360 OA
HETATM   21  H   UNL     1      -4.996   3.727 -34.884  1.00  0.00     0.217 HD
ENDBRANCH  14  20
ENDBRANCH   7  13
BRANCH  11  22
HETATM   22  N   UNL     1     -10.414   1.035 -32.813  1.00  0.00    -0.282 NA
HETATM   23  H   UNL     1     -10.909   1.452 -32.027  1.00  0.00     0.126 HD
HETATM   24  H   UNL     1     -10.668   0.063 -32.971  1.00  0.00     0.126 HD
ENDBRANCH  11  22
BRANCH   1  25
HETATM   25  C   UNL     1      -3.650   1.773 -32.432  1.00  0.00     0.061 C 
BRANCH  25  26
HETATM   26  C   UNL     1      -3.273   2.726 -31.294  1.00  0.00     0.002 C 
HETATM   27  C   UNL     1      -2.580   3.990 -31.784  1.00  0.00     0.005 C 
ENDBRANCH  25  26
ENDBRANCH   1  25
TORSDOF 5
ENDMDL
MODEL 8
REMARK VINA RESULT:      -5.9     16.297     18.076
REMARK  5 active torsions:
REMARK  status: ('A' for Active; 'I' for Inactive)
REMARK    1  A    between atoms: C_2  and  C_3 
REMARK    2  A    between atoms: C_3  and  C_4 
REMARK    3  A    between atoms: C_10  and  C_11 
REMARK    4  A    between atoms: C_12  and  O_13 
REMARK    5  A    between atoms: C_22  and  N_23 
ROOT
HETATM    1  C   UNL     1      -1.384 -14.055 -39.133  1.00  0.00     0.066 A 
HETATM    2  N   UNL     1      -0.375 -14.603 -39.832  1.00  0.00    -0.177 NA
HETATM    3  N   UNL     1      -0.862 -14.739 -41.079  1.00  0.00    -0.256 N 
HETATM    4  H   UNL     1      -0.266 -15.133 -41.799  1.00  0.00     0.191 HD
HETATM    5  C   UNL     1      -2.145 -14.316 -41.187  1.00  0.00     0.175 A 
HETATM    6  C   UNL     1      -2.531 -13.867 -39.948  1.00  0.00     0.035 A 
HETATM    7  C   UNL     1      -3.909 -13.318 -39.763  1.00  0.00     0.107 A 
HETATM    8  C   UNL     1      -4.721 -13.482 -41.052  1.00  0.00     0.067 A 
HETATM    9  C   UNL     1      -6.205 -13.157 -40.976  1.00  0.00     0.020 C 
HETATM   10  N   UNL     1      -7.434 -12.886 -40.914  1.00  0.00    -0.096 N 
HETATM   11  C   UNL     1      -4.199 -13.960 -42.213  1.00  0.00     0.139 A 
HETATM   12  O   UNL     1      -2.855 -14.361 -42.309  1.00  0.00    -0.279 OA
ENDROOT
BRANCH   7  13
HETATM   13  C   UNL     1      -4.518 -14.040 -38.572  1.00  0.00    -0.010 A 
HETATM   14  C   UNL     1      -4.859 -13.351 -37.397  1.00  0.00     0.073 A 
HETATM   15  C   UNL     1      -5.517 -13.984 -36.342  1.00  0.00     0.038 A 
HETATM   16  C   UNL     1      -5.827 -15.338 -36.428  1.00  0.00     0.022 A 
HETATM   17  C   UNL     1      -5.485 -16.048 -37.574  1.00  0.00     0.011 A 
HETATM   18 BR   UNL     1      -5.908 -17.885 -37.701  1.00  0.00    -0.051 Br
HETATM   19  C   UNL     1      -4.844 -15.411 -38.640  1.00  0.00     0.030 A 
BRANCH  14  20
HETATM   20  O   UNL     1      -4.583 -12.026 -37.219  1.00  0.00    -0.360 OA
HETATM   21  H   UNL     1      -4.472 -11.610 -38.090  1.00  0.00     0.217 HD
ENDBRANCH  14  20
ENDBRANCH   7  13
BRANCH  11  22
HETATM   22  N   UNL     1      -4.890 -14.133 -43.390  1.00  0.00    -0.282 NA
HETATM   23  H   UNL     1      -5.837 -13.761 -43.410  1.00  0.00     0.126 HD
HETATM   24  H   UNL     1      -4.829 -15.087 -43.736  1.00  0.00     0.126 HD
ENDBRANCH  11  22
BRANCH   1  25
HETATM   25  C   UNL     1      -1.189 -13.766 -37.679  1.00  0.00     0.061 C 
BRANCH  25  26
HETATM   26  C   UNL     1      -1.042 -15.017 -36.808  1.00  0.00     0.002 C 
HETATM   27  C   UNL     1      -2.039 -15.059 -35.658  1.00  0.00     0.005 C 
ENDBRANCH  25  26
ENDBRANCH   1  25
TORSDOF 5
ENDMDL
MODEL 9
REMARK VINA RESULT:      -5.9     16.083     17.921
REMARK  5 active torsions:
REMARK  status: ('A' for Active; 'I' for Inactive)
REMARK    1  A    between atoms: C_2  and  C_3 
REMARK    2  A    between atoms: C_3  and  C_4 
REMARK    3  A    between atoms: C_10  and  C_11 
REMARK    4  A    between atoms: C_12  and  O_13 
REMARK    5  A    between atoms: C_22  and  N_23 
ROOT
HETATM    1  C   UNL     1     -10.160 -15.459 -40.031  1.00  0.00     0.066 A 
HETATM    2  N   UNL     1     -10.817 -16.594 -40.327  1.00  0.00    -0.177 NA
HETATM    3  N   UNL     1     -10.314 -17.508 -39.477  1.00  0.00    -0.256 N 
HETATM    4  H   UNL     1     -10.669 -18.457 -39.510  1.00  0.00     0.191 HD
HETATM    5  C   UNL     1      -9.351 -16.997 -38.671  1.00  0.00     0.175 A 
HETATM    6  C   UNL     1      -9.211 -15.670 -38.996  1.00  0.00     0.035 A 
HETATM    7  C   UNL     1      -8.221 -14.833 -38.252  1.00  0.00     0.107 A 
HETATM    8  C   UNL     1      -7.414 -15.704 -37.284  1.00  0.00     0.067 A 
HETATM    9  C   UNL     1      -6.229 -15.047 -36.593  1.00  0.00     0.020 C 
HETATM   10  N   UNL     1      -5.248 -14.503 -36.019  1.00  0.00    -0.096 N 
HETATM   11  C   UNL     1      -7.662 -17.025 -37.076  1.00  0.00     0.139 A 
HETATM   12  O   UNL     1      -8.688 -17.699 -37.760  1.00  0.00    -0.279 OA
ENDROOT
BRANCH   7  13
HETATM   13  C   UNL     1      -7.361 -14.133 -39.292  1.00  0.00    -0.010 A 
HETATM   14  C   UNL     1      -6.971 -12.793 -39.134  1.00  0.00     0.073 A 
HETATM   15  C   UNL     1      -6.095 -12.176 -40.027  1.00  0.00     0.038 A 
HETATM   16  C   UNL     1      -5.606 -12.883 -41.122  1.00  0.00     0.022 A 
HETATM   17  C   UNL     1      -5.991 -14.206 -41.311  1.00  0.00     0.011 A 
HETATM   18 BR   UNL     1      -5.326 -15.174 -42.792  1.00  0.00    -0.051 Br
HETATM   19  C   UNL     1      -6.852 -14.832 -40.407  1.00  0.00     0.030 A 
BRANCH  14  20
HETATM   20  O   UNL     1      -7.410 -12.019 -38.100  1.00  0.00    -0.360 OA
HETATM   21  H   UNL     1      -6.783 -11.289 -37.968  1.00  0.00     0.217 HD
ENDBRANCH  14  20
ENDBRANCH   7  13
BRANCH  11  22
HETATM   22  N   UNL     1      -6.961 -17.847 -36.226  1.00  0.00    -0.282 NA
HETATM   23  H   UNL     1      -5.953 -17.877 -36.365  1.00  0.00     0.126 HD
HETATM   24  H   UNL     1      -7.379 -18.770 -36.149  1.00  0.00     0.126 HD
ENDBRANCH  11  22
BRANCH   1  25
HETATM   25  C   UNL     1     -10.471 -14.216 -40.802  1.00  0.00     0.061 C 
BRANCH  25  26
HETATM   26  C   UNL     1     -10.914 -13.037 -39.932  1.00  0.00     0.002 C 
HETATM   27  C   UNL     1     -10.285 -11.717 -40.356  1.00  0.00     0.005 C 
ENDBRANCH  25  26
ENDBRANCH   1  25
TORSDOF 5
ENDMDL
MODEL 10
REMARK VINA RESULT:      -5.9      1.876      4.312
REMARK  5 active torsions:
REMARK  status: ('A' for Active; 'I' for Inactive)
REMARK    1  A    between atoms: C_2  and  C_3 
REMARK    2  A    between atoms: C_3  and  C_4 
REMARK    3  A    between atoms: C_10  and  C_11 
REMARK    4  A    between atoms: C_12  and  O_13 
REMARK    5  A    between atoms: C_22  and  N_23 
ROOT
HETATM    1  C   UNL     1      -3.522   1.476 -31.663  1.00  0.00     0.066 A 
HETATM    2  N   UNL     1      -2.730   0.507 -31.172  1.00  0.00    -0.177 NA
HETATM    3  N   UNL     1      -3.298  -0.639 -31.589  1.00  0.00    -0.256 N 
HETATM    4  H   UNL     1      -2.865  -1.521 -31.340  1.00  0.00     0.191 HD
HETATM    5  C   UNL     1      -4.429  -0.430 -32.308  1.00  0.00     0.175 A 
HETATM    6  C   UNL     1      -4.619   0.929 -32.380  1.00  0.00     0.035 A 
HETATM    7  C   UNL     1      -5.792   1.466 -33.134  1.00  0.00     0.107 A 
HETATM    8  C   UNL     1      -6.683   0.316 -33.615  1.00  0.00     0.067 A 
HETATM    9  C   UNL     1      -8.023   0.695 -34.228  1.00  0.00     0.020 C 
HETATM   10  N   UNL     1      -9.133   1.008 -34.737  1.00  0.00    -0.096 N 
HETATM   11  C   UNL     1      -6.366  -0.997 -33.458  1.00  0.00     0.139 A 
HETATM   12  O   UNL     1      -5.182  -1.398 -32.816  1.00  0.00    -0.279 OA
ENDROOT
BRANCH   7  13
HETATM   13  C   UNL     1      -6.509   2.436 -32.208  1.00  0.00    -0.010 A 
HETATM   14  C   UNL     1      -7.048   2.012 -30.983  1.00  0.00     0.073 A 
HETATM   15  C   UNL     1      -7.611   2.914 -30.080  1.00  0.00     0.038 A 
HETATM   16  C   UNL     1      -7.672   4.269 -30.396  1.00  0.00     0.022 A 
HETATM   17  C   UNL     1      -7.160   4.712 -31.611  1.00  0.00     0.011 A 
HETATM   18 BR   UNL     1      -7.234   6.550 -32.045  1.00  0.00    -0.051 Br
HETATM   19  C   UNL     1      -6.578   3.813 -32.508  1.00  0.00     0.030 A 
BRANCH  14  20
HETATM   20  O   UNL     1      -7.044   0.704 -30.594  1.00  0.00    -0.360 OA
HETATM   21  H   UNL     1      -7.791   0.250 -31.020  1.00  0.00     0.217 HD
ENDBRANCH  14  20
ENDBRANCH   7  13
BRANCH  11  22
HETATM   22  N   UNL     1      -7.136  -2.061 -33.865  1.00  0.00    -0.282 NA
HETATM   23  H   UNL     1      -7.391  -2.077 -34.850  1.00  0.00     0.126 HD
HETATM   24  H   UNL     1      -7.927  -2.222 -33.247  1.00  0.00     0.126 HD
ENDBRANCH  11  22
BRANCH   1  25
HETATM   25  C   UNL     1      -3.184   2.905 -31.381  1.00  0.00     0.061 C 
BRANCH  25  26
HETATM   26  C   UNL     1      -2.834   3.721 -32.629  1.00  0.00     0.002 C 
HETATM   27  C   UNL     1      -1.704   4.713 -32.390  1.00  0.00     0.005 C 
ENDBRANCH  25  26
ENDBRANCH   1  25
TORSDOF 5
ENDMDL
