MODEL 1
REMARK VINA RESULT:     -10.1      0.000      0.000
REMARK  3 active torsions:
REMARK  status: ('A' for Active; 'I' for Inactive)
REMARK    1  A    between atoms: C_4  and  N_5 
REMARK       I    between atoms: N_5  and  C_6 
REMARK    2  A    between atoms: C_6  and  C_7 
REMARK    3  A    between atoms: C_7  and  N_8 
ROOT
HETATM    1  N   UNL     1      -5.406   2.119 -32.391  1.00  0.00    -0.224 N 
HETATM    2  N   UNL     1      -4.392   1.872 -31.445  1.00  0.00    -0.180 NA
HETATM    3  C   UNL     1      -3.407   2.718 -31.332  1.00  0.00     0.153 A 
HETATM    4  C   UNL     1      -3.330   3.884 -32.167  1.00  0.00     0.028 A 
HETATM    5  C   UNL     1      -4.317   4.095 -33.097  1.00  0.00     0.116 A 
HETATM    6  N   UNL     1      -4.039   5.251 -33.766  1.00  0.00    -0.350 N 
HETATM    7  H   UNL     1      -4.613   5.644 -34.500  1.00  0.00     0.166 HD
HETATM    8  C   UNL     1      -2.872   5.799 -33.276  1.00  0.00     0.044 A 
HETATM    9  C   UNL     1      -2.406   4.955 -32.261  1.00  0.00     0.005 A 
HETATM   10  C   UNL     1      -2.202   6.967 -33.650  1.00  0.00     0.031 A 
HETATM   11  C   UNL     1      -1.025   7.289 -32.965  1.00  0.00     0.009 A 
HETATM   12  C   UNL     1      -0.535   6.482 -31.934  1.00  0.00    -0.061 A 
HETATM   13  C   UNL     1       0.739   6.840 -31.225  1.00  0.00     0.048 C 
HETATM   14  C   UNL     1      -1.218   5.303 -31.585  1.00  0.00     0.021 A 
HETATM   15  C   UNL     1      -5.433   3.216 -33.271  1.00  0.00     0.291 A 
HETATM   16  O   UNL     1      -6.307   3.407 -34.112  1.00  0.00    -0.264 OA
ENDROOT
BRANCH   1  17
HETATM   17  C   UNL     1      -6.539   1.207 -32.391  1.00  0.00     0.258 C 
BRANCH  17  18
HETATM   18  C   UNL     1      -6.085  -0.249 -32.605  1.00  0.00     0.244 C 
HETATM   19  N   UNL     1      -6.242  -0.768 -33.911  1.00  0.00    -0.321 N 
HETATM   20  C   UNL     1      -6.525   0.105 -35.054  1.00  0.00     0.159 C 
HETATM   21  O   UNL     1      -5.586  -0.882 -31.670  1.00  0.00    -0.271 OA
BRANCH  19  22
HETATM   22  C   UNL     1      -6.011  -2.169 -34.203  1.00  0.00     0.037 A 
HETATM   23  C   UNL     1      -4.776  -2.787 -33.946  1.00  0.00     0.036 A 
HETATM   24  C   UNL     1      -4.551  -4.148 -34.220  1.00  0.00    -0.060 A 
HETATM   25  C   UNL     1      -3.216  -4.775 -33.939  1.00  0.00     0.048 C 
HETATM   26  C   UNL     1      -5.588  -4.919 -34.744  1.00  0.00     0.007 A 
HETATM   27  C   UNL     1      -6.826  -4.339 -34.991  1.00  0.00     0.003 A 
HETATM   28  C   UNL     1      -7.035  -2.981 -34.721  1.00  0.00     0.030 A 
ENDBRANCH  19  22
ENDBRANCH  17  18
ENDBRANCH   1  17
TORSDOF 3
ENDMDL
MODEL 2
REMARK VINA RESULT:      -9.7      1.387      8.265
REMARK  3 active torsions:
REMARK  status: ('A' for Active; 'I' for Inactive)
REMARK    1  A    between atoms: C_4  and  N_5 
REMARK       I    between atoms: N_5  and  C_6 
REMARK    2  A    between atoms: C_6  and  C_7 
REMARK    3  A    between atoms: C_7  and  N_8 
ROOT
HETATM    1  N   UNL     1      -5.946   2.466 -32.999  1.00  0.00    -0.224 N 
HETATM    2  N   UNL     1      -4.731   1.999 -32.460  1.00  0.00    -0.180 NA
HETATM    3  C   UNL     1      -4.388   0.756 -32.646  1.00  0.00     0.153 A 
HETATM    4  C   UNL     1      -5.235  -0.147 -33.374  1.00  0.00     0.028 A 
HETATM    5  C   UNL     1      -6.424   0.323 -33.873  1.00  0.00     0.116 A 
HETATM    6  N   UNL     1      -7.053  -0.699 -34.522  1.00  0.00    -0.350 N 
HETATM    7  H   UNL     1      -7.946  -0.621 -34.992  1.00  0.00     0.166 HD
HETATM    8  C   UNL     1      -6.278  -1.838 -34.450  1.00  0.00     0.044 A 
HETATM    9  C   UNL     1      -5.121  -1.514 -33.732  1.00  0.00     0.005 A 
HETATM   10  C   UNL     1      -6.513  -3.118 -34.962  1.00  0.00     0.031 A 
HETATM   11  C   UNL     1      -5.535  -4.094 -34.743  1.00  0.00     0.009 A 
HETATM   12  C   UNL     1      -4.357  -3.807 -34.045  1.00  0.00    -0.061 A 
HETATM   13  C   UNL     1      -3.331  -4.876 -33.809  1.00  0.00     0.048 C 
HETATM   14  C   UNL     1      -4.151  -2.517 -33.525  1.00  0.00     0.021 A 
HETATM   15  C   UNL     1      -6.862   1.677 -33.717  1.00  0.00     0.291 A 
HETATM   16  O   UNL     1      -7.931   2.087 -34.159  1.00  0.00    -0.264 OA
ENDROOT
BRANCH   1  17
HETATM   17  C   UNL     1      -6.220   3.889 -32.863  1.00  0.00     0.258 C 
BRANCH  17  18
HETATM   18  C   UNL     1      -5.013   4.635 -32.265  1.00  0.00     0.244 C 
HETATM   19  N   UNL     1      -4.035   5.083 -33.184  1.00  0.00    -0.321 N 
HETATM   20  C   UNL     1      -4.295   5.112 -34.626  1.00  0.00     0.159 C 
HETATM   21  O   UNL     1      -4.957   4.840 -31.049  1.00  0.00    -0.271 OA
BRANCH  19  22
HETATM   22  C   UNL     1      -2.777   5.647 -32.737  1.00  0.00     0.037 A 
HETATM   23  C   UNL     1      -1.968   4.999 -31.788  1.00  0.00     0.036 A 
HETATM   24  C   UNL     1      -0.743   5.539 -31.358  1.00  0.00    -0.060 A 
HETATM   25  C   UNL     1       0.094   4.823 -30.339  1.00  0.00     0.048 C 
HETATM   26  C   UNL     1      -0.301   6.746 -31.901  1.00  0.00     0.007 A 
HETATM   27  C   UNL     1      -1.071   7.400 -32.855  1.00  0.00     0.003 A 
HETATM   28  C   UNL     1      -2.293   6.855 -33.269  1.00  0.00     0.030 A 
ENDBRANCH  19  22
ENDBRANCH  17  18
ENDBRANCH   1  17
TORSDOF 3
ENDMDL
MODEL 3
REMARK VINA RESULT:      -9.4      4.337      8.416
REMARK  3 active torsions:
REMARK  status: ('A' for Active; 'I' for Inactive)
REMARK    1  A    between atoms: C_4  and  N_5 
REMARK       I    between atoms: N_5  and  C_6 
REMARK    2  A    between atoms: C_6  and  C_7 
REMARK    3  A    between atoms: C_7  and  N_8 
ROOT
HETATM    1  N   UNL     1      -7.785   2.553 -33.871  1.00  0.00    -0.224 N 
HETATM    2  N   UNL     1      -8.644   1.673 -34.556  1.00  0.00    -0.180 NA
HETATM    3  C   UNL     1      -8.268   0.441 -34.755  1.00  0.00     0.153 A 
HETATM    4  C   UNL     1      -6.988  -0.025 -34.304  1.00  0.00     0.028 A 
HETATM    5  C   UNL     1      -6.156   0.854 -33.656  1.00  0.00     0.116 A 
HETATM    6  N   UNL     1      -5.009   0.196 -33.322  1.00  0.00    -0.350 N 
HETATM    7  H   UNL     1      -4.230   0.610 -32.827  1.00  0.00     0.166 HD
HETATM    8  C   UNL     1      -5.086  -1.114 -33.749  1.00  0.00     0.044 A 
HETATM    9  C   UNL     1      -6.330  -1.280 -34.369  1.00  0.00     0.005 A 
HETATM   10  C   UNL     1      -4.159  -2.153 -33.631  1.00  0.00     0.031 A 
HETATM   11  C   UNL     1      -4.512  -3.401 -34.156  1.00  0.00     0.009 A 
HETATM   12  C   UNL     1      -5.751  -3.613 -34.768  1.00  0.00    -0.061 A 
HETATM   13  C   UNL     1      -6.100  -4.958 -35.338  1.00  0.00     0.048 C 
HETATM   14  C   UNL     1      -6.662  -2.548 -34.889  1.00  0.00     0.021 A 
HETATM   15  C   UNL     1      -6.505   2.217 -33.393  1.00  0.00     0.291 A 
HETATM   16  O   UNL     1      -5.752   3.000 -32.821  1.00  0.00    -0.264 OA
ENDROOT
BRANCH   1  17
HETATM   17  C   UNL     1      -8.305   3.879 -33.572  1.00  0.00     0.258 C 
BRANCH  17  18
HETATM   18  C   UNL     1      -9.844   3.901 -33.629  1.00  0.00     0.244 C 
HETATM   19  N   UNL     1     -10.519   3.378 -32.501  1.00  0.00    -0.321 N 
HETATM   20  C   UNL     1      -9.819   3.119 -31.240  1.00  0.00     0.159 C 
HETATM   21  O   UNL     1     -10.417   4.387 -34.608  1.00  0.00    -0.271 OA
BRANCH  19  22
HETATM   22  C   UNL     1     -11.956   3.187 -32.500  1.00  0.00     0.037 A 
HETATM   23  C   UNL     1     -12.574   2.187 -33.270  1.00  0.00     0.036 A 
HETATM   24  C   UNL     1     -13.966   1.994 -33.265  1.00  0.00    -0.060 A 
HETATM   25  C   UNL     1     -14.594   0.921 -34.106  1.00  0.00     0.048 C 
HETATM   26  C   UNL     1     -14.765   2.803 -32.456  1.00  0.00     0.007 A 
HETATM   27  C   UNL     1     -14.180   3.788 -31.669  1.00  0.00     0.003 A 
HETATM   28  C   UNL     1     -12.792   3.975 -31.689  1.00  0.00     0.030 A 
ENDBRANCH  19  22
ENDBRANCH  17  18
ENDBRANCH   1  17
TORSDOF 3
ENDMDL
MODEL 4
REMARK VINA RESULT:      -9.3      4.826      8.202
REMARK  3 active torsions:
REMARK  status: ('A' for Active; 'I' for Inactive)
REMARK    1  A    between atoms: C_4  and  N_5 
REMARK       I    between atoms: N_5  and  C_6 
REMARK    2  A    between atoms: C_6  and  C_7 
REMARK    3  A    between atoms: C_7  and  N_8 
ROOT
HETATM    1  N   UNL     1      -7.930   1.488 -34.089  1.00  0.00    -0.224 N 
HETATM    2  N   UNL     1      -7.960   0.460 -35.052  1.00  0.00    -0.180 NA
HETATM    3  C   UNL     1      -7.136  -0.544 -34.938  1.00  0.00     0.153 A 
HETATM    4  C   UNL     1      -6.189  -0.607 -33.861  1.00  0.00     0.028 A 
HETATM    5  C   UNL     1      -6.162   0.415 -32.945  1.00  0.00     0.116 A 
HETATM    6  N   UNL     1      -5.195   0.141 -32.022  1.00  0.00    -0.350 N 
HETATM    7  H   UNL     1      -4.972   0.729 -31.230  1.00  0.00     0.166 HD
HETATM    8  C   UNL     1      -4.589  -1.059 -32.330  1.00  0.00     0.044 A 
HETATM    9  C   UNL     1      -5.202  -1.554 -33.487  1.00  0.00     0.005 A 
HETATM   10  C   UNL     1      -3.554  -1.736 -31.678  1.00  0.00     0.031 A 
HETATM   11  C   UNL     1      -3.138  -2.959 -32.215  1.00  0.00     0.009 A 
HETATM   12  C   UNL     1      -3.736  -3.497 -33.359  1.00  0.00    -0.061 A 
HETATM   13  C   UNL     1      -3.260  -4.803 -33.926  1.00  0.00     0.048 C 
HETATM   14  C   UNL     1      -4.764  -2.789 -34.008  1.00  0.00     0.021 A 
HETATM   15  C   UNL     1      -7.042   1.542 -33.000  1.00  0.00     0.291 A 
HETATM   16  O   UNL     1      -7.005   2.457 -32.182  1.00  0.00    -0.264 OA
ENDROOT
BRANCH   1  17
HETATM   17  C   UNL     1      -8.950   2.519 -34.199  1.00  0.00     0.258 C 
BRANCH  17  18
HETATM   18  C   UNL     1     -10.332   1.984 -33.781  1.00  0.00     0.244 C 
HETATM   19  N   UNL     1     -11.453   2.636 -34.347  1.00  0.00    -0.321 N 
HETATM   20  C   UNL     1     -11.316   3.549 -35.485  1.00  0.00     0.159 C 
HETATM   21  O   UNL     1     -10.413   1.017 -33.018  1.00  0.00    -0.271 OA
BRANCH  19  22
HETATM   22  C   UNL     1     -12.803   2.341 -33.908  1.00  0.00     0.037 A 
HETATM   23  C   UNL     1     -13.520   3.212 -33.071  1.00  0.00     0.036 A 
HETATM   24  C   UNL     1     -14.832   2.933 -32.650  1.00  0.00    -0.060 A 
HETATM   25  C   UNL     1     -15.566   3.884 -31.751  1.00  0.00     0.048 C 
HETATM   26  C   UNL     1     -15.456   1.765 -33.090  1.00  0.00     0.007 A 
HETATM   27  C   UNL     1     -14.778   0.893 -33.934  1.00  0.00     0.003 A 
HETATM   28  C   UNL     1     -13.469   1.180 -34.339  1.00  0.00     0.030 A 
ENDBRANCH  19  22
ENDBRANCH  17  18
ENDBRANCH   1  17
TORSDOF 3
ENDMDL
MODEL 5
REMARK VINA RESULT:      -9.1      3.278      8.796
REMARK  3 active torsions:
REMARK  status: ('A' for Active; 'I' for Inactive)
REMARK    1  A    between atoms: C_4  and  N_5 
REMARK       I    between atoms: N_5  and  C_6 
REMARK    2  A    between atoms: C_6  and  C_7 
REMARK    3  A    between atoms: C_7  and  N_8 
ROOT
HETATM    1  N   UNL     1      -4.045   1.580 -31.916  1.00  0.00    -0.224 N 
HETATM    2  N   UNL     1      -5.117   1.576 -32.829  1.00  0.00    -0.180 NA
HETATM    3  C   UNL     1      -5.445   0.463 -33.423  1.00  0.00     0.153 A 
HETATM    4  C   UNL     1      -4.719  -0.751 -33.176  1.00  0.00     0.028 A 
HETATM    5  C   UNL     1      -3.665  -0.722 -32.299  1.00  0.00     0.116 A 
HETATM    6  N   UNL     1      -3.134  -1.976 -32.220  1.00  0.00    -0.350 N 
HETATM    7  H   UNL     1      -2.350  -2.235 -31.635  1.00  0.00     0.166 HD
HETATM    8  C   UNL     1      -3.839  -2.828 -33.044  1.00  0.00     0.044 A 
HETATM    9  C   UNL     1      -4.850  -2.078 -33.657  1.00  0.00     0.005 A 
HETATM   10  C   UNL     1      -3.660  -4.193 -33.289  1.00  0.00     0.031 A 
HETATM   11  C   UNL     1      -4.543  -4.814 -34.180  1.00  0.00     0.009 A 
HETATM   12  C   UNL     1      -5.576  -4.104 -34.800  1.00  0.00    -0.061 A 
HETATM   13  C   UNL     1      -6.500  -4.790 -35.764  1.00  0.00     0.048 C 
HETATM   14  C   UNL     1      -5.726  -2.729 -34.550  1.00  0.00     0.021 A 
HETATM   15  C   UNL     1      -3.254   0.460 -31.602  1.00  0.00     0.291 A 
HETATM   16  O   UNL     1      -2.303   0.480 -30.826  1.00  0.00    -0.264 OA
ENDROOT
BRANCH   1  17
HETATM   17  C   UNL     1      -3.802   2.820 -31.195  1.00  0.00     0.258 C 
BRANCH  17  18
HETATM   18  C   UNL     1      -5.077   3.313 -30.487  1.00  0.00     0.244 C 
HETATM   19  N   UNL     1      -5.531   4.605 -30.843  1.00  0.00    -0.321 N 
HETATM   20  C   UNL     1      -5.011   5.302 -32.023  1.00  0.00     0.159 C 
HETATM   21  O   UNL     1      -5.659   2.578 -29.684  1.00  0.00    -0.271 OA
BRANCH  19  22
HETATM   22  C   UNL     1      -6.616   5.250 -30.131  1.00  0.00     0.037 A 
HETATM   23  C   UNL     1      -7.932   5.252 -30.626  1.00  0.00     0.036 A 
HETATM   24  C   UNL     1      -8.988   5.869 -29.934  1.00  0.00    -0.060 A 
HETATM   25  C   UNL     1     -10.381   5.858 -30.495  1.00  0.00     0.048 C 
HETATM   26  C   UNL     1      -8.735   6.483 -28.707  1.00  0.00     0.007 A 
HETATM   27  C   UNL     1      -7.448   6.481 -28.184  1.00  0.00     0.003 A 
HETATM   28  C   UNL     1      -6.402   5.869 -28.887  1.00  0.00     0.030 A 
ENDBRANCH  19  22
ENDBRANCH  17  18
ENDBRANCH   1  17
TORSDOF 3
ENDMDL
MODEL 6
REMARK VINA RESULT:      -8.7      4.489      8.913
REMARK  3 active torsions:
REMARK  status: ('A' for Active; 'I' for Inactive)
REMARK    1  A    between atoms: C_4  and  N_5 
REMARK       I    between atoms: N_5  and  C_6 
REMARK    2  A    between atoms: C_6  and  C_7 
REMARK    3  A    between atoms: C_7  and  N_8 
ROOT
HETATM    1  N   UNL     1      -7.419   2.691 -32.959  1.00  0.00    -0.224 N 
HETATM    2  N   UNL     1      -8.424   1.950 -33.610  1.00  0.00    -0.180 NA
HETATM    3  C   UNL     1      -8.169   0.730 -33.994  1.00  0.00     0.153 A 
HETATM    4  C   UNL     1      -6.878   0.141 -33.781  1.00  0.00     0.028 A 
HETATM    5  C   UNL     1      -5.905   0.887 -33.165  1.00  0.00     0.116 A 
HETATM    6  N   UNL     1      -4.775   0.129 -33.069  1.00  0.00    -0.350 N 
HETATM    7  H   UNL     1      -3.909   0.435 -32.646  1.00  0.00     0.166 HD
HETATM    8  C   UNL     1      -5.005  -1.114 -33.622  1.00  0.00     0.044 A 
HETATM    9  C   UNL     1      -6.329  -1.133 -34.076  1.00  0.00     0.005 A 
HETATM   10  C   UNL     1      -4.148  -2.212 -33.752  1.00  0.00     0.031 A 
HETATM   11  C   UNL     1      -4.659  -3.366 -34.355  1.00  0.00     0.009 A 
HETATM   12  C   UNL     1      -5.981  -3.432 -34.808  1.00  0.00    -0.061 A 
HETATM   13  C   UNL     1      -6.500  -4.676 -35.467  1.00  0.00     0.048 C 
HETATM   14  C   UNL     1      -6.819  -2.309 -34.681  1.00  0.00     0.021 A 
HETATM   15  C   UNL     1      -6.115   2.227 -32.706  1.00  0.00     0.291 A 
HETATM   16  O   UNL     1      -5.237   2.891 -32.163  1.00  0.00    -0.264 OA
ENDROOT
BRANCH   1  17
HETATM   17  C   UNL     1      -7.796   3.999 -32.447  1.00  0.00     0.258 C 
BRANCH  17  18
HETATM   18  C   UNL     1      -8.755   4.721 -33.411  1.00  0.00     0.244 C 
HETATM   19  N   UNL     1     -10.113   4.776 -33.019  1.00  0.00    -0.321 N 
HETATM   20  C   UNL     1     -10.531   4.446 -31.654  1.00  0.00     0.159 C 
HETATM   21  O   UNL     1      -8.317   5.239 -34.442  1.00  0.00    -0.271 OA
BRANCH  19  22
HETATM   22  C   UNL     1     -11.140   5.276 -33.912  1.00  0.00     0.037 A 
HETATM   23  C   UNL     1     -11.489   6.637 -33.954  1.00  0.00     0.036 A 
HETATM   24  C   UNL     1     -12.478   7.128 -34.824  1.00  0.00    -0.060 A 
HETATM   25  C   UNL     1     -12.831   8.587 -34.838  1.00  0.00     0.048 C 
HETATM   26  C   UNL     1     -13.124   6.245 -35.690  1.00  0.00     0.007 A 
HETATM   27  C   UNL     1     -12.786   4.897 -35.684  1.00  0.00     0.003 A 
HETATM   28  C   UNL     1     -11.805   4.420 -34.807  1.00  0.00     0.030 A 
ENDBRANCH  19  22
ENDBRANCH  17  18
ENDBRANCH   1  17
TORSDOF 3
ENDMDL
MODEL 7
REMARK VINA RESULT:      -8.7      3.112      8.311
REMARK  3 active torsions:
REMARK  status: ('A' for Active; 'I' for Inactive)
REMARK    1  A    between atoms: C_4  and  N_5 
REMARK       I    between atoms: N_5  and  C_6 
REMARK    2  A    between atoms: C_6  and  C_7 
REMARK    3  A    between atoms: C_7  and  N_8 
ROOT
HETATM    1  N   UNL     1      -4.894   2.091 -32.436  1.00  0.00    -0.224 N 
HETATM    2  N   UNL     1      -5.967   1.846 -33.315  1.00  0.00    -0.180 NA
HETATM    3  C   UNL     1      -6.130   0.649 -33.804  1.00  0.00     0.153 A 
HETATM    4  C   UNL     1      -5.224  -0.416 -33.476  1.00  0.00     0.028 A 
HETATM    5  C   UNL     1      -4.173  -0.152 -32.634  1.00  0.00     0.116 A 
HETATM    6  N   UNL     1      -3.456  -1.300 -32.465  1.00  0.00    -0.350 N 
HETATM    7  H   UNL     1      -2.633  -1.386 -31.883  1.00  0.00     0.166 HD
HETATM    8  C   UNL     1      -4.035  -2.317 -33.195  1.00  0.00     0.044 A 
HETATM    9  C   UNL     1      -5.157  -1.784 -33.840  1.00  0.00     0.005 A 
HETATM   10  C   UNL     1      -3.654  -3.655 -33.329  1.00  0.00     0.031 A 
HETATM   11  C   UNL     1      -4.444  -4.478 -34.140  1.00  0.00     0.009 A 
HETATM   12  C   UNL     1      -5.583  -3.989 -34.789  1.00  0.00    -0.061 A 
HETATM   13  C   UNL     1      -6.405  -4.887 -35.666  1.00  0.00     0.048 C 
HETATM   14  C   UNL     1      -5.937  -2.635 -34.651  1.00  0.00     0.021 A 
HETATM   15  C   UNL     1      -3.938   1.135 -32.051  1.00  0.00     0.291 A 
HETATM   16  O   UNL     1      -2.989   1.365 -31.305  1.00  0.00    -0.264 OA
ENDROOT
BRANCH   1  17
HETATM   17  C   UNL     1      -4.832   3.412 -31.828  1.00  0.00     0.258 C 
BRANCH  17  18
HETATM   18  C   UNL     1      -6.188   4.136 -31.926  1.00  0.00     0.244 C 
HETATM   19  N   UNL     1      -7.157   3.784 -30.958  1.00  0.00    -0.321 N 
HETATM   20  C   UNL     1      -6.802   3.019 -29.760  1.00  0.00     0.159 C 
HETATM   21  O   UNL     1      -6.366   4.993 -32.797  1.00  0.00    -0.271 OA
BRANCH  19  22
HETATM   22  C   UNL     1      -8.521   4.266 -31.042  1.00  0.00     0.037 A 
HETATM   23  C   UNL     1      -9.498   3.604 -31.805  1.00  0.00     0.036 A 
HETATM   24  C   UNL     1     -10.824   4.064 -31.882  1.00  0.00    -0.060 A 
HETATM   25  C   UNL     1     -11.841   3.335 -32.712  1.00  0.00     0.048 C 
HETATM   26  C   UNL     1     -11.195   5.202 -31.165  1.00  0.00     0.007 A 
HETATM   27  C   UNL     1     -10.255   5.867 -30.387  1.00  0.00     0.003 A 
HETATM   28  C   UNL     1      -8.935   5.403 -30.325  1.00  0.00     0.030 A 
ENDBRANCH  19  22
ENDBRANCH  17  18
ENDBRANCH   1  17
TORSDOF 3
ENDMDL
MODEL 8
REMARK VINA RESULT:      -8.6      2.008      8.854
REMARK  3 active torsions:
REMARK  status: ('A' for Active; 'I' for Inactive)
REMARK    1  A    between atoms: C_4  and  N_5 
REMARK       I    between atoms: N_5  and  C_6 
REMARK    2  A    between atoms: C_6  and  C_7 
REMARK    3  A    between atoms: C_7  and  N_8 
ROOT
HETATM    1  N   UNL     1      -6.340   2.517 -32.312  1.00  0.00    -0.224 N 
HETATM    2  N   UNL     1      -7.330   2.085 -33.216  1.00  0.00    -0.180 NA
HETATM    3  C   UNL     1      -7.245   0.891 -33.732  1.00  0.00     0.153 A 
HETATM    4  C   UNL     1      -6.152   0.019 -33.408  1.00  0.00     0.028 A 
HETATM    5  C   UNL     1      -5.186   0.466 -32.542  1.00  0.00     0.116 A 
HETATM    6  N   UNL     1      -4.258  -0.521 -32.383  1.00  0.00    -0.350 N 
HETATM    7  H   UNL     1      -3.443  -0.456 -31.787  1.00  0.00     0.166 HD
HETATM    8  C   UNL     1      -4.614  -1.615 -33.144  1.00  0.00     0.044 A 
HETATM    9  C   UNL     1      -5.810  -1.300 -33.799  1.00  0.00     0.005 A 
HETATM   10  C   UNL     1      -3.974  -2.849 -33.298  1.00  0.00     0.031 A 
HETATM   11  C   UNL     1      -4.574  -3.792 -34.140  1.00  0.00     0.009 A 
HETATM   12  C   UNL     1      -5.777  -3.523 -34.799  1.00  0.00    -0.061 A 
HETATM   13  C   UNL     1      -6.393  -4.545 -35.710  1.00  0.00     0.048 C 
HETATM   14  C   UNL     1      -6.395  -2.269 -34.641  1.00  0.00     0.021 A 
HETATM   15  C   UNL     1      -5.218   1.759 -31.929  1.00  0.00     0.291 A 
HETATM   16  O   UNL     1      -4.345   2.156 -31.161  1.00  0.00    -0.264 OA
ENDROOT
BRANCH   1  17
HETATM   17  C   UNL     1      -6.549   3.809 -31.677  1.00  0.00     0.258 C 
BRANCH  17  18
HETATM   18  C   UNL     1      -5.376   4.765 -31.957  1.00  0.00     0.244 C 
HETATM   19  N   UNL     1      -4.870   5.477 -30.844  1.00  0.00    -0.321 N 
HETATM   20  C   UNL     1      -5.224   5.107 -29.471  1.00  0.00     0.159 C 
HETATM   21  O   UNL     1      -4.910   4.851 -33.096  1.00  0.00    -0.271 OA
BRANCH  19  22
HETATM   22  C   UNL     1      -3.883   6.527 -31.001  1.00  0.00     0.037 A 
HETATM   23  C   UNL     1      -2.509   6.248 -31.090  1.00  0.00     0.036 A 
HETATM   24  C   UNL     1      -1.550   7.264 -31.251  1.00  0.00    -0.060 A 
HETATM   25  C   UNL     1      -0.088   6.931 -31.336  1.00  0.00     0.048 C 
HETATM   26  C   UNL     1      -1.970   8.591 -31.346  1.00  0.00     0.007 A 
HETATM   27  C   UNL     1      -3.324   8.895 -31.280  1.00  0.00     0.003 A 
HETATM   28  C   UNL     1      -4.268   7.875 -31.112  1.00  0.00     0.030 A 
ENDBRANCH  19  22
ENDBRANCH  17  18
ENDBRANCH   1  17
TORSDOF 3
ENDMDL
MODEL 9
REMARK VINA RESULT:      -8.5      5.655      9.084
REMARK  3 active torsions:
REMARK  status: ('A' for Active; 'I' for Inactive)
REMARK    1  A    between atoms: C_4  and  N_5 
REMARK       I    between atoms: N_5  and  C_6 
REMARK    2  A    between atoms: C_6  and  C_7 
REMARK    3  A    between atoms: C_7  and  N_8 
ROOT
HETATM    1  N   UNL     1      -9.149   3.059 -33.731  1.00  0.00    -0.224 N 
HETATM    2  N   UNL     1      -9.832   1.966 -34.296  1.00  0.00    -0.180 NA
HETATM    3  C   UNL     1      -9.203   0.835 -34.458  1.00  0.00     0.153 A 
HETATM    4  C   UNL     1      -7.823   0.696 -34.086  1.00  0.00     0.028 A 
HETATM    5  C   UNL     1      -7.169   1.779 -33.556  1.00  0.00     0.116 A 
HETATM    6  N   UNL     1      -5.884   1.416 -33.279  1.00  0.00    -0.350 N 
HETATM    7  H   UNL     1      -5.187   2.025 -32.872  1.00  0.00     0.166 HD
HETATM    8  C   UNL     1      -5.693   0.095 -33.628  1.00  0.00     0.044 A 
HETATM    9  C   UNL     1      -6.906  -0.385 -34.136  1.00  0.00     0.005 A 
HETATM   10  C   UNL     1      -4.550  -0.704 -33.529  1.00  0.00     0.031 A 
HETATM   11  C   UNL     1      -4.647  -2.034 -33.955  1.00  0.00     0.009 A 
HETATM   12  C   UNL     1      -5.845  -2.556 -34.454  1.00  0.00    -0.061 A 
HETATM   13  C   UNL     1      -5.920  -3.981 -34.920  1.00  0.00     0.048 C 
HETATM   14  C   UNL     1      -6.978  -1.729 -34.559  1.00  0.00     0.021 A 
HETATM   15  C   UNL     1      -7.798   3.047 -33.340  1.00  0.00     0.291 A 
HETATM   16  O   UNL     1      -7.203   4.015 -32.874  1.00  0.00    -0.264 OA
ENDROOT
BRANCH   1  17
HETATM   17  C   UNL     1      -9.933   4.256 -33.464  1.00  0.00     0.258 C 
BRANCH  17  18
HETATM   18  C   UNL     1     -11.255   3.910 -32.755  1.00  0.00     0.244 C 
HETATM   19  N   UNL     1     -12.428   3.995 -33.541  1.00  0.00    -0.321 N 
HETATM   20  C   UNL     1     -12.366   4.101 -35.002  1.00  0.00     0.159 C 
HETATM   21  O   UNL     1     -11.245   3.551 -31.574  1.00  0.00    -0.271 OA
BRANCH  19  22
HETATM   22  C   UNL     1     -13.746   3.860 -32.953  1.00  0.00     0.037 A 
HETATM   23  C   UNL     1     -14.486   4.974 -32.524  1.00  0.00     0.036 A 
HETATM   24  C   UNL     1     -15.768   4.847 -31.961  1.00  0.00    -0.060 A 
HETATM   25  C   UNL     1     -16.529   6.059 -31.507  1.00  0.00     0.048 C 
HETATM   26  C   UNL     1     -16.338   3.579 -31.840  1.00  0.00     0.007 A 
HETATM   27  C   UNL     1     -15.637   2.461 -32.273  1.00  0.00     0.003 A 
HETATM   28  C   UNL     1     -14.358   2.600 -32.825  1.00  0.00     0.030 A 
ENDBRANCH  19  22
ENDBRANCH  17  18
ENDBRANCH   1  17
TORSDOF 3
ENDMDL
MODEL 10
REMARK VINA RESULT:      -8.4      3.211      8.586
REMARK  3 active torsions:
REMARK  status: ('A' for Active; 'I' for Inactive)
REMARK    1  A    between atoms: C_4  and  N_5 
REMARK       I    between atoms: N_5  and  C_6 
REMARK    2  A    between atoms: C_6  and  C_7 
REMARK    3  A    between atoms: C_7  and  N_8 
ROOT
HETATM    1  N   UNL     1      -4.921   2.389 -32.556  1.00  0.00    -0.224 N 
HETATM    2  N   UNL     1      -5.996   2.117 -33.425  1.00  0.00    -0.180 NA
HETATM    3  C   UNL     1      -6.158   0.906 -33.878  1.00  0.00     0.153 A 
HETATM    4  C   UNL     1      -5.251  -0.148 -33.520  1.00  0.00     0.028 A 
HETATM    5  C   UNL     1      -4.198   0.143 -32.689  1.00  0.00     0.116 A 
HETATM    6  N   UNL     1      -3.479  -0.999 -32.488  1.00  0.00    -0.350 N 
HETATM    7  H   UNL     1      -2.654  -1.066 -31.906  1.00  0.00     0.166 HD
HETATM    8  C   UNL     1      -4.058  -2.038 -33.186  1.00  0.00     0.044 A 
HETATM    9  C   UNL     1      -5.183  -1.527 -33.843  1.00  0.00     0.005 A 
HETATM   10  C   UNL     1      -3.676  -3.380 -33.281  1.00  0.00     0.031 A 
HETATM   11  C   UNL     1      -4.468  -4.227 -34.064  1.00  0.00     0.009 A 
HETATM   12  C   UNL     1      -5.609  -3.759 -34.724  1.00  0.00    -0.061 A 
HETATM   13  C   UNL     1      -6.432  -4.684 -35.572  1.00  0.00     0.048 C 
HETATM   14  C   UNL     1      -5.964  -2.402 -34.626  1.00  0.00     0.021 A 
HETATM   15  C   UNL     1      -3.962   1.446 -32.146  1.00  0.00     0.291 A 
HETATM   16  O   UNL     1      -3.013   1.700 -31.410  1.00  0.00    -0.264 OA
ENDROOT
BRANCH   1  17
HETATM   17  C   UNL     1      -4.859   3.727 -31.989  1.00  0.00     0.258 C 
BRANCH  17  18
HETATM   18  C   UNL     1      -5.835   4.682 -32.702  1.00  0.00     0.244 C 
HETATM   19  N   UNL     1      -7.135   4.775 -32.151  1.00  0.00    -0.321 N 
HETATM   20  C   UNL     1      -7.444   4.244 -30.821  1.00  0.00     0.159 C 
HETATM   21  O   UNL     1      -5.454   5.337 -33.676  1.00  0.00    -0.271 OA
BRANCH  19  22
HETATM   22  C   UNL     1      -8.192   5.504 -32.823  1.00  0.00     0.037 A 
HETATM   23  C   UNL     1      -8.647   6.750 -32.356  1.00  0.00     0.036 A 
HETATM   24  C   UNL     1      -9.666   7.464 -33.010  1.00  0.00    -0.060 A 
HETATM   25  C   UNL     1     -10.133   8.789 -32.480  1.00  0.00     0.048 C 
HETATM   26  C   UNL     1     -10.234   6.937 -34.170  1.00  0.00     0.007 A 
HETATM   27  C   UNL     1      -9.791   5.716 -34.664  1.00  0.00     0.003 A 
HETATM   28  C   UNL     1      -8.781   5.011 -34.000  1.00  0.00     0.030 A 
ENDBRANCH  19  22
ENDBRANCH  17  18
ENDBRANCH   1  17
TORSDOF 3
ENDMDL
