MODEL 1
REMARK VINA RESULT:      -9.0      0.000      0.000
REMARK  6 active torsions:
REMARK  status: ('A' for Active; 'I' for Inactive)
REMARK    1  A    between atoms: N_2  and  C_4 
REMARK    2  A    between atoms: N_2  and  C_16 
REMARK    3  A    between atoms: C_4  and  C_5 
REMARK       I    between atoms: C_5  and  N_6 
REMARK    4  A    between atoms: N_6  and  C_7 
REMARK    5  A    between atoms: C_16  and  C_17 
REMARK    6  A    between atoms: C_21  and  C_22 
ROOT
HETATM    1  C   UNL     1      -5.605   4.394 -34.226  1.00  0.00     0.270 C 
HETATM    2  N   UNL     1      -5.802   3.295 -33.228  1.00  0.00    -0.061 N 
HETATM    3  H   UNL     1      -5.183   2.520 -33.530  1.00  0.00     0.280 HD
ENDROOT
BRANCH   2   4
HETATM    4  C   UNL     1      -5.426   3.685 -31.805  1.00  0.00     0.337 C 
BRANCH   4   5
HETATM    5  C   UNL     1      -4.251   2.899 -31.221  1.00  0.00     0.248 C 
HETATM    6  N   UNL     1      -2.965   3.339 -31.289  1.00  0.00    -0.326 N 
HETATM    7  H   UNL     1      -2.348   2.720 -30.764  1.00  0.00     0.169 HD
HETATM    8  O   UNL     1      -4.457   1.830 -30.632  1.00  0.00    -0.271 OA
BRANCH   6   9
HETATM    9  C   UNL     1      -2.328   4.427 -31.916  1.00  0.00     0.040 A 
HETATM   10  C   UNL     1      -1.933   5.609 -31.295  1.00  0.00     0.072 A 
HETATM   11  C   UNL     1      -1.311   6.617 -32.039  1.00  0.00     0.121 A 
HETATM   12  F   UNL     1      -0.939   7.741 -31.413  1.00  0.00    -0.206 F 
HETATM   13  C   UNL     1      -1.077   6.484 -33.397  1.00  0.00     0.084 A 
HETATM   14  C   UNL     1      -1.485   5.318 -34.016  1.00  0.00     0.121 A 
HETATM   15  F   UNL     1      -1.282   5.159 -35.330  1.00  0.00    -0.206 F 
HETATM   16  C   UNL     1      -2.107   4.299 -33.296  1.00  0.00     0.072 A 
ENDBRANCH   6   9
ENDBRANCH   4   5
ENDBRANCH   2   4
BRANCH   2  17
HETATM   17  C   UNL     1      -7.179   2.651 -33.348  1.00  0.00     0.295 C 
BRANCH  17  18
HETATM   18  C   UNL     1      -7.050   1.272 -33.920  1.00  0.00     0.082 A 
HETATM   19  N   UNL     1      -7.879   0.890 -34.906  1.00  0.00    -0.177 NA
HETATM   20  N   UNL     1      -7.505  -0.388 -35.152  1.00  0.00    -0.277 N 
HETATM   21  H   UNL     1      -8.001  -0.915 -35.864  1.00  0.00     0.189 HD
HETATM   22  C   UNL     1      -6.487  -0.836 -34.346  1.00  0.00     0.062 A 
HETATM   23  C   UNL     1      -6.171   0.240 -33.539  1.00  0.00     0.062 A 
BRANCH  22  24
HETATM   24  C   UNL     1      -5.953  -2.198 -34.388  1.00  0.00    -0.008 A 
HETATM   25  C   UNL     1      -4.631  -2.479 -34.017  1.00  0.00     0.014 A 
HETATM   26  C   UNL     1      -4.136  -3.785 -34.075  1.00  0.00     0.001 A 
HETATM   27  C   UNL     1      -4.956  -4.827 -34.500  1.00  0.00     0.000 A 
HETATM   28  C   UNL     1      -6.274  -4.565 -34.866  1.00  0.00     0.001 A 
HETATM   29  C   UNL     1      -6.769  -3.260 -34.809  1.00  0.00     0.014 A 
ENDBRANCH  22  24
ENDBRANCH  17  18
ENDBRANCH   2  17
TORSDOF 6
ENDMDL
MODEL 2
REMARK VINA RESULT:      -8.9      0.397      1.880
REMARK  6 active torsions:
REMARK  status: ('A' for Active; 'I' for Inactive)
REMARK    1  A    between atoms: N_2  and  C_4 
REMARK    2  A    between atoms: N_2  and  C_16 
REMARK    3  A    between atoms: C_4  and  C_5 
REMARK       I    between atoms: C_5  and  N_6 
REMARK    4  A    between atoms: N_6  and  C_7 
REMARK    5  A    between atoms: C_16  and  C_17 
REMARK    6  A    between atoms: C_21  and  C_22 
ROOT
HETATM    1  C   UNL     1      -6.028   4.523 -34.018  1.00  0.00     0.270 C 
HETATM    2  N   UNL     1      -5.906   3.409 -33.025  1.00  0.00    -0.061 N 
HETATM    3  H   UNL     1      -5.190   2.764 -33.406  1.00  0.00     0.280 HD
ENDROOT
BRANCH   2   4
HETATM    4  C   UNL     1      -5.458   3.867 -31.644  1.00  0.00     0.337 C 
BRANCH   4   5
HETATM    5  C   UNL     1      -4.340   3.024 -31.027  1.00  0.00     0.248 C 
HETATM    6  N   UNL     1      -3.021   3.319 -31.190  1.00  0.00    -0.326 N 
HETATM    7  H   UNL     1      -2.444   2.695 -30.629  1.00  0.00     0.169 HD
HETATM    8  O   UNL     1      -4.622   2.046 -30.325  1.00  0.00    -0.271 OA
BRANCH   6   9
HETATM    9  C   UNL     1      -2.311   4.269 -31.949  1.00  0.00     0.040 A 
HETATM   10  C   UNL     1      -2.246   4.320 -33.340  1.00  0.00     0.072 A 
HETATM   11  C   UNL     1      -1.497   5.319 -33.970  1.00  0.00     0.121 A 
HETATM   12  F   UNL     1      -1.456   5.343 -35.308  1.00  0.00    -0.206 F 
HETATM   13  C   UNL     1      -0.799   6.272 -33.249  1.00  0.00     0.084 A 
HETATM   14  C   UNL     1      -0.850   6.212 -31.869  1.00  0.00     0.121 A 
HETATM   15  F   UNL     1      -0.180   7.113 -31.141  1.00  0.00    -0.206 F 
HETATM   16  C   UNL     1      -1.589   5.225 -31.218  1.00  0.00     0.072 A 
ENDBRANCH   6   9
ENDBRANCH   4   5
ENDBRANCH   2   4
BRANCH   2  17
HETATM   17  C   UNL     1      -7.143   2.518 -33.008  1.00  0.00     0.295 C 
BRANCH  17  18
HETATM   18  C   UNL     1      -6.860   1.238 -33.734  1.00  0.00     0.082 A 
HETATM   19  N   UNL     1      -7.209   1.124 -35.027  1.00  0.00    -0.177 NA
HETATM   20  N   UNL     1      -6.838  -0.139 -35.341  1.00  0.00    -0.277 N 
HETATM   21  H   UNL     1      -7.012  -0.481 -36.282  1.00  0.00     0.189 HD
HETATM   22  C   UNL     1      -6.288  -0.837 -34.293  1.00  0.00     0.062 A 
HETATM   23  C   UNL     1      -6.286   0.052 -33.236  1.00  0.00     0.062 A 
BRANCH  22  24
HETATM   24  C   UNL     1      -5.864  -2.235 -34.378  1.00  0.00    -0.008 A 
HETATM   25  C   UNL     1      -6.744  -3.243 -34.796  1.00  0.00     0.014 A 
HETATM   26  C   UNL     1      -6.324  -4.575 -34.860  1.00  0.00     0.001 A 
HETATM   27  C   UNL     1      -5.019  -4.916 -34.511  1.00  0.00     0.000 A 
HETATM   28  C   UNL     1      -4.132  -3.924 -34.100  1.00  0.00     0.001 A 
HETATM   29  C   UNL     1      -4.551  -2.594 -34.035  1.00  0.00     0.014 A 
ENDBRANCH  22  24
ENDBRANCH  17  18
ENDBRANCH   2  17
TORSDOF 6
ENDMDL
MODEL 3
REMARK VINA RESULT:      -8.5      4.356      6.795
REMARK  6 active torsions:
REMARK  status: ('A' for Active; 'I' for Inactive)
REMARK    1  A    between atoms: N_2  and  C_4 
REMARK    2  A    between atoms: N_2  and  C_16 
REMARK    3  A    between atoms: C_4  and  C_5 
REMARK       I    between atoms: C_5  and  N_6 
REMARK    4  A    between atoms: N_6  and  C_7 
REMARK    5  A    between atoms: C_16  and  C_17 
REMARK    6  A    between atoms: C_21  and  C_22 
ROOT
HETATM    1  C   UNL     1      -6.462   3.885 -31.378  1.00  0.00     0.270 C 
HETATM    2  N   UNL     1      -7.062   2.726 -32.112  1.00  0.00    -0.061 N 
HETATM    3  H   UNL     1      -6.571   1.882 -31.763  1.00  0.00     0.280 HD
ENDROOT
BRANCH   2   4
HETATM    4  C   UNL     1      -8.555   2.551 -31.865  1.00  0.00     0.337 C 
BRANCH   4   5
HETATM    5  C   UNL     1      -9.039   1.100 -31.902  1.00  0.00     0.248 C 
HETATM    6  N   UNL     1     -10.040   0.680 -32.722  1.00  0.00    -0.326 N 
HETATM    7  H   UNL     1     -10.149  -0.331 -32.663  1.00  0.00     0.169 HD
HETATM    8  O   UNL     1      -8.494   0.251 -31.187  1.00  0.00    -0.271 OA
BRANCH   6   9
HETATM    9  C   UNL     1     -10.931   1.327 -33.601  1.00  0.00     0.040 A 
HETATM   10  C   UNL     1     -10.657   2.475 -34.341  1.00  0.00     0.072 A 
HETATM   11  C   UNL     1     -11.638   3.019 -35.177  1.00  0.00     0.121 A 
HETATM   12  F   UNL     1     -11.345   4.122 -35.878  1.00  0.00    -0.206 F 
HETATM   13  C   UNL     1     -12.896   2.453 -35.291  1.00  0.00     0.084 A 
HETATM   14  C   UNL     1     -13.173   1.324 -34.544  1.00  0.00     0.121 A 
HETATM   15  F   UNL     1     -14.382   0.756 -34.625  1.00  0.00    -0.206 F 
HETATM   16  C   UNL     1     -12.212   0.763 -33.704  1.00  0.00     0.072 A 
ENDBRANCH   6   9
ENDBRANCH   4   5
ENDBRANCH   2   4
BRANCH   2  17
HETATM   17  C   UNL     1      -6.676   2.718 -33.587  1.00  0.00     0.295 C 
BRANCH  17  18
HETATM   18  C   UNL     1      -6.652   1.310 -34.101  1.00  0.00     0.082 A 
HETATM   19  N   UNL     1      -7.525   0.943 -35.054  1.00  0.00    -0.177 NA
HETATM   20  N   UNL     1      -7.243  -0.365 -35.250  1.00  0.00    -0.277 N 
HETATM   21  H   UNL     1      -7.788  -0.888 -35.929  1.00  0.00     0.189 HD
HETATM   22  C   UNL     1      -6.240  -0.847 -34.444  1.00  0.00     0.062 A 
HETATM   23  C   UNL     1      -5.836   0.238 -33.692  1.00  0.00     0.062 A 
BRANCH  22  24
HETATM   24  C   UNL     1      -5.800  -2.243 -34.437  1.00  0.00    -0.008 A 
HETATM   25  C   UNL     1      -4.490  -2.596 -34.084  1.00  0.00     0.014 A 
HETATM   26  C   UNL     1      -4.084  -3.934 -34.093  1.00  0.00     0.001 A 
HETATM   27  C   UNL     1      -4.983  -4.936 -34.453  1.00  0.00     0.000 A 
HETATM   28  C   UNL     1      -6.289  -4.601 -34.800  1.00  0.00     0.001 A 
HETATM   29  C   UNL     1      -6.695  -3.265 -34.792  1.00  0.00     0.014 A 
ENDBRANCH  22  24
ENDBRANCH  17  18
ENDBRANCH   2  17
TORSDOF 6
ENDMDL
MODEL 4
REMARK VINA RESULT:      -8.5      1.886      2.652
REMARK  6 active torsions:
REMARK  status: ('A' for Active; 'I' for Inactive)
REMARK    1  A    between atoms: N_2  and  C_4 
REMARK    2  A    between atoms: N_2  and  C_16 
REMARK    3  A    between atoms: C_4  and  C_5 
REMARK       I    between atoms: C_5  and  N_6 
REMARK    4  A    between atoms: N_6  and  C_7 
REMARK    5  A    between atoms: C_16  and  C_17 
REMARK    6  A    between atoms: C_21  and  C_22 
ROOT
HETATM    1  C   UNL     1      -5.844   3.334 -30.182  1.00  0.00     0.270 C 
HETATM    2  N   UNL     1      -5.593   3.376 -31.657  1.00  0.00    -0.061 N 
HETATM    3  H   UNL     1      -6.421   2.939 -32.101  1.00  0.00     0.280 HD
ENDROOT
BRANCH   2   4
HETATM    4  C   UNL     1      -5.438   4.786 -32.212  1.00  0.00     0.337 C 
BRANCH   4   5
HETATM    5  C   UNL     1      -4.903   4.850 -33.644  1.00  0.00     0.248 C 
HETATM    6  N   UNL     1      -3.633   5.240 -33.937  1.00  0.00    -0.326 N 
HETATM    7  H   UNL     1      -3.447   5.127 -34.933  1.00  0.00     0.169 HD
HETATM    8  O   UNL     1      -5.628   4.511 -34.587  1.00  0.00    -0.271 OA
BRANCH   6   9
HETATM    9  C   UNL     1      -2.561   5.754 -33.183  1.00  0.00     0.040 A 
HETATM   10  C   UNL     1      -1.491   5.019 -32.679  1.00  0.00     0.072 A 
HETATM   11  C   UNL     1      -0.490   5.656 -31.938  1.00  0.00     0.121 A 
HETATM   12  F   UNL     1       0.528   4.923 -31.470  1.00  0.00    -0.206 F 
HETATM   13  C   UNL     1      -0.529   7.015 -31.676  1.00  0.00     0.084 A 
HETATM   14  C   UNL     1      -1.600   7.741 -32.161  1.00  0.00     0.121 A 
HETATM   15  F   UNL     1      -1.673   9.056 -31.919  1.00  0.00    -0.206 F 
HETATM   16  C   UNL     1      -2.610   7.128 -32.902  1.00  0.00     0.072 A 
ENDBRANCH   6   9
ENDBRANCH   4   5
ENDBRANCH   2   4
BRANCH   2  17
HETATM   17  C   UNL     1      -4.480   2.423 -32.077  1.00  0.00     0.295 C 
BRANCH  17  18
HETATM   18  C   UNL     1      -5.062   1.245 -32.800  1.00  0.00     0.082 A 
HETATM   19  N   UNL     1      -6.270   1.361 -33.378  1.00  0.00    -0.177 NA
HETATM   20  N   UNL     1      -6.485   0.131 -33.899  1.00  0.00    -0.277 N 
HETATM   21  H   UNL     1      -7.358  -0.048 -34.388  1.00  0.00     0.189 HD
HETATM   22  C   UNL     1      -5.473  -0.765 -33.656  1.00  0.00     0.062 A 
HETATM   23  C   UNL     1      -4.528  -0.050 -32.945  1.00  0.00     0.062 A 
BRANCH  22  24
HETATM   24  C   UNL     1      -5.507  -2.167 -34.072  1.00  0.00    -0.008 A 
HETATM   25  C   UNL     1      -6.657  -2.737 -34.637  1.00  0.00     0.014 A 
HETATM   26  C   UNL     1      -6.674  -4.082 -35.018  1.00  0.00     0.001 A 
HETATM   27  C   UNL     1      -5.542  -4.873 -34.843  1.00  0.00     0.000 A 
HETATM   28  C   UNL     1      -4.389  -4.321 -34.290  1.00  0.00     0.001 A 
HETATM   29  C   UNL     1      -4.372  -2.977 -33.908  1.00  0.00     0.014 A 
ENDBRANCH  22  24
ENDBRANCH  17  18
ENDBRANCH   2  17
TORSDOF 6
ENDMDL
MODEL 5
REMARK VINA RESULT:      -8.5      1.757      2.389
REMARK  6 active torsions:
REMARK  status: ('A' for Active; 'I' for Inactive)
REMARK    1  A    between atoms: N_2  and  C_4 
REMARK    2  A    between atoms: N_2  and  C_16 
REMARK    3  A    between atoms: C_4  and  C_5 
REMARK       I    between atoms: C_5  and  N_6 
REMARK    4  A    between atoms: N_6  and  C_7 
REMARK    5  A    between atoms: C_16  and  C_17 
REMARK    6  A    between atoms: C_21  and  C_22 
ROOT
HETATM    1  C   UNL     1      -6.578   2.929 -30.173  1.00  0.00     0.270 C 
HETATM    2  N   UNL     1      -6.310   3.191 -31.623  1.00  0.00    -0.061 N 
HETATM    3  H   UNL     1      -7.044   2.679 -32.146  1.00  0.00     0.280 HD
ENDROOT
BRANCH   2   4
HETATM    4  C   UNL     1      -6.387   4.664 -32.003  1.00  0.00     0.337 C 
BRANCH   4   5
HETATM    5  C   UNL     1      -6.417   4.930 -33.510  1.00  0.00     0.248 C 
HETATM    6  N   UNL     1      -5.310   5.288 -34.215  1.00  0.00    -0.326 N 
HETATM    7  H   UNL     1      -5.520   5.328 -35.212  1.00  0.00     0.169 HD
HETATM    8  O   UNL     1      -7.474   4.794 -34.138  1.00  0.00    -0.271 OA
BRANCH   6   9
HETATM    9  C   UNL     1      -3.983   5.608 -33.870  1.00  0.00     0.040 A 
HETATM   10  C   UNL     1      -3.578   6.279 -32.719  1.00  0.00     0.072 A 
HETATM   11  C   UNL     1      -2.221   6.537 -32.499  1.00  0.00     0.121 A 
HETATM   12  F   UNL     1      -1.862   7.182 -31.382  1.00  0.00    -0.206 F 
HETATM   13  C   UNL     1      -1.248   6.151 -33.406  1.00  0.00     0.084 A 
HETATM   14  C   UNL     1      -1.652   5.500 -34.556  1.00  0.00     0.121 A 
HETATM   15  F   UNL     1      -0.738   5.119 -35.457  1.00  0.00    -0.206 F 
HETATM   16  C   UNL     1      -2.998   5.231 -34.797  1.00  0.00     0.072 A 
ENDBRANCH   6   9
ENDBRANCH   4   5
ENDBRANCH   2   4
BRANCH   2  17
HETATM   17  C   UNL     1      -5.044   2.494 -32.108  1.00  0.00     0.295 C 
BRANCH  17  18
HETATM   18  C   UNL     1      -5.405   1.302 -32.942  1.00  0.00     0.082 A 
HETATM   19  N   UNL     1      -6.328   1.432 -33.910  1.00  0.00    -0.177 NA
HETATM   20  N   UNL     1      -6.419   0.184 -34.425  1.00  0.00    -0.277 N 
HETATM   21  H   UNL     1      -7.075   0.012 -35.180  1.00  0.00     0.189 HD
HETATM   22  C   UNL     1      -5.607  -0.736 -33.806  1.00  0.00     0.062 A 
HETATM   23  C   UNL     1      -4.930  -0.019 -32.839  1.00  0.00     0.062 A 
BRANCH  22  24
HETATM   24  C   UNL     1      -5.575  -2.158 -34.152  1.00  0.00    -0.008 A 
HETATM   25  C   UNL     1      -6.700  -2.810 -34.675  1.00  0.00     0.014 A 
HETATM   26  C   UNL     1      -6.653  -4.172 -34.989  1.00  0.00     0.001 A 
HETATM   27  C   UNL     1      -5.482  -4.897 -34.788  1.00  0.00     0.000 A 
HETATM   28  C   UNL     1      -4.353  -4.262 -34.276  1.00  0.00     0.001 A 
HETATM   29  C   UNL     1      -4.400  -2.901 -33.961  1.00  0.00     0.014 A 
ENDBRANCH  22  24
ENDBRANCH  17  18
ENDBRANCH   2  17
TORSDOF 6
ENDMDL
MODEL 6
REMARK VINA RESULT:      -8.5      4.027      5.815
REMARK  6 active torsions:
REMARK  status: ('A' for Active; 'I' for Inactive)
REMARK    1  A    between atoms: N_2  and  C_4 
REMARK    2  A    between atoms: N_2  and  C_16 
REMARK    3  A    between atoms: C_4  and  C_5 
REMARK       I    between atoms: C_5  and  N_6 
REMARK    4  A    between atoms: N_6  and  C_7 
REMARK    5  A    between atoms: C_16  and  C_17 
REMARK    6  A    between atoms: C_21  and  C_22 
ROOT
HETATM    1  C   UNL     1      -4.676   2.588 -30.742  1.00  0.00     0.270 C 
HETATM    2  N   UNL     1      -5.863   2.854 -31.615  1.00  0.00    -0.061 N 
HETATM    3  H   UNL     1      -6.456   2.006 -31.556  1.00  0.00     0.280 HD
ENDROOT
BRANCH   2   4
HETATM    4  C   UNL     1      -6.691   4.053 -31.174  1.00  0.00     0.337 C 
BRANCH   4   5
HETATM    5  C   UNL     1      -7.686   3.759 -30.049  1.00  0.00     0.248 C 
HETATM    6  N   UNL     1      -8.738   2.909 -30.202  1.00  0.00    -0.326 N 
HETATM    7  H   UNL     1      -9.223   2.780 -29.315  1.00  0.00     0.169 HD
HETATM    8  O   UNL     1      -7.531   4.281 -28.939  1.00  0.00    -0.271 OA
BRANCH   6   9
HETATM    9  C   UNL     1      -9.282   2.200 -31.290  1.00  0.00     0.040 A 
HETATM   10  C   UNL     1      -8.959   0.896 -31.657  1.00  0.00     0.072 A 
HETATM   11  C   UNL     1      -9.574   0.309 -32.769  1.00  0.00     0.121 A 
HETATM   12  F   UNL     1      -9.246  -0.947 -33.095  1.00  0.00    -0.206 F 
HETATM   13  C   UNL     1     -10.502   0.993 -33.536  1.00  0.00     0.084 A 
HETATM   14  C   UNL     1     -10.809   2.293 -33.181  1.00  0.00     0.121 A 
HETATM   15  F   UNL     1     -11.696   2.985 -33.905  1.00  0.00    -0.206 F 
HETATM   16  C   UNL     1     -10.209   2.899 -32.078  1.00  0.00     0.072 A 
ENDBRANCH   6   9
ENDBRANCH   4   5
ENDBRANCH   2   4
BRANCH   2  17
HETATM   17  C   UNL     1      -5.496   2.869 -33.095  1.00  0.00     0.295 C 
BRANCH  17  18
HETATM   18  C   UNL     1      -5.797   1.535 -33.709  1.00  0.00     0.082 A 
HETATM   19  N   UNL     1      -6.777   1.440 -34.624  1.00  0.00    -0.177 NA
HETATM   20  N   UNL     1      -6.789   0.122 -34.933  1.00  0.00    -0.277 N 
HETATM   21  H   UNL     1      -7.468  -0.216 -35.609  1.00  0.00     0.189 HD
HETATM   22  C   UNL     1      -5.871  -0.623 -34.235  1.00  0.00     0.062 A 
HETATM   23  C   UNL     1      -5.207   0.287 -33.436  1.00  0.00     0.062 A 
BRANCH  22  24
HETATM   24  C   UNL     1      -5.736  -2.075 -34.359  1.00  0.00    -0.008 A 
HETATM   25  C   UNL     1      -4.507  -2.718 -34.154  1.00  0.00     0.014 A 
HETATM   26  C   UNL     1      -4.396  -4.105 -34.287  1.00  0.00     0.001 A 
HETATM   27  C   UNL     1      -5.512  -4.868 -34.624  1.00  0.00     0.000 A 
HETATM   28  C   UNL     1      -6.741  -4.245 -34.824  1.00  0.00     0.001 A 
HETATM   29  C   UNL     1      -6.852  -2.859 -34.691  1.00  0.00     0.014 A 
ENDBRANCH  22  24
ENDBRANCH  17  18
ENDBRANCH   2  17
TORSDOF 6
ENDMDL
MODEL 7
REMARK VINA RESULT:      -8.4      2.200      3.067
REMARK  6 active torsions:
REMARK  status: ('A' for Active; 'I' for Inactive)
REMARK    1  A    between atoms: N_2  and  C_4 
REMARK    2  A    between atoms: N_2  and  C_16 
REMARK    3  A    between atoms: C_4  and  C_5 
REMARK       I    between atoms: C_5  and  N_6 
REMARK    4  A    between atoms: N_6  and  C_7 
REMARK    5  A    between atoms: C_16  and  C_17 
REMARK    6  A    between atoms: C_21  and  C_22 
ROOT
HETATM    1  C   UNL     1      -4.637   5.474 -32.915  1.00  0.00     0.270 C 
HETATM    2  N   UNL     1      -4.173   4.056 -33.043  1.00  0.00    -0.061 N 
HETATM    3  H   UNL     1      -4.496   3.733 -33.973  1.00  0.00     0.280 HD
ENDROOT
BRANCH   2   4
HETATM    4  C   UNL     1      -2.660   3.898 -32.977  1.00  0.00     0.337 C 
BRANCH   4   5
HETATM    5  C   UNL     1      -1.877   4.939 -33.780  1.00  0.00     0.248 C 
HETATM    6  N   UNL     1      -1.027   5.829 -33.200  1.00  0.00    -0.326 N 
HETATM    7  H   UNL     1      -0.539   6.371 -33.911  1.00  0.00     0.169 HD
HETATM    8  O   UNL     1      -1.985   4.974 -35.012  1.00  0.00    -0.271 OA
BRANCH   6   9
HETATM    9  C   UNL     1      -0.696   6.151 -31.869  1.00  0.00     0.040 A 
HETATM   10  C   UNL     1      -1.096   7.295 -31.183  1.00  0.00     0.072 A 
HETATM   11  C   UNL     1      -0.691   7.495 -29.859  1.00  0.00     0.121 A 
HETATM   12  F   UNL     1      -1.094   8.603 -29.224  1.00  0.00    -0.206 F 
HETATM   13  C   UNL     1       0.115   6.585 -29.196  1.00  0.00     0.084 A 
HETATM   14  C   UNL     1       0.525   5.458 -29.884  1.00  0.00     0.121 A 
HETATM   15  F   UNL     1       1.311   4.561 -29.276  1.00  0.00    -0.206 F 
HETATM   16  C   UNL     1       0.135   5.237 -31.204  1.00  0.00     0.072 A 
ENDBRANCH   6   9
ENDBRANCH   4   5
ENDBRANCH   2   4
BRANCH   2  17
HETATM   17  C   UNL     1      -4.932   3.118 -32.111  1.00  0.00     0.295 C 
BRANCH  17  18
HETATM   18  C   UNL     1      -5.402   1.914 -32.871  1.00  0.00     0.082 A 
HETATM   19  N   UNL     1      -6.512   2.005 -33.624  1.00  0.00    -0.177 NA
HETATM   20  N   UNL     1      -6.650   0.757 -34.129  1.00  0.00    -0.277 N 
HETATM   21  H   UNL     1      -7.441   0.558 -34.734  1.00  0.00     0.189 HD
HETATM   22  C   UNL     1      -5.685  -0.126 -33.708  1.00  0.00     0.062 A 
HETATM   23  C   UNL     1      -4.855   0.617 -32.891  1.00  0.00     0.062 A 
BRANCH  22  24
HETATM   24  C   UNL     1      -5.659  -1.542 -34.076  1.00  0.00    -0.008 A 
HETATM   25  C   UNL     1      -6.811  -2.204 -34.524  1.00  0.00     0.014 A 
HETATM   26  C   UNL     1      -6.769  -3.560 -34.861  1.00  0.00     0.001 A 
HETATM   27  C   UNL     1      -5.575  -4.271 -34.758  1.00  0.00     0.000 A 
HETATM   28  C   UNL     1      -4.421  -3.626 -34.321  1.00  0.00     0.001 A 
HETATM   29  C   UNL     1      -4.463  -2.271 -33.984  1.00  0.00     0.014 A 
ENDBRANCH  22  24
ENDBRANCH  17  18
ENDBRANCH   2  17
TORSDOF 6
ENDMDL
MODEL 8
REMARK VINA RESULT:      -8.1      2.923      4.004
REMARK  6 active torsions:
REMARK  status: ('A' for Active; 'I' for Inactive)
REMARK    1  A    between atoms: N_2  and  C_4 
REMARK    2  A    between atoms: N_2  and  C_16 
REMARK    3  A    between atoms: C_4  and  C_5 
REMARK       I    between atoms: C_5  and  N_6 
REMARK    4  A    between atoms: N_6  and  C_7 
REMARK    5  A    between atoms: C_16  and  C_17 
REMARK    6  A    between atoms: C_21  and  C_22 
ROOT
HETATM    1  C   UNL     1     -10.732   3.332 -33.198  1.00  0.00     0.270 C 
HETATM    2  N   UNL     1      -9.494   2.490 -33.235  1.00  0.00    -0.061 N 
HETATM    3  H   UNL     1      -8.710   3.142 -33.422  1.00  0.00     0.280 HD
ENDROOT
BRANCH   2   4
HETATM    4  C   UNL     1      -9.211   1.759 -31.930  1.00  0.00     0.337 C 
BRANCH   4   5
HETATM    5  C   UNL     1      -8.726   2.658 -30.791  1.00  0.00     0.248 C 
HETATM    6  N   UNL     1      -7.408   2.892 -30.550  1.00  0.00    -0.326 N 
HETATM    7  H   UNL     1      -7.298   3.585 -29.810  1.00  0.00     0.169 HD
HETATM    8  O   UNL     1      -9.549   3.227 -30.063  1.00  0.00    -0.271 OA
BRANCH   6   9
HETATM    9  C   UNL     1      -6.204   2.393 -31.084  1.00  0.00     0.040 A 
HETATM   10  C   UNL     1      -5.304   3.105 -31.873  1.00  0.00     0.072 A 
HETATM   11  C   UNL     1      -4.142   2.484 -32.344  1.00  0.00     0.121 A 
HETATM   12  F   UNL     1      -3.294   3.196 -33.097  1.00  0.00    -0.206 F 
HETATM   13  C   UNL     1      -3.854   1.161 -32.058  1.00  0.00     0.084 A 
HETATM   14  C   UNL     1      -4.756   0.450 -31.290  1.00  0.00     0.121 A 
HETATM   15  F   UNL     1      -4.512  -0.834 -31.000  1.00  0.00    -0.206 F 
HETATM   16  C   UNL     1      -5.921   1.046 -30.808  1.00  0.00     0.072 A 
ENDBRANCH   6   9
ENDBRANCH   4   5
ENDBRANCH   2   4
BRANCH   2  17
HETATM   17  C   UNL     1      -9.446   1.593 -34.467  1.00  0.00     0.295 C 
BRANCH  17  18
HETATM   18  C   UNL     1      -8.215   0.740 -34.431  1.00  0.00     0.082 A 
HETATM   19  N   UNL     1      -7.009   1.322 -34.543  1.00  0.00    -0.177 NA
HETATM   20  N   UNL     1      -6.151   0.276 -34.498  1.00  0.00    -0.277 N 
HETATM   21  H   UNL     1      -5.155   0.455 -34.579  1.00  0.00     0.189 HD
HETATM   22  C   UNL     1      -6.767  -0.947 -34.384  1.00  0.00     0.062 A 
HETATM   23  C   UNL     1      -8.118  -0.661 -34.329  1.00  0.00     0.062 A 
BRANCH  22  24
HETATM   24  C   UNL     1      -6.051  -2.223 -34.373  1.00  0.00    -0.008 A 
HETATM   25  C   UNL     1      -4.720  -2.312 -33.942  1.00  0.00     0.014 A 
HETATM   26  C   UNL     1      -4.048  -3.539 -33.948  1.00  0.00     0.001 A 
HETATM   27  C   UNL     1      -4.699  -4.691 -34.382  1.00  0.00     0.000 A 
HETATM   28  C   UNL     1      -6.024  -4.620 -34.807  1.00  0.00     0.001 A 
HETATM   29  C   UNL     1      -6.694  -3.394 -34.801  1.00  0.00     0.014 A 
ENDBRANCH  22  24
ENDBRANCH  17  18
ENDBRANCH   2  17
TORSDOF 6
ENDMDL
MODEL 9
REMARK VINA RESULT:      -8.0      3.757      9.677
REMARK  6 active torsions:
REMARK  status: ('A' for Active; 'I' for Inactive)
REMARK    1  A    between atoms: N_2  and  C_4 
REMARK    2  A    between atoms: N_2  and  C_16 
REMARK    3  A    between atoms: C_4  and  C_5 
REMARK       I    between atoms: C_5  and  N_6 
REMARK    4  A    between atoms: N_6  and  C_7 
REMARK    5  A    between atoms: C_16  and  C_17 
REMARK    6  A    between atoms: C_21  and  C_22 
ROOT
HETATM    1  C   UNL     1      -4.149   4.853 -33.587  1.00  0.00     0.270 C 
HETATM    2  N   UNL     1      -3.169   4.391 -32.553  1.00  0.00    -0.061 N 
HETATM    3  H   UNL     1      -3.400   4.912 -31.688  1.00  0.00     0.280 HD
ENDROOT
BRANCH   2   4
HETATM    4  C   UNL     1      -3.253   2.900 -32.254  1.00  0.00     0.337 C 
BRANCH   4   5
HETATM    5  C   UNL     1      -4.372   2.508 -31.286  1.00  0.00     0.248 C 
HETATM    6  N   UNL     1      -4.908   1.258 -31.250  1.00  0.00    -0.326 N 
HETATM    7  H   UNL     1      -5.571   1.177 -30.480  1.00  0.00     0.169 HD
HETATM    8  O   UNL     1      -4.803   3.337 -30.476  1.00  0.00    -0.271 OA
BRANCH   6   9
HETATM    9  C   UNL     1      -4.750   0.095 -32.029  1.00  0.00     0.040 A 
HETATM   10  C   UNL     1      -5.462  -0.216 -33.184  1.00  0.00     0.072 A 
HETATM   11  C   UNL     1      -5.207  -1.413 -33.863  1.00  0.00     0.121 A 
HETATM   12  F   UNL     1      -5.906  -1.683 -34.972  1.00  0.00    -0.206 F 
HETATM   13  C   UNL     1      -4.262  -2.319 -33.414  1.00  0.00     0.084 A 
HETATM   14  C   UNL     1      -3.567  -2.018 -32.258  1.00  0.00     0.121 A 
HETATM   15  F   UNL     1      -2.651  -2.876 -31.793  1.00  0.00    -0.206 F 
HETATM   16  C   UNL     1      -3.803  -0.831 -31.564  1.00  0.00     0.072 A 
ENDBRANCH   6   9
ENDBRANCH   4   5
ENDBRANCH   2   4
BRANCH   2  17
HETATM   17  C   UNL     1      -1.756   4.884 -32.841  1.00  0.00     0.295 C 
BRANCH  17  18
HETATM   18  C   UNL     1      -1.138   5.425 -31.587  1.00  0.00     0.082 A 
HETATM   19  N   UNL     1      -0.540   4.580 -30.731  1.00  0.00    -0.177 NA
HETATM   20  N   UNL     1      -0.132   5.389 -29.727  1.00  0.00    -0.277 N 
HETATM   21  H   UNL     1       0.347   4.979 -28.931  1.00  0.00     0.189 HD
HETATM   22  C   UNL     1      -0.467   6.710 -29.902  1.00  0.00     0.062 A 
HETATM   23  C   UNL     1      -1.119   6.753 -31.119  1.00  0.00     0.062 A 
BRANCH  22  24
HETATM   24  C   UNL     1      -0.182   7.760 -28.924  1.00  0.00    -0.008 A 
HETATM   25  C   UNL     1      -1.157   8.694 -28.544  1.00  0.00     0.014 A 
HETATM   26  C   UNL     1      -0.862   9.697 -27.616  1.00  0.00     0.001 A 
HETATM   27  C   UNL     1       0.409   9.778 -27.053  1.00  0.00     0.000 A 
HETATM   28  C   UNL     1       1.386   8.854 -27.414  1.00  0.00     0.001 A 
HETATM   29  C   UNL     1       1.092   7.852 -28.342  1.00  0.00     0.014 A 
ENDBRANCH  22  24
ENDBRANCH  17  18
ENDBRANCH   2  17
TORSDOF 6
ENDMDL
MODEL 10
REMARK VINA RESULT:      -7.9      3.174      4.035
REMARK  6 active torsions:
REMARK  status: ('A' for Active; 'I' for Inactive)
REMARK    1  A    between atoms: N_2  and  C_4 
REMARK    2  A    between atoms: N_2  and  C_16 
REMARK    3  A    between atoms: C_4  and  C_5 
REMARK       I    between atoms: C_5  and  N_6 
REMARK    4  A    between atoms: N_6  and  C_7 
REMARK    5  A    between atoms: C_16  and  C_17 
REMARK    6  A    between atoms: C_21  and  C_22 
ROOT
HETATM    1  C   UNL     1      -7.967   4.909 -33.660  1.00  0.00     0.270 C 
HETATM    2  N   UNL     1      -7.455   3.902 -32.677  1.00  0.00    -0.061 N 
HETATM    3  H   UNL     1      -6.522   3.615 -33.022  1.00  0.00     0.280 HD
ENDROOT
BRANCH   2   4
HETATM    4  C   UNL     1      -7.299   4.451 -31.265  1.00  0.00     0.337 C 
BRANCH   4   5
HETATM    5  C   UNL     1      -5.897   4.965 -30.935  1.00  0.00     0.248 C 
HETATM    6  N   UNL     1      -4.820   4.142 -30.818  1.00  0.00    -0.326 N 
HETATM    7  H   UNL     1      -3.968   4.685 -30.687  1.00  0.00     0.169 HD
HETATM    8  O   UNL     1      -5.704   6.179 -30.791  1.00  0.00    -0.271 OA
BRANCH   6   9
HETATM    9  C   UNL     1      -4.641   2.745 -30.835  1.00  0.00     0.040 A 
HETATM   10  C   UNL     1      -3.652   2.057 -31.533  1.00  0.00     0.072 A 
HETATM   11  C   UNL     1      -3.589   0.661 -31.466  1.00  0.00     0.121 A 
HETATM   12  F   UNL     1      -2.625   0.028 -32.146  1.00  0.00    -0.206 F 
HETATM   13  C   UNL     1      -4.497  -0.076 -30.725  1.00  0.00     0.084 A 
HETATM   14  C   UNL     1      -5.489   0.606 -30.046  1.00  0.00     0.121 A 
HETATM   15  F   UNL     1      -6.388  -0.076 -29.326  1.00  0.00    -0.206 F 
HETATM   16  C   UNL     1      -5.572   1.997 -30.097  1.00  0.00     0.072 A 
ENDBRANCH   6   9
ENDBRANCH   4   5
ENDBRANCH   2   4
BRANCH   2  17
HETATM   17  C   UNL     1      -8.226   2.589 -32.747  1.00  0.00     0.295 C 
BRANCH  17  18
HETATM   18  C   UNL     1      -7.334   1.500 -33.260  1.00  0.00     0.082 A 
HETATM   19  N   UNL     1      -6.223   1.827 -33.942  1.00  0.00    -0.177 NA
HETATM   20  N   UNL     1      -5.690   0.626 -34.267  1.00  0.00    -0.277 N 
HETATM   21  H   UNL     1      -4.832   0.602 -34.809  1.00  0.00     0.189 HD
HETATM   22  C   UNL     1      -6.431  -0.448 -33.838  1.00  0.00     0.062 A 
HETATM   23  C   UNL     1      -7.506   0.105 -33.169  1.00  0.00     0.062 A 
BRANCH  22  24
HETATM   24  C   UNL     1      -6.085  -1.842 -34.119  1.00  0.00    -0.008 A 
HETATM   25  C   UNL     1      -4.773  -2.314 -33.977  1.00  0.00     0.014 A 
HETATM   26  C   UNL     1      -4.459  -3.646 -34.261  1.00  0.00     0.001 A 
HETATM   27  C   UNL     1      -5.453  -4.524 -34.687  1.00  0.00     0.000 A 
HETATM   28  C   UNL     1      -6.763  -4.072 -34.826  1.00  0.00     0.001 A 
HETATM   29  C   UNL     1      -7.076  -2.741 -34.543  1.00  0.00     0.014 A 
ENDBRANCH  22  24
ENDBRANCH  17  18
ENDBRANCH   2  17
TORSDOF 6
ENDMDL
