MODEL 1
REMARK VINA RESULT:      -8.8      0.000      0.000
REMARK  6 active torsions:
REMARK  status: ('A' for Active; 'I' for Inactive)
REMARK    1  A    between atoms: O_2  and  C_3 
REMARK    2  A    between atoms: C_5  and  O_6 
REMARK    3  A    between atoms: C_9  and  C_10 
REMARK       I    between atoms: C_10  and  N_11 
REMARK    4  A    between atoms: N_11  and  C_12 
REMARK    5  A    between atoms: N_15  and  C_16 
REMARK    6  A    between atoms: C_20  and  C_21 
ROOT
HETATM    1  C   UNL     1      -2.697   5.838 -32.217  1.00  0.00     0.087 C 
HETATM    2  C   UNL     1      -2.065   4.442 -32.370  1.00  0.00     0.045 C 
HETATM    3  C   UNL     1      -2.591   3.472 -31.315  1.00  0.00     0.126 C 
HETATM    4  N   UNL     1      -4.058   3.408 -31.396  1.00  0.00    -0.366 N 
HETATM    5  C   UNL     1      -4.702   4.705 -31.157  1.00  0.00     0.126 C 
HETATM    6  C   UNL     1      -4.230   5.719 -32.201  1.00  0.00     0.045 C 
ENDROOT
BRANCH   1   7
HETATM    7  N   UNL     1      -2.232   6.557 -31.025  1.00  0.00    -0.352 N 
HETATM    8  C   UNL     1      -0.938   7.027 -30.904  1.00  0.00     0.252 C 
HETATM    9  O   UNL     1      -0.068   6.839 -31.745  1.00  0.00    -0.268 OA
HETATM   10  H   UNL     1      -2.933   7.051 -30.491  1.00  0.00     0.163 HD
BRANCH   8  11
HETATM   11  C   UNL     1      -0.634   7.819 -29.676  1.00  0.00     0.037 A 
HETATM   12  C   UNL     1       0.606   7.739 -29.027  1.00  0.00     0.054 A 
HETATM   13  C   UNL     1       0.844   8.504 -27.884  1.00  0.00     0.071 A 
HETATM   14  C   UNL     1      -0.152   9.364 -27.405  1.00  0.00     0.073 A 
HETATM   15  C   UNL     1      -1.377   9.475 -28.063  1.00  0.00     0.071 A 
HETATM   16  C   UNL     1      -1.615   8.695 -29.195  1.00  0.00     0.054 A 
BRANCH  13  17
HETATM   17  O   UNL     1       1.997   8.511 -27.148  1.00  0.00    -0.356 OA
HETATM   18  C   UNL     1       1.877   8.310 -25.745  1.00  0.00     0.210 C 
ENDBRANCH  13  17
BRANCH  15  19
HETATM   19  O   UNL     1      -2.411  10.293 -27.701  1.00  0.00    -0.356 OA
HETATM   20  C   UNL     1      -3.670   9.671 -27.472  1.00  0.00     0.210 C 
ENDBRANCH  15  19
ENDBRANCH   8  11
ENDBRANCH   1   7
BRANCH   4  21
HETATM   21  C   UNL     1      -4.698   2.463 -32.155  1.00  0.00     0.121 A 
HETATM   22  N   UNL     1      -5.757   2.743 -32.980  1.00  0.00    -0.262 N 
HETATM   23  H   UNL     1      -6.187   3.642 -33.149  1.00  0.00     0.191 HD
HETATM   24  N   UNL     1      -6.246   1.683 -33.642  1.00  0.00    -0.173 NA
HETATM   25  C   UNL     1      -5.450   0.665 -33.277  1.00  0.00     0.090 A 
HETATM   26  C   UNL     1      -4.474   1.115 -32.345  1.00  0.00     0.084 A 
BRANCH  25  27
HETATM   27  C   UNL     1      -5.636  -0.688 -33.815  1.00  0.00    -0.005 A 
HETATM   28  C   UNL     1      -6.899  -1.134 -34.238  1.00  0.00     0.015 A 
HETATM   29  C   UNL     1      -7.067  -2.426 -34.748  1.00  0.00     0.024 A 
HETATM   30  C   UNL     1      -5.973  -3.284 -34.840  1.00  0.00     0.034 A 
HETATM   31 CL   UNL     1      -6.181  -4.871 -35.467  1.00  0.00    -0.084 Cl
HETATM   32  C   UNL     1      -4.713  -2.862 -34.423  1.00  0.00     0.024 A 
HETATM   33  C   UNL     1      -4.548  -1.570 -33.913  1.00  0.00     0.015 A 
ENDBRANCH  25  27
ENDBRANCH   4  21
TORSDOF 6
ENDMDL
MODEL 2
REMARK VINA RESULT:      -8.7      0.198      2.151
REMARK  6 active torsions:
REMARK  status: ('A' for Active; 'I' for Inactive)
REMARK    1  A    between atoms: O_2  and  C_3 
REMARK    2  A    between atoms: C_5  and  O_6 
REMARK    3  A    between atoms: C_9  and  C_10 
REMARK       I    between atoms: C_10  and  N_11 
REMARK    4  A    between atoms: N_11  and  C_12 
REMARK    5  A    between atoms: N_15  and  C_16 
REMARK    6  A    between atoms: C_20  and  C_21 
ROOT
HETATM    1  C   UNL     1      -2.804   5.873 -32.261  1.00  0.00     0.087 C 
HETATM    2  C   UNL     1      -2.160   4.477 -32.358  1.00  0.00     0.045 C 
HETATM    3  C   UNL     1      -2.711   3.532 -31.294  1.00  0.00     0.126 C 
HETATM    4  N   UNL     1      -4.176   3.456 -31.418  1.00  0.00    -0.366 N 
HETATM    5  C   UNL     1      -4.834   4.755 -31.232  1.00  0.00     0.126 C 
HETATM    6  C   UNL     1      -4.336   5.745 -32.288  1.00  0.00     0.045 C 
ENDROOT
BRANCH   1   7
HETATM    7  N   UNL     1      -2.378   6.625 -31.075  1.00  0.00    -0.352 N 
HETATM    8  C   UNL     1      -1.104   7.147 -30.948  1.00  0.00     0.252 C 
HETATM    9  O   UNL     1      -0.219   6.980 -31.778  1.00  0.00    -0.268 OA
HETATM   10  H   UNL     1      -3.104   7.100 -30.555  1.00  0.00     0.163 HD
BRANCH   8  11
HETATM   11  C   UNL     1      -0.844   7.967 -29.729  1.00  0.00     0.037 A 
HETATM   12  C   UNL     1      -1.787   8.877 -29.230  1.00  0.00     0.054 A 
HETATM   13  C   UNL     1      -1.499   9.618 -28.083  1.00  0.00     0.071 A 
HETATM   14  C   UNL     1      -0.277   9.433 -27.425  1.00  0.00     0.073 A 
HETATM   15  C   UNL     1       0.653   8.506 -27.895  1.00  0.00     0.071 A 
HETATM   16  C   UNL     1       0.367   7.781 -29.052  1.00  0.00     0.054 A 
BRANCH  13  17
HETATM   17  O   UNL     1      -2.318  10.546 -27.500  1.00  0.00    -0.356 OA
HETATM   18  C   UNL     1      -3.711  10.256 -27.463  1.00  0.00     0.210 C 
ENDBRANCH  13  17
BRANCH  15  19
HETATM   19  O   UNL     1       1.865   8.225 -27.326  1.00  0.00    -0.356 OA
HETATM   20  C   UNL     1       1.904   8.158 -25.905  1.00  0.00     0.210 C 
ENDBRANCH  15  19
ENDBRANCH   8  11
ENDBRANCH   1   7
BRANCH   4  21
HETATM   21  C   UNL     1      -4.787   2.488 -32.169  1.00  0.00     0.121 A 
HETATM   22  N   UNL     1      -5.848   2.733 -33.003  1.00  0.00    -0.262 N 
HETATM   23  H   UNL     1      -6.300   3.619 -33.183  1.00  0.00     0.191 HD
HETATM   24  N   UNL     1      -6.306   1.654 -33.656  1.00  0.00    -0.173 NA
HETATM   25  C   UNL     1      -5.487   0.660 -33.278  1.00  0.00     0.090 A 
HETATM   26  C   UNL     1      -4.527   1.145 -32.346  1.00  0.00     0.084 A 
BRANCH  25  27
HETATM   27  C   UNL     1      -5.636  -0.702 -33.803  1.00  0.00    -0.005 A 
HETATM   28  C   UNL     1      -6.887  -1.190 -34.213  1.00  0.00     0.015 A 
HETATM   29  C   UNL     1      -7.019  -2.491 -34.712  1.00  0.00     0.024 A 
HETATM   30  C   UNL     1      -5.900  -3.316 -34.804  1.00  0.00     0.034 A 
HETATM   31 CL   UNL     1      -6.064  -4.914 -35.416  1.00  0.00    -0.084 Cl
HETATM   32  C   UNL     1      -4.651  -2.853 -34.399  1.00  0.00     0.024 A 
HETATM   33  C   UNL     1      -4.522  -1.552 -33.900  1.00  0.00     0.015 A 
ENDBRANCH  25  27
ENDBRANCH   4  21
TORSDOF 6
ENDMDL
MODEL 3
REMARK VINA RESULT:      -8.4      6.237     11.287
REMARK  6 active torsions:
REMARK  status: ('A' for Active; 'I' for Inactive)
REMARK    1  A    between atoms: O_2  and  C_3 
REMARK    2  A    between atoms: C_5  and  O_6 
REMARK    3  A    between atoms: C_9  and  C_10 
REMARK       I    between atoms: C_10  and  N_11 
REMARK    4  A    between atoms: N_11  and  C_12 
REMARK    5  A    between atoms: N_15  and  C_16 
REMARK    6  A    between atoms: C_20  and  C_21 
ROOT
HETATM    1  C   UNL     1      -7.172   2.323 -31.655  1.00  0.00     0.087 C 
HETATM    2  C   UNL     1      -5.894   1.844 -32.368  1.00  0.00     0.045 C 
HETATM    3  C   UNL     1      -5.382   2.888 -33.357  1.00  0.00     0.126 C 
HETATM    4  N   UNL     1      -5.159   4.162 -32.655  1.00  0.00    -0.366 N 
HETATM    5  C   UNL     1      -6.381   4.700 -32.045  1.00  0.00     0.126 C 
HETATM    6  C   UNL     1      -6.932   3.704 -31.022  1.00  0.00     0.045 C 
ENDROOT
BRANCH   1   7
HETATM    7  N   UNL     1      -8.345   2.365 -32.536  1.00  0.00    -0.352 N 
HETATM    8  C   UNL     1      -9.325   1.390 -32.509  1.00  0.00     0.252 C 
HETATM    9  O   UNL     1      -9.271   0.396 -31.796  1.00  0.00    -0.268 OA
HETATM   10  H   UNL     1      -8.638   3.277 -32.858  1.00  0.00     0.163 HD
BRANCH   8  11
HETATM   11  C   UNL     1     -10.504   1.614 -33.396  1.00  0.00     0.037 A 
HETATM   12  C   UNL     1     -11.578   0.714 -33.446  1.00  0.00     0.054 A 
HETATM   13  C   UNL     1     -12.661   0.970 -34.288  1.00  0.00     0.071 A 
HETATM   14  C   UNL     1     -12.678   2.135 -35.064  1.00  0.00     0.073 A 
HETATM   15  C   UNL     1     -11.629   3.052 -34.996  1.00  0.00     0.071 A 
HETATM   16  C   UNL     1     -10.541   2.783 -34.166  1.00  0.00     0.054 A 
BRANCH  13  17
HETATM   17  O   UNL     1     -13.763   0.173 -34.444  1.00  0.00    -0.356 OA
HETATM   18  C   UNL     1     -15.036   0.768 -34.224  1.00  0.00     0.210 C 
ENDBRANCH  13  17
BRANCH  15  19
HETATM   19  O   UNL     1     -11.546   4.229 -35.688  1.00  0.00    -0.356 OA
HETATM   20  C   UNL     1     -10.458   5.087 -35.364  1.00  0.00     0.210 C 
ENDBRANCH  15  19
ENDBRANCH   8  11
ENDBRANCH   1   7
BRANCH   4  21
HETATM   21  C   UNL     1      -3.937   4.493 -32.132  1.00  0.00     0.121 A 
HETATM   22  N   UNL     1      -2.765   3.886 -32.504  1.00  0.00    -0.262 N 
HETATM   23  H   UNL     1      -2.638   3.155 -33.190  1.00  0.00     0.191 HD
HETATM   24  N   UNL     1      -1.672   4.351 -31.879  1.00  0.00    -0.173 NA
HETATM   25  C   UNL     1      -2.130   5.339 -31.094  1.00  0.00     0.090 A 
HETATM   26  C   UNL     1      -3.542   5.453 -31.225  1.00  0.00     0.084 A 
BRANCH  25  27
HETATM   27  C   UNL     1      -1.228   6.136 -30.255  1.00  0.00    -0.005 A 
HETATM   28  C   UNL     1      -1.476   7.497 -30.011  1.00  0.00     0.015 A 
HETATM   29  C   UNL     1      -0.609   8.249 -29.210  1.00  0.00     0.024 A 
HETATM   30  C   UNL     1       0.514   7.647 -28.647  1.00  0.00     0.034 A 
HETATM   31 CL   UNL     1       1.578   8.573 -27.663  1.00  0.00    -0.084 Cl
HETATM   32  C   UNL     1       0.780   6.300 -28.880  1.00  0.00     0.024 A 
HETATM   33  C   UNL     1      -0.088   5.551 -29.681  1.00  0.00     0.015 A 
ENDBRANCH  25  27
ENDBRANCH   4  21
TORSDOF 6
ENDMDL
MODEL 4
REMARK VINA RESULT:      -8.2      6.370     11.373
REMARK  6 active torsions:
REMARK  status: ('A' for Active; 'I' for Inactive)
REMARK    1  A    between atoms: O_2  and  C_3 
REMARK    2  A    between atoms: C_5  and  O_6 
REMARK    3  A    between atoms: C_9  and  C_10 
REMARK       I    between atoms: C_10  and  N_11 
REMARK    4  A    between atoms: N_11  and  C_12 
REMARK    5  A    between atoms: N_15  and  C_16 
REMARK    6  A    between atoms: C_20  and  C_21 
ROOT
HETATM    1  C   UNL     1      -7.021   2.041 -32.218  1.00  0.00     0.087 C 
HETATM    2  C   UNL     1      -5.770   1.917 -33.107  1.00  0.00     0.045 C 
HETATM    3  C   UNL     1      -5.424   3.246 -33.775  1.00  0.00     0.126 C 
HETATM    4  N   UNL     1      -5.250   4.281 -32.744  1.00  0.00    -0.366 N 
HETATM    5  C   UNL     1      -6.458   4.497 -31.939  1.00  0.00     0.126 C 
HETATM    6  C   UNL     1      -6.844   3.201 -31.224  1.00  0.00     0.045 C 
ENDROOT
BRANCH   1   7
HETATM    7  N   UNL     1      -8.260   2.215 -32.985  1.00  0.00    -0.352 N 
HETATM    8  C   UNL     1      -9.364   1.403 -32.801  1.00  0.00     0.252 C 
HETATM    9  O   UNL     1      -9.381   0.450 -32.032  1.00  0.00    -0.268 OA
HETATM   10  H   UNL     1      -8.449   3.144 -33.337  1.00  0.00     0.163 HD
BRANCH   8  11
HETATM   11  C   UNL     1     -10.583   1.757 -33.584  1.00  0.00     0.037 A 
HETATM   12  C   UNL     1     -10.670   2.942 -34.330  1.00  0.00     0.054 A 
HETATM   13  C   UNL     1     -11.831   3.226 -35.051  1.00  0.00     0.071 A 
HETATM   14  C   UNL     1     -12.895   2.316 -35.042  1.00  0.00     0.073 A 
HETATM   15  C   UNL     1     -12.804   1.120 -34.330  1.00  0.00     0.071 A 
HETATM   16  C   UNL     1     -11.648   0.849 -33.597  1.00  0.00     0.054 A 
BRANCH  13  17
HETATM   17  O   UNL     1     -12.054   4.347 -35.805  1.00  0.00    -0.356 OA
HETATM   18  C   UNL     1     -12.736   5.428 -35.180  1.00  0.00     0.210 C 
ENDBRANCH  13  17
BRANCH  15  19
HETATM   19  O   UNL     1     -13.766   0.150 -34.266  1.00  0.00    -0.356 OA
HETATM   20  C   UNL     1     -15.119   0.584 -34.331  1.00  0.00     0.210 C 
ENDBRANCH  15  19
ENDBRANCH   8  11
ENDBRANCH   1   7
BRANCH   4  21
HETATM   21  C   UNL     1      -4.020   4.570 -32.214  1.00  0.00     0.121 A 
HETATM   22  N   UNL     1      -2.866   3.927 -32.583  1.00  0.00    -0.262 N 
HETATM   23  H   UNL     1      -2.760   3.196 -33.273  1.00  0.00     0.191 HD
HETATM   24  N   UNL     1      -1.762   4.354 -31.950  1.00  0.00    -0.173 NA
HETATM   25  C   UNL     1      -2.192   5.352 -31.163  1.00  0.00     0.090 A 
HETATM   26  C   UNL     1      -3.599   5.512 -31.299  1.00  0.00     0.084 A 
BRANCH  25  27
HETATM   27  C   UNL     1      -1.269   6.115 -30.315  1.00  0.00    -0.005 A 
HETATM   28  C   UNL     1      -0.111   5.522 -29.784  1.00  0.00     0.015 A 
HETATM   29  C   UNL     1       0.762   6.258 -28.975  1.00  0.00     0.024 A 
HETATM   30  C   UNL     1       0.485   7.593 -28.689  1.00  0.00     0.034 A 
HETATM   31 CL   UNL     1       1.560   8.495 -27.695  1.00  0.00    -0.084 Cl
HETATM   32  C   UNL     1      -0.659   8.199 -29.202  1.00  0.00     0.024 A 
HETATM   33  C   UNL     1      -1.531   7.461 -30.010  1.00  0.00     0.015 A 
ENDBRANCH  25  27
ENDBRANCH   4  21
TORSDOF 6
ENDMDL
MODEL 5
REMARK VINA RESULT:      -8.1      5.670     12.028
REMARK  6 active torsions:
REMARK  status: ('A' for Active; 'I' for Inactive)
REMARK    1  A    between atoms: O_2  and  C_3 
REMARK    2  A    between atoms: C_5  and  O_6 
REMARK    3  A    between atoms: C_9  and  C_10 
REMARK       I    between atoms: C_10  and  N_11 
REMARK    4  A    between atoms: N_11  and  C_12 
REMARK    5  A    between atoms: N_15  and  C_16 
REMARK    6  A    between atoms: C_20  and  C_21 
ROOT
HETATM    1  C   UNL     1       0.313   6.270 -29.045  1.00  0.00     0.087 C 
HETATM    2  C   UNL     1       0.689   7.764 -29.051  1.00  0.00     0.045 C 
HETATM    3  C   UNL     1      -0.278   8.588 -28.206  1.00  0.00     0.126 C 
HETATM    4  N   UNL     1      -0.313   8.050 -26.836  1.00  0.00    -0.366 N 
HETATM    5  C   UNL     1      -0.763   6.654 -26.781  1.00  0.00     0.126 C 
HETATM    6  C   UNL     1       0.184   5.770 -27.596  1.00  0.00     0.045 C 
ENDROOT
BRANCH   1   7
HETATM    7  N   UNL     1      -0.915   5.979 -29.793  1.00  0.00    -0.352 N 
HETATM    8  C   UNL     1      -0.915   5.221 -30.949  1.00  0.00     0.252 C 
HETATM    9  O   UNL     1       0.103   4.780 -31.468  1.00  0.00    -0.268 OA
HETATM   10  H   UNL     1      -1.778   5.981 -29.266  1.00  0.00     0.163 HD
BRANCH   8  11
HETATM   11  C   UNL     1      -2.249   4.931 -31.550  1.00  0.00     0.037 A 
HETATM   12  C   UNL     1      -3.079   5.947 -32.044  1.00  0.00     0.054 A 
HETATM   13  C   UNL     1      -4.317   5.624 -32.603  1.00  0.00     0.071 A 
HETATM   14  C   UNL     1      -4.714   4.284 -32.683  1.00  0.00     0.073 A 
HETATM   15  C   UNL     1      -3.881   3.264 -32.224  1.00  0.00     0.071 A 
HETATM   16  C   UNL     1      -2.652   3.594 -31.651  1.00  0.00     0.054 A 
BRANCH  13  17
HETATM   17  O   UNL     1      -5.227   6.513 -33.107  1.00  0.00    -0.356 OA
HETATM   18  C   UNL     1      -6.442   6.682 -32.386  1.00  0.00     0.210 C 
ENDBRANCH  13  17
BRANCH  15  19
HETATM   19  O   UNL     1      -4.152   1.924 -32.270  1.00  0.00    -0.356 OA
HETATM   20  C   UNL     1      -3.436   1.095 -31.362  1.00  0.00     0.210 C 
ENDBRANCH  15  19
ENDBRANCH   8  11
ENDBRANCH   1   7
BRANCH   4  21
HETATM   21  C   UNL     1       0.500   8.540 -25.849  1.00  0.00     0.121 A 
HETATM   22  N   UNL     1       0.138   9.562 -25.008  1.00  0.00    -0.262 N 
HETATM   23  H   UNL     1      -0.738  10.064 -24.988  1.00  0.00     0.191 HD
HETATM   24  N   UNL     1       1.072   9.899 -24.104  1.00  0.00    -0.173 NA
HETATM   25  C   UNL     1       2.076   9.035 -24.322  1.00  0.00     0.090 A 
HETATM   26  C   UNL     1       1.754   8.174 -25.408  1.00  0.00     0.084 A 
BRANCH  25  27
HETATM   27  C   UNL     1       3.296   9.052 -23.506  1.00  0.00    -0.005 A 
HETATM   28  C   UNL     1       4.477   9.648 -23.977  1.00  0.00     0.015 A 
HETATM   29  C   UNL     1       5.635   9.657 -23.192  1.00  0.00     0.024 A 
HETATM   30  C   UNL     1       5.623   9.069 -21.929  1.00  0.00     0.034 A 
HETATM   31 CL   UNL     1       7.047   9.082 -20.966  1.00  0.00    -0.084 Cl
HETATM   32  C   UNL     1       4.463   8.470 -21.445  1.00  0.00     0.024 A 
HETATM   33  C   UNL     1       3.307   8.461 -22.232  1.00  0.00     0.015 A 
ENDBRANCH  25  27
ENDBRANCH   4  21
TORSDOF 6
ENDMDL
MODEL 6
REMARK VINA RESULT:      -8.1      5.671     11.233
REMARK  6 active torsions:
REMARK  status: ('A' for Active; 'I' for Inactive)
REMARK    1  A    between atoms: O_2  and  C_3 
REMARK    2  A    between atoms: C_5  and  O_6 
REMARK    3  A    between atoms: C_9  and  C_10 
REMARK       I    between atoms: C_10  and  N_11 
REMARK    4  A    between atoms: N_11  and  C_12 
REMARK    5  A    between atoms: N_15  and  C_16 
REMARK    6  A    between atoms: C_20  and  C_21 
ROOT
HETATM    1  C   UNL     1      -5.152   2.261 -31.404  1.00  0.00     0.087 C 
HETATM    2  C   UNL     1      -3.982   2.667 -32.319  1.00  0.00     0.045 C 
HETATM    3  C   UNL     1      -4.094   4.126 -32.755  1.00  0.00     0.126 C 
HETATM    4  N   UNL     1      -4.169   4.989 -31.566  1.00  0.00    -0.366 N 
HETATM    5  C   UNL     1      -5.330   4.695 -30.718  1.00  0.00     0.126 C 
HETATM    6  C   UNL     1      -5.263   3.247 -30.229  1.00  0.00     0.045 C 
ENDROOT
BRANCH   1   7
HETATM    7  N   UNL     1      -6.434   2.167 -32.111  1.00  0.00    -0.352 N 
HETATM    8  C   UNL     1      -7.279   1.083 -31.969  1.00  0.00     0.252 C 
HETATM    9  O   UNL     1      -7.008   0.098 -31.293  1.00  0.00    -0.268 OA
HETATM   10  H   UNL     1      -6.875   3.040 -32.368  1.00  0.00     0.163 HD
BRANCH   8  11
HETATM   11  C   UNL     1      -8.590   1.168 -32.677  1.00  0.00     0.037 A 
HETATM   12  C   UNL     1      -9.599   0.212 -32.491  1.00  0.00     0.054 A 
HETATM   13  C   UNL     1     -10.811   0.339 -33.172  1.00  0.00     0.071 A 
HETATM   14  C   UNL     1     -11.019   1.433 -34.022  1.00  0.00     0.073 A 
HETATM   15  C   UNL     1     -10.033   2.406 -34.187  1.00  0.00     0.071 A 
HETATM   16  C   UNL     1      -8.818   2.265 -33.517  1.00  0.00     0.054 A 
BRANCH  13  17
HETATM   17  O   UNL     1     -11.869  -0.525 -33.096  1.00  0.00    -0.356 OA
HETATM   18  C   UNL     1     -13.088  -0.120 -33.709  1.00  0.00     0.210 C 
ENDBRANCH  13  17
BRANCH  15  19
HETATM   19  O   UNL     1     -10.132   3.523 -34.969  1.00  0.00    -0.356 OA
HETATM   20  C   UNL     1      -9.569   4.721 -34.448  1.00  0.00     0.210 C 
ENDBRANCH  15  19
ENDBRANCH   8  11
ENDBRANCH   1   7
BRANCH   4  21
HETATM   21  C   UNL     1      -3.049   5.551 -31.012  1.00  0.00     0.121 A 
HETATM   22  N   UNL     1      -1.774   5.275 -31.436  1.00  0.00    -0.262 N 
HETATM   23  H   UNL     1      -1.492   4.659 -32.186  1.00  0.00     0.191 HD
HETATM   24  N   UNL     1      -0.810   5.928 -30.768  1.00  0.00    -0.173 NA
HETATM   25  C   UNL     1      -1.472   6.705 -29.897  1.00  0.00     0.090 A 
HETATM   26  C   UNL     1      -2.874   6.492 -30.020  1.00  0.00     0.084 A 
BRANCH  25  27
HETATM   27  C   UNL     1      -0.767   7.614 -28.986  1.00  0.00    -0.005 A 
HETATM   28  C   UNL     1       0.602   7.458 -28.720  1.00  0.00     0.015 A 
HETATM   29  C   UNL     1       1.265   8.329 -27.848  1.00  0.00     0.024 A 
HETATM   30  C   UNL     1       0.563   9.365 -27.235  1.00  0.00     0.034 A 
HETATM   31 CL   UNL     1       1.380  10.434 -26.165  1.00  0.00    -0.084 Cl
HETATM   32  C   UNL     1      -0.796   9.535 -27.483  1.00  0.00     0.024 A 
HETATM   33  C   UNL     1      -1.457   8.662 -28.353  1.00  0.00     0.015 A 
ENDBRANCH  25  27
ENDBRANCH   4  21
TORSDOF 6
ENDMDL
MODEL 7
REMARK VINA RESULT:      -8.0      5.254     11.124
REMARK  6 active torsions:
REMARK  status: ('A' for Active; 'I' for Inactive)
REMARK    1  A    between atoms: O_2  and  C_3 
REMARK    2  A    between atoms: C_5  and  O_6 
REMARK    3  A    between atoms: C_9  and  C_10 
REMARK       I    between atoms: C_10  and  N_11 
REMARK    4  A    between atoms: N_11  and  C_12 
REMARK    5  A    between atoms: N_15  and  C_16 
REMARK    6  A    between atoms: C_20  and  C_21 
ROOT
HETATM    1  C   UNL     1      -4.246   5.244 -33.603  1.00  0.00     0.087 C 
HETATM    2  C   UNL     1      -4.582   6.064 -32.343  1.00  0.00     0.045 C 
HETATM    3  C   UNL     1      -4.149   5.339 -31.072  1.00  0.00     0.126 C 
HETATM    4  N   UNL     1      -2.711   5.035 -31.146  1.00  0.00    -0.366 N 
HETATM    5  C   UNL     1      -2.366   4.171 -32.282  1.00  0.00     0.126 C 
HETATM    6  C   UNL     1      -2.758   4.857 -33.593  1.00  0.00     0.045 C 
ENDROOT
BRANCH   1   7
HETATM    7  N   UNL     1      -5.081   4.047 -33.753  1.00  0.00    -0.352 N 
HETATM    8  C   UNL     1      -6.445   4.119 -33.968  1.00  0.00     0.252 C 
HETATM    9  O   UNL     1      -7.070   5.171 -33.995  1.00  0.00    -0.268 OA
HETATM   10  H   UNL     1      -4.623   3.215 -34.100  1.00  0.00     0.163 HD
BRANCH   8  11
HETATM   11  C   UNL     1      -7.148   2.823 -34.194  1.00  0.00     0.037 A 
HETATM   12  C   UNL     1      -6.454   1.648 -34.521  1.00  0.00     0.054 A 
HETATM   13  C   UNL     1      -7.157   0.458 -34.717  1.00  0.00     0.071 A 
HETATM   14  C   UNL     1      -8.549   0.441 -34.568  1.00  0.00     0.073 A 
HETATM   15  C   UNL     1      -9.243   1.596 -34.212  1.00  0.00     0.071 A 
HETATM   16  C   UNL     1      -8.538   2.787 -34.033  1.00  0.00     0.054 A 
BRANCH  13  17
HETATM   17  O   UNL     1      -6.611  -0.751 -35.053  1.00  0.00    -0.356 OA
HETATM   18  C   UNL     1      -6.983  -1.876 -34.266  1.00  0.00     0.210 C 
ENDBRANCH  13  17
BRANCH  15  19
HETATM   19  O   UNL     1     -10.594   1.694 -34.017  1.00  0.00    -0.356 OA
HETATM   20  C   UNL     1     -11.242   2.825 -34.587  1.00  0.00     0.210 C 
ENDBRANCH  15  19
ENDBRANCH   8  11
ENDBRANCH   1   7
BRANCH   4  21
HETATM   21  C   UNL     1      -1.767   5.882 -30.627  1.00  0.00     0.121 A 
HETATM   22  N   UNL     1      -0.579   6.165 -31.251  1.00  0.00    -0.262 N 
HETATM   23  H   UNL     1      -0.250   5.817 -32.141  1.00  0.00     0.191 HD
HETATM   24  N   UNL     1       0.212   7.020 -30.584  1.00  0.00    -0.173 NA
HETATM   25  C   UNL     1      -0.499   7.356 -29.497  1.00  0.00     0.090 A 
HETATM   26  C   UNL     1      -1.741   6.660 -29.490  1.00  0.00     0.084 A 
BRANCH  25  27
HETATM   27  C   UNL     1       0.011   8.314 -28.509  1.00  0.00    -0.005 A 
HETATM   28  C   UNL     1       1.323   8.220 -28.017  1.00  0.00     0.015 A 
HETATM   29  C   UNL     1       1.800   9.138 -27.074  1.00  0.00     0.024 A 
HETATM   30  C   UNL     1       0.968  10.157 -26.614  1.00  0.00     0.034 A 
HETATM   31 CL   UNL     1       1.557  11.282 -25.455  1.00  0.00    -0.084 Cl
HETATM   32  C   UNL     1      -0.337  10.265 -27.086  1.00  0.00     0.024 A 
HETATM   33  C   UNL     1      -0.812   9.346 -28.028  1.00  0.00     0.015 A 
ENDBRANCH  25  27
ENDBRANCH   4  21
TORSDOF 6
ENDMDL
MODEL 8
REMARK VINA RESULT:      -8.0      5.269     11.295
REMARK  6 active torsions:
REMARK  status: ('A' for Active; 'I' for Inactive)
REMARK    1  A    between atoms: O_2  and  C_3 
REMARK    2  A    between atoms: C_5  and  O_6 
REMARK    3  A    between atoms: C_9  and  C_10 
REMARK       I    between atoms: C_10  and  N_11 
REMARK    4  A    between atoms: N_11  and  C_12 
REMARK    5  A    between atoms: N_15  and  C_16 
REMARK    6  A    between atoms: C_20  and  C_21 
ROOT
HETATM    1  C   UNL     1      -4.573   5.286 -33.486  1.00  0.00     0.087 C 
HETATM    2  C   UNL     1      -4.853   6.072 -32.192  1.00  0.00     0.045 C 
HETATM    3  C   UNL     1      -4.336   5.330 -30.963  1.00  0.00     0.126 C 
HETATM    4  N   UNL     1      -2.898   5.058 -31.124  1.00  0.00    -0.366 N 
HETATM    5  C   UNL     1      -2.601   4.225 -32.296  1.00  0.00     0.126 C 
HETATM    6  C   UNL     1      -3.079   4.929 -33.568  1.00  0.00     0.045 C 
ENDROOT
BRANCH   1   7
HETATM    7  N   UNL     1      -5.392   4.075 -33.616  1.00  0.00    -0.352 N 
HETATM    8  C   UNL     1      -6.738   4.123 -33.924  1.00  0.00     0.252 C 
HETATM    9  O   UNL     1      -7.365   5.166 -34.059  1.00  0.00    -0.268 OA
HETATM   10  H   UNL     1      -4.908   3.227 -33.879  1.00  0.00     0.163 HD
BRANCH   8  11
HETATM   11  C   UNL     1      -7.420   2.809 -34.114  1.00  0.00     0.037 A 
HETATM   12  C   UNL     1      -8.812   2.672 -34.013  1.00  0.00     0.054 A 
HETATM   13  C   UNL     1      -9.404   1.423 -34.205  1.00  0.00     0.071 A 
HETATM   14  C   UNL     1      -8.604   0.316 -34.518  1.00  0.00     0.073 A 
HETATM   15  C   UNL     1      -7.222   0.450 -34.653  1.00  0.00     0.071 A 
HETATM   16  C   UNL     1      -6.635   1.698 -34.443  1.00  0.00     0.054 A 
BRANCH  13  17
HETATM   17  O   UNL     1     -10.741   1.146 -34.121  1.00  0.00    -0.356 OA
HETATM   18  C   UNL     1     -11.564   2.099 -33.459  1.00  0.00     0.210 C 
ENDBRANCH  13  17
BRANCH  15  19
HETATM   19  O   UNL     1      -6.347  -0.550 -34.976  1.00  0.00    -0.356 OA
HETATM   20  C   UNL     1      -6.070  -1.510 -33.963  1.00  0.00     0.210 C 
ENDBRANCH  15  19
ENDBRANCH   8  11
ENDBRANCH   1   7
BRANCH   4  21
HETATM   21  C   UNL     1      -1.944   5.913 -30.641  1.00  0.00     0.121 A 
HETATM   22  N   UNL     1      -0.805   6.244 -31.329  1.00  0.00    -0.262 N 
HETATM   23  H   UNL     1      -0.526   5.931 -32.249  1.00  0.00     0.191 HD
HETATM   24  N   UNL     1       0.007   7.100 -30.688  1.00  0.00    -0.173 NA
HETATM   25  C   UNL     1      -0.641   7.386 -29.548  1.00  0.00     0.090 A 
HETATM   26  C   UNL     1      -1.863   6.659 -29.483  1.00  0.00     0.084 A 
BRANCH  25  27
HETATM   27  C   UNL     1      -0.092   8.327 -28.565  1.00  0.00    -0.005 A 
HETATM   28  C   UNL     1       1.234   8.215 -28.115  1.00  0.00     0.015 A 
HETATM   29  C   UNL     1       1.748   9.117 -27.176  1.00  0.00     0.024 A 
HETATM   30  C   UNL     1       0.941  10.139 -26.680  1.00  0.00     0.034 A 
HETATM   31 CL   UNL     1       1.576  11.246 -25.528  1.00  0.00    -0.084 Cl
HETATM   32  C   UNL     1      -0.377  10.265 -27.111  1.00  0.00     0.024 A 
HETATM   33  C   UNL     1      -0.889   9.362 -28.048  1.00  0.00     0.015 A 
ENDBRANCH  25  27
ENDBRANCH   4  21
TORSDOF 6
ENDMDL
MODEL 9
REMARK VINA RESULT:      -7.9      1.503      2.851
REMARK  6 active torsions:
REMARK  status: ('A' for Active; 'I' for Inactive)
REMARK    1  A    between atoms: O_2  and  C_3 
REMARK    2  A    between atoms: C_5  and  O_6 
REMARK    3  A    between atoms: C_9  and  C_10 
REMARK       I    between atoms: C_10  and  N_11 
REMARK    4  A    between atoms: N_11  and  C_12 
REMARK    5  A    between atoms: N_15  and  C_16 
REMARK    6  A    between atoms: C_20  and  C_21 
ROOT
HETATM    1  C   UNL     1      -4.479   5.862 -30.730  1.00  0.00     0.087 C 
HETATM    2  C   UNL     1      -3.569   5.174 -31.765  1.00  0.00     0.045 C 
HETATM    3  C   UNL     1      -3.075   3.820 -31.262  1.00  0.00     0.126 C 
HETATM    4  N   UNL     1      -4.228   2.975 -30.917  1.00  0.00    -0.366 N 
HETATM    5  C   UNL     1      -5.067   3.554 -29.861  1.00  0.00     0.126 C 
HETATM    6  C   UNL     1      -5.613   4.909 -30.316  1.00  0.00     0.045 C 
ENDROOT
BRANCH   1   7
HETATM    7  N   UNL     1      -3.754   6.334 -29.545  1.00  0.00    -0.352 N 
HETATM    8  C   UNL     1      -3.281   7.628 -29.434  1.00  0.00     0.252 C 
HETATM    9  O   UNL     1      -3.378   8.462 -30.326  1.00  0.00    -0.268 OA
HETATM   10  H   UNL     1      -3.951   5.860 -28.674  1.00  0.00     0.163 HD
BRANCH   8  11
HETATM   11  C   UNL     1      -2.645   7.990 -28.134  1.00  0.00     0.037 A 
HETATM   12  C   UNL     1      -3.393   8.467 -27.048  1.00  0.00     0.054 A 
HETATM   13  C   UNL     1      -2.752   8.788 -25.850  1.00  0.00     0.071 A 
HETATM   14  C   UNL     1      -1.367   8.612 -25.734  1.00  0.00     0.073 A 
HETATM   15  C   UNL     1      -0.620   8.108 -26.798  1.00  0.00     0.071 A 
HETATM   16  C   UNL     1      -1.264   7.805 -27.999  1.00  0.00     0.054 A 
BRANCH  13  17
HETATM   17  O   UNL     1      -3.355   9.274 -24.722  1.00  0.00    -0.356 OA
HETATM   18  C   UNL     1      -4.765   9.118 -24.617  1.00  0.00     0.210 C 
ENDBRANCH  13  17
BRANCH  15  19
HETATM   19  O   UNL     1       0.727   7.874 -26.794  1.00  0.00    -0.356 OA
HETATM   20  C   UNL     1       1.495   8.539 -27.790  1.00  0.00     0.210 C 
ENDBRANCH  15  19
ENDBRANCH   8  11
ENDBRANCH   1   7
BRANCH   4  21
HETATM   21  C   UNL     1      -4.779   2.103 -31.819  1.00  0.00     0.121 A 
HETATM   22  N   UNL     1      -5.608   2.494 -32.840  1.00  0.00    -0.262 N 
HETATM   23  H   UNL     1      -5.906   3.432 -33.069  1.00  0.00     0.191 HD
HETATM   24  N   UNL     1      -6.045   1.492 -33.620  1.00  0.00    -0.173 NA
HETATM   25  C   UNL     1      -5.444   0.398 -33.127  1.00  0.00     0.090 A 
HETATM   26  C   UNL     1      -4.648   0.743 -31.998  1.00  0.00     0.084 A 
BRANCH  25  27
HETATM   27  C   UNL     1      -5.639  -0.925 -33.731  1.00  0.00    -0.005 A 
HETATM   28  C   UNL     1      -4.545  -1.739 -34.065  1.00  0.00     0.015 A 
HETATM   29  C   UNL     1      -4.741  -2.999 -34.642  1.00  0.00     0.024 A 
HETATM   30  C   UNL     1      -6.034  -3.455 -34.890  1.00  0.00     0.034 A 
HETATM   31 CL   UNL     1      -6.273  -5.003 -35.599  1.00  0.00    -0.084 Cl
HETATM   32  C   UNL     1      -7.132  -2.662 -34.569  1.00  0.00     0.024 A 
HETATM   33  C   UNL     1      -6.934  -1.403 -33.994  1.00  0.00     0.015 A 
ENDBRANCH  25  27
ENDBRANCH   4  21
TORSDOF 6
ENDMDL
MODEL 10
REMARK VINA RESULT:      -7.7      8.358     10.600
REMARK  6 active torsions:
REMARK  status: ('A' for Active; 'I' for Inactive)
REMARK    1  A    between atoms: O_2  and  C_3 
REMARK    2  A    between atoms: C_5  and  O_6 
REMARK    3  A    between atoms: C_9  and  C_10 
REMARK       I    between atoms: C_10  and  N_11 
REMARK    4  A    between atoms: N_11  and  C_12 
REMARK    5  A    between atoms: N_15  and  C_16 
REMARK    6  A    between atoms: C_20  and  C_21 
ROOT
HETATM    1  C   UNL     1     -11.328   3.995 -33.898  1.00  0.00     0.087 C 
HETATM    2  C   UNL     1     -10.012   3.832 -33.114  1.00  0.00     0.045 C 
HETATM    3  C   UNL     1     -10.016   2.558 -32.274  1.00  0.00     0.126 C 
HETATM    4  N   UNL     1     -10.270   1.398 -33.144  1.00  0.00    -0.366 N 
HETATM    5  C   UNL     1     -11.563   1.471 -33.833  1.00  0.00     0.126 C 
HETATM    6  C   UNL     1     -11.613   2.722 -34.713  1.00  0.00     0.045 C 
ENDROOT
BRANCH   1   7
HETATM    7  N   UNL     1     -12.475   4.316 -33.041  1.00  0.00    -0.352 N 
HETATM    8  C   UNL     1     -12.790   5.613 -32.682  1.00  0.00     0.252 C 
HETATM    9  O   UNL     1     -12.115   6.585 -32.999  1.00  0.00    -0.268 OA
HETATM   10  H   UNL     1     -13.246   3.662 -33.051  1.00  0.00     0.163 HD
BRANCH   8  11
HETATM   11  C   UNL     1     -14.037   5.795 -31.884  1.00  0.00     0.037 A 
HETATM   12  C   UNL     1     -14.075   6.599 -30.735  1.00  0.00     0.054 A 
HETATM   13  C   UNL     1     -15.269   6.741 -30.026  1.00  0.00     0.071 A 
HETATM   14  C   UNL     1     -16.426   6.095 -30.476  1.00  0.00     0.073 A 
HETATM   15  C   UNL     1     -16.406   5.320 -31.635  1.00  0.00     0.071 A 
HETATM   16  C   UNL     1     -15.206   5.167 -32.331  1.00  0.00     0.054 A 
BRANCH  13  17
HETATM   17  O   UNL     1     -15.442   7.480 -28.886  1.00  0.00    -0.356 OA
HETATM   18  C   UNL     1     -15.824   6.781 -27.708  1.00  0.00     0.210 C 
ENDBRANCH  13  17
BRANCH  15  19
HETATM   19  O   UNL     1     -17.474   4.663 -32.181  1.00  0.00    -0.356 OA
HETATM   20  C   UNL     1     -18.559   4.371 -31.308  1.00  0.00     0.210 C 
ENDBRANCH  15  19
ENDBRANCH   8  11
ENDBRANCH   1   7
BRANCH   4  21
HETATM   21  C   UNL     1      -9.246   0.674 -33.697  1.00  0.00     0.121 A 
HETATM   22  N   UNL     1      -8.734   0.920 -34.945  1.00  0.00    -0.262 N 
HETATM   23  H   UNL     1      -9.013   1.640 -35.597  1.00  0.00     0.191 HD
HETATM   24  N   UNL     1      -7.732   0.103 -35.308  1.00  0.00    -0.173 NA
HETATM   25  C   UNL     1      -7.540  -0.686 -34.240  1.00  0.00     0.090 A 
HETATM   26  C   UNL     1      -8.472  -0.359 -33.215  1.00  0.00     0.084 A 
BRANCH  25  27
HETATM   27  C   UNL     1      -6.492  -1.714 -34.221  1.00  0.00    -0.005 A 
HETATM   28  C   UNL     1      -6.731  -3.003 -34.726  1.00  0.00     0.015 A 
HETATM   29  C   UNL     1      -5.726  -3.976 -34.703  1.00  0.00     0.024 A 
HETATM   30  C   UNL     1      -4.474  -3.670 -34.173  1.00  0.00     0.034 A 
HETATM   31 CL   UNL     1      -3.241  -4.868 -34.146  1.00  0.00    -0.084 Cl
HETATM   32  C   UNL     1      -4.219  -2.400 -33.664  1.00  0.00     0.024 A 
HETATM   33  C   UNL     1      -5.225  -1.428 -33.688  1.00  0.00     0.015 A 
ENDBRANCH  25  27
ENDBRANCH   4  21
TORSDOF 6
ENDMDL
