MODEL 1
REMARK VINA RESULT:     -10.0      0.000      0.000
REMARK  7 active torsions:
REMARK  status: ('A' for Active; 'I' for Inactive)
REMARK    1  A    between atoms: C_5  and  C_6 
REMARK    2  A    between atoms: C_6  and  C_7 
REMARK    3  A    between atoms: C_7  and  N_8 
REMARK       I    between atoms: N_8  and  C_9 
REMARK    4  A    between atoms: C_9  and  C_10 
REMARK    5  A    between atoms: C_13  and  O_14 
REMARK    6  A    between atoms: C_15  and  C_16 
REMARK    7  A    between atoms: C_16  and  C_17 
ROOT
HETATM    1  C   UNL     1      -4.056   3.991 -33.342  1.00  0.00     0.099 A 
HETATM    2  C   UNL     1      -2.940   4.585 -32.782  1.00  0.00     0.171 A 
HETATM    3  N   UNL     1      -2.756   5.781 -33.461  1.00  0.00    -0.192 N 
HETATM    4  C   UNL     1      -1.774   6.696 -33.063  1.00  0.00     0.174 C 
HETATM    5  C   UNL     1      -0.976   6.426 -32.010  1.00  0.00     0.023 C 
HETATM    6  C   UNL     1      -1.163   5.039 -31.429  1.00  0.00     0.044 C 
HETATM    7  C   UNL     1      -0.188   4.538 -30.387  1.00  0.00     0.071 C 
HETATM    8  N   UNL     1      -2.105   4.202 -31.771  1.00  0.00    -0.233 NA
HETATM    9  N   UNL     1      -3.653   5.950 -34.468  1.00  0.00    -0.175 NA
HETATM   10  C   UNL     1      -4.434   4.870 -34.379  1.00  0.00     0.160 A 
ENDROOT
BRANCH   1  11
HETATM   11  C   UNL     1      -4.711   2.757 -32.952  1.00  0.00     0.257 C 
HETATM   12  N   UNL     1      -3.875   1.812 -32.404  1.00  0.00    -0.356 N 
HETATM   13  H   UNL     1      -2.896   2.070 -32.288  1.00  0.00     0.162 HD
HETATM   14  O   UNL     1      -5.920   2.599 -33.079  1.00  0.00    -0.267 OA
BRANCH  12  15
HETATM   15  C   UNL     1      -4.381   0.599 -31.802  1.00  0.00     0.127 C 
BRANCH  15  16
HETATM   16  C   UNL     1      -3.560  -0.622 -32.212  1.00  0.00     0.058 C 
BRANCH  16  17
HETATM   17  C   UNL     1      -4.353  -1.573 -33.070  1.00  0.00    -0.057 A 
HETATM   18  C   UNL     1      -5.645  -1.241 -33.490  1.00  0.00     0.007 A 
HETATM   19  C   UNL     1      -6.390  -2.132 -34.266  1.00  0.00     0.007 A 
HETATM   20  C   UNL     1      -5.860  -3.376 -34.624  1.00  0.00    -0.062 A 
HETATM   21  C   UNL     1      -6.645  -4.335 -35.468  1.00  0.00     0.048 C 
HETATM   22  C   UNL     1      -4.566  -3.708 -34.206  1.00  0.00     0.007 A 
HETATM   23  C   UNL     1      -3.820  -2.817 -33.431  1.00  0.00     0.007 A 
ENDBRANCH  16  17
ENDBRANCH  15  16
ENDBRANCH  12  15
ENDBRANCH   1  11
BRANCH   4  24
HETATM   24  O   UNL     1      -1.701   7.904 -33.745  1.00  0.00    -0.344 OA
HETATM   25  H   UNL     1      -2.218   7.772 -34.570  1.00  0.00     0.219 HD
ENDBRANCH   4  24
BRANCH   5  26
HETATM   26  C   UNL     1       0.009   7.409 -31.434  1.00  0.00     0.084 C 
BRANCH  26  27
HETATM   27  C   UNL     1      -0.269   7.836 -30.000  1.00  0.00    -0.047 A 
HETATM   28  C   UNL     1      -1.414   8.567 -29.616  1.00  0.00    -0.055 A 
HETATM   29  C   UNL     1      -2.463   9.015 -30.596  1.00  0.00     0.049 C 
HETATM   30  C   UNL     1      -1.607   8.872 -28.258  1.00  0.00     0.008 A 
HETATM   31  C   UNL     1      -0.670   8.502 -27.293  1.00  0.00     0.007 A 
HETATM   32  C   UNL     1       0.483   7.811 -27.662  1.00  0.00    -0.061 A 
HETATM   33  C   UNL     1       1.519   7.449 -26.640  1.00  0.00     0.048 C 
HETATM   34  C   UNL     1       0.683   7.502 -29.013  1.00  0.00     0.014 A 
ENDBRANCH  26  27
ENDBRANCH   5  26
TORSDOF 7
ENDMDL
MODEL 2
REMARK VINA RESULT:     -10.0      1.583      2.346
REMARK  7 active torsions:
REMARK  status: ('A' for Active; 'I' for Inactive)
REMARK    1  A    between atoms: C_5  and  C_6 
REMARK    2  A    between atoms: C_6  and  C_7 
REMARK    3  A    between atoms: C_7  and  N_8 
REMARK       I    between atoms: N_8  and  C_9 
REMARK    4  A    between atoms: C_9  and  C_10 
REMARK    5  A    between atoms: C_13  and  O_14 
REMARK    6  A    between atoms: C_15  and  C_16 
REMARK    7  A    between atoms: C_16  and  C_17 
ROOT
HETATM    1  C   UNL     1      -4.870   4.905 -34.130  1.00  0.00     0.099 A 
HETATM    2  C   UNL     1      -4.288   5.615 -33.095  1.00  0.00     0.171 A 
HETATM    3  N   UNL     1      -3.187   6.260 -33.638  1.00  0.00    -0.192 N 
HETATM    4  C   UNL     1      -2.434   7.167 -32.883  1.00  0.00     0.174 C 
HETATM    5  C   UNL     1      -2.764   7.426 -31.600  1.00  0.00     0.023 C 
HETATM    6  C   UNL     1      -3.890   6.567 -31.064  1.00  0.00     0.044 C 
HETATM    7  C   UNL     1      -4.211   6.610 -29.585  1.00  0.00     0.071 C 
HETATM    8  N   UNL     1      -4.619   5.752 -31.777  1.00  0.00    -0.233 NA
HETATM    9  N   UNL     1      -2.994   5.947 -34.946  1.00  0.00    -0.175 NA
HETATM   10  C   UNL     1      -4.018   5.139 -35.232  1.00  0.00     0.160 A 
ENDROOT
BRANCH   1  11
HETATM   11  C   UNL     1      -6.084   4.113 -34.110  1.00  0.00     0.257 C 
HETATM   12  N   UNL     1      -5.883   2.757 -33.995  1.00  0.00    -0.356 N 
HETATM   13  H   UNL     1      -4.920   2.437 -33.900  1.00  0.00     0.162 HD
HETATM   14  O   UNL     1      -7.194   4.631 -34.159  1.00  0.00    -0.267 OA
BRANCH  12  15
HETATM   15  C   UNL     1      -6.977   1.836 -33.784  1.00  0.00     0.127 C 
BRANCH  15  16
HETATM   16  C   UNL     1      -6.640   0.791 -32.722  1.00  0.00     0.058 C 
BRANCH  16  17
HETATM   17  C   UNL     1      -6.363  -0.560 -33.328  1.00  0.00    -0.057 A 
HETATM   18  C   UNL     1      -5.064  -1.077 -33.345  1.00  0.00     0.007 A 
HETATM   19  C   UNL     1      -4.801  -2.320 -33.928  1.00  0.00     0.007 A 
HETATM   20  C   UNL     1      -5.833  -3.061 -34.513  1.00  0.00    -0.062 A 
HETATM   21  C   UNL     1      -5.566  -4.401 -35.129  1.00  0.00     0.048 C 
HETATM   22  C   UNL     1      -7.134  -2.546 -34.494  1.00  0.00     0.007 A 
HETATM   23  C   UNL     1      -7.397  -1.304 -33.911  1.00  0.00     0.007 A 
ENDBRANCH  16  17
ENDBRANCH  15  16
ENDBRANCH  12  15
ENDBRANCH   1  11
BRANCH   4  24
HETATM   24  O   UNL     1      -1.392   7.831 -33.518  1.00  0.00    -0.344 OA
HETATM   25  H   UNL     1      -1.766   8.693 -33.805  1.00  0.00     0.219 HD
ENDBRANCH   4  24
BRANCH   5  26
HETATM   26  C   UNL     1      -2.094   8.484 -30.763  1.00  0.00     0.084 C 
BRANCH  26  27
HETATM   27  C   UNL     1      -1.098   7.963 -29.739  1.00  0.00    -0.047 A 
HETATM   28  C   UNL     1      -0.757   8.664 -28.562  1.00  0.00    -0.055 A 
HETATM   29  C   UNL     1      -1.331  10.011 -28.218  1.00  0.00     0.049 C 
HETATM   30  C   UNL     1       0.137   8.077 -27.650  1.00  0.00     0.008 A 
HETATM   31  C   UNL     1       0.721   6.836 -27.907  1.00  0.00     0.007 A 
HETATM   32  C   UNL     1       0.421   6.148 -29.081  1.00  0.00    -0.061 A 
HETATM   33  C   UNL     1       1.078   4.836 -29.389  1.00  0.00     0.048 C 
HETATM   34  C   UNL     1      -0.470   6.725 -29.995  1.00  0.00     0.014 A 
ENDBRANCH  26  27
ENDBRANCH   5  26
TORSDOF 7
ENDMDL
MODEL 3
REMARK VINA RESULT:      -9.9      4.054     10.330
REMARK  7 active torsions:
REMARK  status: ('A' for Active; 'I' for Inactive)
REMARK    1  A    between atoms: C_5  and  C_6 
REMARK    2  A    between atoms: C_6  and  C_7 
REMARK    3  A    between atoms: C_7  and  N_8 
REMARK       I    between atoms: N_8  and  C_9 
REMARK    4  A    between atoms: C_9  and  C_10 
REMARK    5  A    between atoms: C_13  and  O_14 
REMARK    6  A    between atoms: C_15  and  C_16 
REMARK    7  A    between atoms: C_16  and  C_17 
ROOT
HETATM    1  C   UNL     1      -5.269   2.596 -31.256  1.00  0.00     0.099 A 
HETATM    2  C   UNL     1      -6.270   1.785 -31.761  1.00  0.00     0.171 A 
HETATM    3  N   UNL     1      -7.403   2.052 -31.006  1.00  0.00    -0.192 N 
HETATM    4  C   UNL     1      -8.640   1.484 -31.332  1.00  0.00     0.174 C 
HETATM    5  C   UNL     1      -8.752   0.653 -32.388  1.00  0.00     0.023 C 
HETATM    6  C   UNL     1      -7.435   0.317 -33.057  1.00  0.00     0.044 C 
HETATM    7  C   UNL     1      -7.398  -0.765 -34.114  1.00  0.00     0.071 C 
HETATM    8  N   UNL     1      -6.288   0.878 -32.782  1.00  0.00    -0.233 NA
HETATM    9  N   UNL     1      -7.163   2.938 -30.004  1.00  0.00    -0.175 NA
HETATM   10  C   UNL     1      -5.878   3.263 -30.171  1.00  0.00     0.160 A 
ENDROOT
BRANCH   1  11
HETATM   11  C   UNL     1      -3.908   2.749 -31.731  1.00  0.00     0.257 C 
HETATM   12  N   UNL     1      -3.750   3.682 -32.729  1.00  0.00    -0.356 N 
HETATM   13  H   UNL     1      -4.580   4.199 -33.016  1.00  0.00     0.162 HD
HETATM   14  O   UNL     1      -2.979   2.112 -31.247  1.00  0.00    -0.267 OA
BRANCH  12  15
HETATM   15  C   UNL     1      -2.444   4.089 -33.198  1.00  0.00     0.127 C 
BRANCH  15  16
HETATM   16  C   UNL     1      -2.313   5.610 -33.257  1.00  0.00     0.058 C 
BRANCH  16  17
HETATM   17  C   UNL     1      -1.499   6.151 -32.110  1.00  0.00    -0.057 A 
HETATM   18  C   UNL     1      -0.344   5.487 -31.684  1.00  0.00     0.007 A 
HETATM   19  C   UNL     1       0.398   5.974 -30.606  1.00  0.00     0.007 A 
HETATM   20  C   UNL     1      -0.009   7.128 -29.928  1.00  0.00    -0.062 A 
HETATM   21  C   UNL     1       0.787   7.668 -28.778  1.00  0.00     0.048 C 
HETATM   22  C   UNL     1      -1.164   7.794 -30.355  1.00  0.00     0.007 A 
HETATM   23  C   UNL     1      -1.905   7.308 -31.434  1.00  0.00     0.007 A 
ENDBRANCH  16  17
ENDBRANCH  15  16
ENDBRANCH  12  15
ENDBRANCH   1  11
BRANCH   4  24
HETATM   24  O   UNL     1      -9.743   1.858 -30.575  1.00  0.00    -0.344 OA
HETATM   25  H   UNL     1     -10.514   1.421 -31.002  1.00  0.00     0.219 HD
ENDBRANCH   4  24
BRANCH   5  26
HETATM   26  C   UNL     1     -10.065   0.109 -32.887  1.00  0.00     0.084 C 
BRANCH  26  27
HETATM   27  C   UNL     1     -10.917   1.096 -33.672  1.00  0.00    -0.047 A 
HETATM   28  C   UNL     1     -12.276   0.874 -33.982  1.00  0.00    -0.055 A 
HETATM   29  C   UNL     1     -13.010  -0.377 -33.583  1.00  0.00     0.049 C 
HETATM   30  C   UNL     1     -12.993   1.868 -34.669  1.00  0.00     0.008 A 
HETATM   31  C   UNL     1     -12.375   3.049 -35.083  1.00  0.00     0.007 A 
HETATM   32  C   UNL     1     -11.026   3.267 -34.816  1.00  0.00    -0.061 A 
HETATM   33  C   UNL     1     -10.341   4.512 -35.297  1.00  0.00     0.048 C 
HETATM   34  C   UNL     1     -10.303   2.282 -34.131  1.00  0.00     0.014 A 
ENDBRANCH  26  27
ENDBRANCH   5  26
TORSDOF 7
ENDMDL
MODEL 4
REMARK VINA RESULT:      -9.8      1.573      9.963
REMARK  7 active torsions:
REMARK  status: ('A' for Active; 'I' for Inactive)
REMARK    1  A    between atoms: C_5  and  C_6 
REMARK    2  A    between atoms: C_6  and  C_7 
REMARK    3  A    between atoms: C_7  and  N_8 
REMARK       I    between atoms: N_8  and  C_9 
REMARK    4  A    between atoms: C_9  and  C_10 
REMARK    5  A    between atoms: C_13  and  O_14 
REMARK    6  A    between atoms: C_15  and  C_16 
REMARK    7  A    between atoms: C_16  and  C_17 
ROOT
HETATM    1  C   UNL     1      -2.801   5.076 -32.842  1.00  0.00     0.099 A 
HETATM    2  C   UNL     1      -3.703   4.096 -32.467  1.00  0.00     0.171 A 
HETATM    3  N   UNL     1      -4.644   4.025 -33.483  1.00  0.00    -0.192 N 
HETATM    4  C   UNL     1      -5.642   3.044 -33.479  1.00  0.00     0.174 C 
HETATM    5  C   UNL     1      -5.713   2.148 -32.473  1.00  0.00     0.023 C 
HETATM    6  C   UNL     1      -4.732   2.399 -31.347  1.00  0.00     0.044 C 
HETATM    7  C   UNL     1      -4.852   1.597 -30.070  1.00  0.00     0.071 C 
HETATM    8  N   UNL     1      -3.774   3.287 -31.369  1.00  0.00    -0.233 NA
HETATM    9  N   UNL     1      -4.431   4.952 -34.454  1.00  0.00    -0.175 NA
HETATM   10  C   UNL     1      -3.315   5.571 -34.060  1.00  0.00     0.160 A 
ENDROOT
BRANCH   1  11
HETATM   11  C   UNL     1      -1.593   5.497 -32.161  1.00  0.00     0.257 C 
HETATM   12  N   UNL     1      -1.652   5.424 -30.788  1.00  0.00    -0.356 N 
HETATM   13  H   UNL     1      -2.510   5.054 -30.380  1.00  0.00     0.162 HD
HETATM   14  O   UNL     1      -0.595   5.856 -32.777  1.00  0.00    -0.267 OA
BRANCH  12  15
HETATM   15  C   UNL     1      -0.487   5.636 -29.959  1.00  0.00     0.127 C 
BRANCH  15  16
HETATM   16  C   UNL     1      -0.104   7.113 -29.887  1.00  0.00     0.058 C 
BRANCH  16  17
HETATM   17  C   UNL     1       0.518   7.471 -28.563  1.00  0.00    -0.057 A 
HETATM   18  C   UNL     1       0.240   6.713 -27.420  1.00  0.00     0.007 A 
HETATM   19  C   UNL     1       0.798   7.058 -26.186  1.00  0.00     0.007 A 
HETATM   20  C   UNL     1       1.634   8.175 -26.073  1.00  0.00    -0.062 A 
HETATM   21  C   UNL     1       2.248   8.547 -24.757  1.00  0.00     0.048 C 
HETATM   22  C   UNL     1       1.914   8.932 -27.216  1.00  0.00     0.007 A 
HETATM   23  C   UNL     1       1.357   8.586 -28.450  1.00  0.00     0.007 A 
ENDBRANCH  16  17
ENDBRANCH  15  16
ENDBRANCH  12  15
ENDBRANCH   1  11
BRANCH   4  24
HETATM   24  O   UNL     1      -6.501   2.989 -34.569  1.00  0.00    -0.344 OA
HETATM   25  H   UNL     1      -5.925   2.825 -35.349  1.00  0.00     0.219 HD
ENDBRANCH   4  24
BRANCH   5  26
HETATM   26  C   UNL     1      -6.666   0.981 -32.460  1.00  0.00     0.084 C 
BRANCH  26  27
HETATM   27  C   UNL     1      -6.152  -0.280 -33.138  1.00  0.00    -0.047 A 
HETATM   28  C   UNL     1      -6.690  -0.790 -34.339  1.00  0.00    -0.055 A 
HETATM   29  C   UNL     1      -7.846  -0.145 -35.054  1.00  0.00     0.049 C 
HETATM   30  C   UNL     1      -6.115  -1.935 -34.916  1.00  0.00     0.008 A 
HETATM   31  C   UNL     1      -5.050  -2.596 -34.303  1.00  0.00     0.007 A 
HETATM   32  C   UNL     1      -4.530  -2.125 -33.100  1.00  0.00    -0.061 A 
HETATM   33  C   UNL     1      -3.416  -2.854 -32.409  1.00  0.00     0.048 C 
HETATM   34  C   UNL     1      -5.097  -0.984 -32.518  1.00  0.00     0.014 A 
ENDBRANCH  26  27
ENDBRANCH   5  26
TORSDOF 7
ENDMDL
MODEL 5
REMARK VINA RESULT:      -9.8      2.329      9.498
REMARK  7 active torsions:
REMARK  status: ('A' for Active; 'I' for Inactive)
REMARK    1  A    between atoms: C_5  and  C_6 
REMARK    2  A    between atoms: C_6  and  C_7 
REMARK    3  A    between atoms: C_7  and  N_8 
REMARK       I    between atoms: N_8  and  C_9 
REMARK    4  A    between atoms: C_9  and  C_10 
REMARK    5  A    between atoms: C_13  and  O_14 
REMARK    6  A    between atoms: C_15  and  C_16 
REMARK    7  A    between atoms: C_16  and  C_17 
ROOT
HETATM    1  C   UNL     1      -4.743   5.433 -30.797  1.00  0.00     0.099 A 
HETATM    2  C   UNL     1      -4.918   4.061 -30.755  1.00  0.00     0.171 A 
HETATM    3  N   UNL     1      -6.239   3.849 -30.388  1.00  0.00    -0.192 N 
HETATM    4  C   UNL     1      -6.788   2.562 -30.367  1.00  0.00     0.174 C 
HETATM    5  C   UNL     1      -6.032   1.493 -30.695  1.00  0.00     0.023 C 
HETATM    6  C   UNL     1      -4.573   1.816 -30.941  1.00  0.00     0.044 C 
HETATM    7  C   UNL     1      -3.584   0.683 -31.108  1.00  0.00     0.071 C 
HETATM    8  N   UNL     1      -4.070   3.020 -31.003  1.00  0.00    -0.233 NA
HETATM    9  N   UNL     1      -6.899   5.009 -30.129  1.00  0.00    -0.175 NA
HETATM   10  C   UNL     1      -5.990   5.954 -30.387  1.00  0.00     0.160 A 
ENDROOT
BRANCH   1  11
HETATM   11  C   UNL     1      -3.564   6.179 -31.188  1.00  0.00     0.257 C 
HETATM   12  N   UNL     1      -2.631   5.452 -31.890  1.00  0.00    -0.356 N 
HETATM   13  H   UNL     1      -2.862   4.482 -32.101  1.00  0.00     0.162 HD
HETATM   14  O   UNL     1      -3.439   7.372 -30.932  1.00  0.00    -0.267 OA
BRANCH  12  15
HETATM   15  C   UNL     1      -1.481   6.074 -32.507  1.00  0.00     0.127 C 
BRANCH  15  16
HETATM   16  C   UNL     1      -0.171   5.482 -31.989  1.00  0.00     0.058 C 
BRANCH  16  17
HETATM   17  C   UNL     1       0.162   5.976 -30.605  1.00  0.00    -0.057 A 
HETATM   18  C   UNL     1       0.149   7.345 -30.318  1.00  0.00     0.007 A 
HETATM   19  C   UNL     1       0.481   7.805 -29.041  1.00  0.00     0.007 A 
HETATM   20  C   UNL     1       0.843   6.904 -28.034  1.00  0.00    -0.062 A 
HETATM   21  C   UNL     1       1.188   7.386 -26.657  1.00  0.00     0.048 C 
HETATM   22  C   UNL     1       0.855   5.535 -28.320  1.00  0.00     0.007 A 
HETATM   23  C   UNL     1       0.522   5.074 -29.596  1.00  0.00     0.007 A 
ENDBRANCH  16  17
ENDBRANCH  15  16
ENDBRANCH  12  15
ENDBRANCH   1  11
BRANCH   4  24
HETATM   24  O   UNL     1      -8.137   2.437 -30.064  1.00  0.00    -0.344 OA
HETATM   25  H   UNL     1      -8.584   3.166 -30.550  1.00  0.00     0.219 HD
ENDBRANCH   4  24
BRANCH   5  26
HETATM   26  C   UNL     1      -6.577   0.095 -30.830  1.00  0.00     0.084 C 
BRANCH  26  27
HETATM   27  C   UNL     1      -6.659  -0.432 -32.254  1.00  0.00    -0.047 A 
HETATM   28  C   UNL     1      -7.737  -0.158 -33.123  1.00  0.00    -0.055 A 
HETATM   29  C   UNL     1      -8.926   0.668 -32.713  1.00  0.00     0.049 C 
HETATM   30  C   UNL     1      -7.698  -0.648 -34.439  1.00  0.00     0.008 A 
HETATM   31  C   UNL     1      -6.635  -1.433 -34.887  1.00  0.00     0.007 A 
HETATM   32  C   UNL     1      -5.580  -1.742 -34.031  1.00  0.00    -0.061 A 
HETATM   33  C   UNL     1      -4.455  -2.622 -34.488  1.00  0.00     0.048 C 
HETATM   34  C   UNL     1      -5.610  -1.256 -32.718  1.00  0.00     0.014 A 
ENDBRANCH  26  27
ENDBRANCH   5  26
TORSDOF 7
ENDMDL
MODEL 6
REMARK VINA RESULT:      -9.7      1.278      2.261
REMARK  7 active torsions:
REMARK  status: ('A' for Active; 'I' for Inactive)
REMARK    1  A    between atoms: C_5  and  C_6 
REMARK    2  A    between atoms: C_6  and  C_7 
REMARK    3  A    between atoms: C_7  and  N_8 
REMARK       I    between atoms: N_8  and  C_9 
REMARK    4  A    between atoms: C_9  and  C_10 
REMARK    5  A    between atoms: C_13  and  O_14 
REMARK    6  A    between atoms: C_15  and  C_16 
REMARK    7  A    between atoms: C_16  and  C_17 
ROOT
HETATM    1  C   UNL     1      -3.331   4.034 -32.683  1.00  0.00     0.099 A 
HETATM    2  C   UNL     1      -2.327   4.740 -32.045  1.00  0.00     0.171 A 
HETATM    3  N   UNL     1      -2.390   6.035 -32.538  1.00  0.00    -0.192 N 
HETATM    4  C   UNL     1      -1.583   7.050 -32.011  1.00  0.00     0.174 C 
HETATM    5  C   UNL     1      -0.715   6.783 -31.013  1.00  0.00     0.023 C 
HETATM    6  C   UNL     1      -0.623   5.316 -30.646  1.00  0.00     0.044 C 
HETATM    7  C   UNL     1       0.461   4.860 -29.694  1.00  0.00     0.071 C 
HETATM    8  N   UNL     1      -1.404   4.376 -31.106  1.00  0.00    -0.233 NA
HETATM    9  N   UNL     1      -3.334   6.178 -33.505  1.00  0.00    -0.175 NA
HETATM   10  C   UNL     1      -3.899   4.969 -33.575  1.00  0.00     0.160 A 
ENDROOT
BRANCH   1  11
HETATM   11  C   UNL     1      -3.733   2.656 -32.480  1.00  0.00     0.257 C 
HETATM   12  N   UNL     1      -5.093   2.455 -32.434  1.00  0.00    -0.356 N 
HETATM   13  H   UNL     1      -5.687   3.271 -32.580  1.00  0.00     0.162 HD
HETATM   14  O   UNL     1      -2.912   1.750 -32.391  1.00  0.00    -0.267 OA
BRANCH  12  15
HETATM   15  C   UNL     1      -5.672   1.131 -32.413  1.00  0.00     0.127 C 
BRANCH  15  16
HETATM   16  C   UNL     1      -6.140   0.696 -33.800  1.00  0.00     0.058 C 
BRANCH  16  17
HETATM   17  C   UNL     1      -5.927  -0.777 -34.032  1.00  0.00    -0.057 A 
HETATM   18  C   UNL     1      -4.686  -1.365 -33.765  1.00  0.00     0.007 A 
HETATM   19  C   UNL     1      -4.480  -2.727 -34.002  1.00  0.00     0.007 A 
HETATM   20  C   UNL     1      -5.509  -3.520 -34.520  1.00  0.00    -0.062 A 
HETATM   21  C   UNL     1      -5.303  -4.985 -34.765  1.00  0.00     0.048 C 
HETATM   22  C   UNL     1      -6.751  -2.933 -34.785  1.00  0.00     0.007 A 
HETATM   23  C   UNL     1      -6.958  -1.573 -34.548  1.00  0.00     0.007 A 
ENDBRANCH  16  17
ENDBRANCH  15  16
ENDBRANCH  12  15
ENDBRANCH   1  11
BRANCH   4  24
HETATM   24  O   UNL     1      -1.756   8.337 -32.504  1.00  0.00    -0.344 OA
HETATM   25  H   UNL     1      -1.326   8.929 -31.848  1.00  0.00     0.219 HD
ENDBRANCH   4  24
BRANCH   5  26
HETATM   26  C   UNL     1       0.088   7.839 -30.300  1.00  0.00     0.084 C 
BRANCH  26  27
HETATM   27  C   UNL     1      -0.530   8.360 -29.011  1.00  0.00    -0.047 A 
HETATM   28  C   UNL     1       0.226   8.686 -27.864  1.00  0.00    -0.055 A 
HETATM   29  C   UNL     1       1.720   8.526 -27.799  1.00  0.00     0.049 C 
HETATM   30  C   UNL     1      -0.431   9.209 -26.737  1.00  0.00     0.008 A 
HETATM   31  C   UNL     1      -1.816   9.372 -26.719  1.00  0.00     0.007 A 
HETATM   32  C   UNL     1      -2.580   9.022 -27.831  1.00  0.00    -0.061 A 
HETATM   33  C   UNL     1      -4.074   9.150 -27.805  1.00  0.00     0.048 C 
HETATM   34  C   UNL     1      -1.933   8.502 -28.959  1.00  0.00     0.014 A 
ENDBRANCH  26  27
ENDBRANCH   5  26
TORSDOF 7
ENDMDL
MODEL 7
REMARK VINA RESULT:      -9.5      2.246      9.296
REMARK  7 active torsions:
REMARK  status: ('A' for Active; 'I' for Inactive)
REMARK    1  A    between atoms: C_5  and  C_6 
REMARK    2  A    between atoms: C_6  and  C_7 
REMARK    3  A    between atoms: C_7  and  N_8 
REMARK       I    between atoms: N_8  and  C_9 
REMARK    4  A    between atoms: C_9  and  C_10 
REMARK    5  A    between atoms: C_13  and  O_14 
REMARK    6  A    between atoms: C_15  and  C_16 
REMARK    7  A    between atoms: C_16  and  C_17 
ROOT
HETATM    1  C   UNL     1      -5.287   5.730 -31.158  1.00  0.00     0.099 A 
HETATM    2  C   UNL     1      -5.099   4.365 -31.046  1.00  0.00     0.171 A 
HETATM    3  N   UNL     1      -6.308   3.841 -30.612  1.00  0.00    -0.192 N 
HETATM    4  C   UNL     1      -6.502   2.458 -30.508  1.00  0.00     0.174 C 
HETATM    5  C   UNL     1      -5.506   1.604 -30.820  1.00  0.00     0.023 C 
HETATM    6  C   UNL     1      -4.189   2.278 -31.144  1.00  0.00     0.044 C 
HETATM    7  C   UNL     1      -2.945   1.430 -31.302  1.00  0.00     0.071 C 
HETATM    8  N   UNL     1      -4.017   3.565 -31.282  1.00  0.00    -0.233 NA
HETATM    9  N   UNL     1      -7.237   4.804 -30.378  1.00  0.00    -0.175 NA
HETATM   10  C   UNL     1      -6.613   5.935 -30.718  1.00  0.00     0.160 A 
ENDROOT
BRANCH   1  11
HETATM   11  C   UNL     1      -4.353   6.732 -31.634  1.00  0.00     0.257 C 
HETATM   12  N   UNL     1      -3.372   6.252 -32.470  1.00  0.00    -0.356 N 
HETATM   13  H   UNL     1      -3.408   5.261 -32.705  1.00  0.00     0.162 HD
HETATM   14  O   UNL     1      -4.465   7.915 -31.330  1.00  0.00    -0.267 OA
BRANCH  12  15
HETATM   15  C   UNL     1      -2.466   7.133 -33.173  1.00  0.00     0.127 C 
BRANCH  15  16
HETATM   16  C   UNL     1      -1.017   6.665 -33.057  1.00  0.00     0.058 C 
BRANCH  16  17
HETATM   17  C   UNL     1      -0.561   6.593 -31.623  1.00  0.00    -0.057 A 
HETATM   18  C   UNL     1      -0.807   7.654 -30.746  1.00  0.00     0.007 A 
HETATM   19  C   UNL     1      -0.364   7.599 -29.422  1.00  0.00     0.007 A 
HETATM   20  C   UNL     1       0.343   6.485 -28.957  1.00  0.00    -0.062 A 
HETATM   21  C   UNL     1       0.812   6.409 -27.535  1.00  0.00     0.048 C 
HETATM   22  C   UNL     1       0.587   5.421 -29.833  1.00  0.00     0.007 A 
HETATM   23  C   UNL     1       0.143   5.476 -31.156  1.00  0.00     0.007 A 
ENDBRANCH  16  17
ENDBRANCH  15  16
ENDBRANCH  12  15
ENDBRANCH   1  11
BRANCH   4  24
HETATM   24  O   UNL     1      -7.764   2.008 -30.141  1.00  0.00    -0.344 OA
HETATM   25  H   UNL     1      -7.878   1.146 -30.599  1.00  0.00     0.219 HD
ENDBRANCH   4  24
BRANCH   5  26
HETATM   26  C   UNL     1      -5.673   0.107 -30.867  1.00  0.00     0.084 C 
BRANCH  26  27
HETATM   27  C   UNL     1      -5.757  -0.490 -32.263  1.00  0.00    -0.047 A 
HETATM   28  C   UNL     1      -4.859  -1.467 -32.745  1.00  0.00    -0.055 A 
HETATM   29  C   UNL     1      -3.713  -1.996 -31.927  1.00  0.00     0.049 C 
HETATM   30  C   UNL     1      -5.049  -1.995 -34.033  1.00  0.00     0.008 A 
HETATM   31  C   UNL     1      -6.081  -1.543 -34.855  1.00  0.00     0.007 A 
HETATM   32  C   UNL     1      -6.955  -0.555 -34.407  1.00  0.00    -0.061 A 
HETATM   33  C   UNL     1      -8.039  -0.029 -35.299  1.00  0.00     0.048 C 
HETATM   34  C   UNL     1      -6.774  -0.023 -33.124  1.00  0.00     0.014 A 
ENDBRANCH  26  27
ENDBRANCH   5  26
TORSDOF 7
ENDMDL
MODEL 8
REMARK VINA RESULT:      -9.5      1.570      2.361
REMARK  7 active torsions:
REMARK  status: ('A' for Active; 'I' for Inactive)
REMARK    1  A    between atoms: C_5  and  C_6 
REMARK    2  A    between atoms: C_6  and  C_7 
REMARK    3  A    between atoms: C_7  and  N_8 
REMARK       I    between atoms: N_8  and  C_9 
REMARK    4  A    between atoms: C_9  and  C_10 
REMARK    5  A    between atoms: C_13  and  O_14 
REMARK    6  A    between atoms: C_15  and  C_16 
REMARK    7  A    between atoms: C_16  and  C_17 
ROOT
HETATM    1  C   UNL     1      -5.062   4.854 -33.836  1.00  0.00     0.099 A 
HETATM    2  C   UNL     1      -4.379   5.622 -32.910  1.00  0.00     0.171 A 
HETATM    3  N   UNL     1      -3.330   6.215 -33.596  1.00  0.00    -0.192 N 
HETATM    4  C   UNL     1      -2.503   7.160 -32.978  1.00  0.00     0.174 C 
HETATM    5  C   UNL     1      -2.706   7.507 -31.690  1.00  0.00     0.023 C 
HETATM    6  C   UNL     1      -3.783   6.701 -30.993  1.00  0.00     0.044 C 
HETATM    7  C   UNL     1      -3.961   6.845 -29.498  1.00  0.00     0.071 C 
HETATM    8  N   UNL     1      -4.583   5.850 -31.579  1.00  0.00    -0.233 NA
HETATM    9  N   UNL     1      -3.265   5.815 -34.893  1.00  0.00    -0.175 NA
HETATM   10  C   UNL     1      -4.318   5.004 -35.026  1.00  0.00     0.160 A 
ENDROOT
BRANCH   1  11
HETATM   11  C   UNL     1      -6.274   4.082 -33.648  1.00  0.00     0.257 C 
HETATM   12  N   UNL     1      -6.179   3.084 -32.705  1.00  0.00    -0.356 N 
HETATM   13  H   UNL     1      -5.294   3.001 -32.207  1.00  0.00     0.162 HD
HETATM   14  O   UNL     1      -7.303   4.334 -34.266  1.00  0.00    -0.267 OA
BRANCH  12  15
HETATM   15  C   UNL     1      -7.334   2.334 -32.265  1.00  0.00     0.127 C 
BRANCH  15  16
HETATM   16  C   UNL     1      -6.932   1.051 -31.541  1.00  0.00     0.058 C 
BRANCH  16  17
HETATM   17  C   UNL     1      -6.537  -0.040 -32.502  1.00  0.00    -0.057 A 
HETATM   18  C   UNL     1      -7.457  -0.532 -33.434  1.00  0.00     0.007 A 
HETATM   19  C   UNL     1      -7.099  -1.560 -34.310  1.00  0.00     0.007 A 
HETATM   20  C   UNL     1      -5.817  -2.119 -34.262  1.00  0.00    -0.062 A 
HETATM   21  C   UNL     1      -5.417  -3.213 -35.206  1.00  0.00     0.048 C 
HETATM   22  C   UNL     1      -4.895  -1.625 -33.332  1.00  0.00     0.007 A 
HETATM   23  C   UNL     1      -5.253  -0.597 -32.456  1.00  0.00     0.007 A 
ENDBRANCH  16  17
ENDBRANCH  15  16
ENDBRANCH  12  15
ENDBRANCH   1  11
BRANCH   4  24
HETATM   24  O   UNL     1      -1.521   7.767 -33.752  1.00  0.00    -0.344 OA
HETATM   25  H   UNL     1      -1.727   8.727 -33.731  1.00  0.00     0.219 HD
ENDBRANCH   4  24
BRANCH   5  26
HETATM   26  C   UNL     1      -1.953   8.609 -30.993  1.00  0.00     0.084 C 
BRANCH  26  27
HETATM   27  C   UNL     1      -1.132   8.169 -29.790  1.00  0.00    -0.047 A 
HETATM   28  C   UNL     1      -0.022   7.302 -29.882  1.00  0.00    -0.055 A 
HETATM   29  C   UNL     1       0.444   6.709 -31.184  1.00  0.00     0.049 C 
HETATM   30  C   UNL     1       0.704   6.993 -28.719  1.00  0.00     0.008 A 
HETATM   31  C   UNL     1       0.323   7.495 -27.475  1.00  0.00     0.007 A 
HETATM   32  C   UNL     1      -0.791   8.323 -27.362  1.00  0.00    -0.061 A 
HETATM   33  C   UNL     1      -1.236   8.830 -26.022  1.00  0.00     0.048 C 
HETATM   34  C   UNL     1      -1.520   8.638 -28.516  1.00  0.00     0.014 A 
ENDBRANCH  26  27
ENDBRANCH   5  26
TORSDOF 7
ENDMDL
MODEL 9
REMARK VINA RESULT:      -9.4      2.772     10.161
REMARK  7 active torsions:
REMARK  status: ('A' for Active; 'I' for Inactive)
REMARK    1  A    between atoms: C_5  and  C_6 
REMARK    2  A    between atoms: C_6  and  C_7 
REMARK    3  A    between atoms: C_7  and  N_8 
REMARK       I    between atoms: N_8  and  C_9 
REMARK    4  A    between atoms: C_9  and  C_10 
REMARK    5  A    between atoms: C_13  and  O_14 
REMARK    6  A    between atoms: C_15  and  C_16 
REMARK    7  A    between atoms: C_16  and  C_17 
ROOT
HETATM    1  C   UNL     1      -5.171   5.649 -30.106  1.00  0.00     0.099 A 
HETATM    2  C   UNL     1      -5.174   4.285 -30.338  1.00  0.00     0.171 A 
HETATM    3  N   UNL     1      -6.460   3.848 -30.059  1.00  0.00    -0.192 N 
HETATM    4  C   UNL     1      -6.845   2.524 -30.306  1.00  0.00     0.174 C 
HETATM    5  C   UNL     1      -5.961   1.641 -30.814  1.00  0.00     0.023 C 
HETATM    6  C   UNL     1      -4.551   2.180 -30.949  1.00  0.00     0.044 C 
HETATM    7  C   UNL     1      -3.428   1.230 -31.304  1.00  0.00     0.071 C 
HETATM    8  N   UNL     1      -4.201   3.424 -30.759  1.00  0.00    -0.233 NA
HETATM    9  N   UNL     1      -7.260   4.845 -29.598  1.00  0.00    -0.175 NA
HETATM   10  C   UNL     1      -6.474   5.924 -29.639  1.00  0.00     0.160 A 
ENDROOT
BRANCH   1  11
HETATM   11  C   UNL     1      -4.091   6.595 -30.308  1.00  0.00     0.257 C 
HETATM   12  N   UNL     1      -2.832   6.082 -30.097  1.00  0.00    -0.356 N 
HETATM   13  H   UNL     1      -2.768   5.094 -29.857  1.00  0.00     0.162 HD
HETATM   14  O   UNL     1      -4.300   7.747 -30.670  1.00  0.00    -0.267 OA
BRANCH  12  15
HETATM   15  C   UNL     1      -1.636   6.829 -30.420  1.00  0.00     0.127 C 
BRANCH  15  16
HETATM   16  C   UNL     1      -0.374   6.106 -29.953  1.00  0.00     0.058 C 
BRANCH  16  17
HETATM   17  C   UNL     1       0.249   6.776 -28.757  1.00  0.00    -0.057 A 
HETATM   18  C   UNL     1       0.050   6.261 -27.472  1.00  0.00     0.007 A 
HETATM   19  C   UNL     1       0.608   6.894 -26.358  1.00  0.00     0.007 A 
HETATM   20  C   UNL     1       1.366   8.060 -26.511  1.00  0.00    -0.062 A 
HETATM   21  C   UNL     1       1.981   8.740 -25.325  1.00  0.00     0.048 C 
HETATM   22  C   UNL     1       1.568   8.575 -27.797  1.00  0.00     0.007 A 
HETATM   23  C   UNL     1       1.011   7.941 -28.910  1.00  0.00     0.007 A 
ENDBRANCH  16  17
ENDBRANCH  15  16
ENDBRANCH  12  15
ENDBRANCH   1  11
BRANCH   4  24
HETATM   24  O   UNL     1      -8.170   2.181 -30.073  1.00  0.00    -0.344 OA
HETATM   25  H   UNL     1      -8.158   1.222 -29.858  1.00  0.00     0.219 HD
ENDBRANCH   4  24
BRANCH   5  26
HETATM   26  C   UNL     1      -6.327   0.242 -31.235  1.00  0.00     0.084 C 
BRANCH  26  27
HETATM   27  C   UNL     1      -6.834   0.109 -32.663  1.00  0.00    -0.047 A 
HETATM   28  C   UNL     1      -6.138  -0.593 -33.672  1.00  0.00    -0.055 A 
HETATM   29  C   UNL     1      -4.811  -1.260 -33.435  1.00  0.00     0.049 C 
HETATM   30  C   UNL     1      -6.712  -0.703 -34.949  1.00  0.00     0.008 A 
HETATM   31  C   UNL     1      -7.934  -0.099 -35.247  1.00  0.00     0.007 A 
HETATM   32  C   UNL     1      -8.616   0.627 -34.273  1.00  0.00    -0.061 A 
HETATM   33  C   UNL     1      -9.907   1.318 -34.595  1.00  0.00     0.048 C 
HETATM   34  C   UNL     1      -8.052   0.741 -32.996  1.00  0.00     0.014 A 
ENDBRANCH  26  27
ENDBRANCH   5  26
TORSDOF 7
ENDMDL
MODEL 10
REMARK VINA RESULT:      -9.4      2.173      2.696
REMARK  7 active torsions:
REMARK  status: ('A' for Active; 'I' for Inactive)
REMARK    1  A    between atoms: C_5  and  C_6 
REMARK    2  A    between atoms: C_6  and  C_7 
REMARK    3  A    between atoms: C_7  and  N_8 
REMARK       I    between atoms: N_8  and  C_9 
REMARK    4  A    between atoms: C_9  and  C_10 
REMARK    5  A    between atoms: C_13  and  O_14 
REMARK    6  A    between atoms: C_15  and  C_16 
REMARK    7  A    between atoms: C_16  and  C_17 
ROOT
HETATM    1  C   UNL     1      -6.531   4.605 -31.152  1.00  0.00     0.099 A 
HETATM    2  C   UNL     1      -5.319   5.170 -31.504  1.00  0.00     0.171 A 
HETATM    3  N   UNL     1      -5.464   6.539 -31.330  1.00  0.00    -0.192 N 
HETATM    4  C   UNL     1      -4.378   7.408 -31.485  1.00  0.00     0.174 C 
HETATM    5  C   UNL     1      -3.162   6.928 -31.818  1.00  0.00     0.023 C 
HETATM    6  C   UNL     1      -3.142   5.444 -32.122  1.00  0.00     0.044 C 
HETATM    7  C   UNL     1      -1.892   4.827 -32.710  1.00  0.00     0.071 C 
HETATM    8  N   UNL     1      -4.143   4.626 -31.938  1.00  0.00    -0.233 NA
HETATM    9  N   UNL     1      -6.723   6.884 -30.952  1.00  0.00    -0.175 NA
HETATM   10  C   UNL     1      -7.352   5.710 -30.840  1.00  0.00     0.160 A 
ENDROOT
BRANCH   1  11
HETATM   11  C   UNL     1      -6.887   3.201 -31.094  1.00  0.00     0.257 C 
HETATM   12  N   UNL     1      -6.532   2.472 -32.206  1.00  0.00    -0.356 N 
HETATM   13  H   UNL     1      -6.028   2.965 -32.942  1.00  0.00     0.162 HD
HETATM   14  O   UNL     1      -7.432   2.712 -30.111  1.00  0.00    -0.267 OA
BRANCH  12  15
HETATM   15  C   UNL     1      -6.652   1.032 -32.248  1.00  0.00     0.127 C 
BRANCH  15  16
HETATM   16  C   UNL     1      -5.338   0.367 -32.652  1.00  0.00     0.058 C 
BRANCH  16  17
HETATM   17  C   UNL     1      -5.564  -0.917 -33.408  1.00  0.00    -0.057 A 
HETATM   18  C   UNL     1      -6.857  -1.310 -33.767  1.00  0.00     0.007 A 
HETATM   19  C   UNL     1      -7.070  -2.512 -34.447  1.00  0.00     0.007 A 
HETATM   20  C   UNL     1      -5.994  -3.346 -34.769  1.00  0.00    -0.062 A 
HETATM   21  C   UNL     1      -6.209  -4.631 -35.511  1.00  0.00     0.048 C 
HETATM   22  C   UNL     1      -4.699  -2.951 -34.413  1.00  0.00     0.007 A 
HETATM   23  C   UNL     1      -4.486  -1.750 -33.734  1.00  0.00     0.007 A 
ENDBRANCH  16  17
ENDBRANCH  15  16
ENDBRANCH  12  15
ENDBRANCH   1  11
BRANCH   4  24
HETATM   24  O   UNL     1      -4.584   8.756 -31.220  1.00  0.00    -0.344 OA
HETATM   25  H   UNL     1      -3.689   9.161 -31.208  1.00  0.00     0.219 HD
ENDBRANCH   4  24
BRANCH   5  26
HETATM   26  C   UNL     1      -1.916   7.773 -31.870  1.00  0.00     0.084 C 
BRANCH  26  27
HETATM   27  C   UNL     1      -1.189   7.935 -30.544  1.00  0.00    -0.047 A 
HETATM   28  C   UNL     1      -0.009   7.235 -30.214  1.00  0.00    -0.055 A 
HETATM   29  C   UNL     1       0.634   6.238 -31.139  1.00  0.00     0.049 C 
HETATM   30  C   UNL     1       0.617   7.490 -28.983  1.00  0.00     0.008 A 
HETATM   31  C   UNL     1       0.073   8.391 -28.068  1.00  0.00     0.007 A 
HETATM   32  C   UNL     1      -1.111   9.064 -28.363  1.00  0.00    -0.061 A 
HETATM   33  C   UNL     1      -1.730   9.999 -27.368  1.00  0.00     0.048 C 
HETATM   34  C   UNL     1      -1.742   8.817 -29.589  1.00  0.00     0.014 A 
ENDBRANCH  26  27
ENDBRANCH   5  26
TORSDOF 7
ENDMDL
