MODEL 1
REMARK VINA RESULT:      -9.3      0.000      0.000
REMARK  6 active torsions:
REMARK  status: ('A' for Active; 'I' for Inactive)
REMARK    1  A    between atoms: C_2  and  N_3 
REMARK    2  A    between atoms: C_2  and  C_16 
REMARK    3  A    between atoms: N_3  and  C_5 
REMARK    4  A    between atoms: C_5  and  C_6 
REMARK       I    between atoms: C_16  and  N_17 
REMARK    5  A    between atoms: N_17  and  C_18 
REMARK    6  A    between atoms: C_19  and  C_20 
ROOT
HETATM    1  C   UNL     1      -7.974   0.154 -34.470  1.00  0.00     0.253 C 
HETATM    2  N   UNL     1      -7.626  -0.961 -33.739  1.00  0.00    -0.325 N 
HETATM    3  O   UNL     1      -7.329   0.669 -35.381  1.00  0.00    -0.271 OA
HETATM    4  H   UNL     1      -8.152  -1.165 -32.894  1.00  0.00     0.169 HD
ENDROOT
BRANCH   1   5
HETATM    5  C   UNL     1      -9.327   0.780 -34.063  1.00  0.00     0.275 C 
HETATM    6  C   UNL     1      -9.782   0.135 -32.753  1.00  0.00     0.050 C 
BRANCH   5   7
HETATM    7  N   UNL     1      -9.208   2.319 -33.892  1.00  0.00    -0.059 N 
HETATM    8  H   UNL     1      -8.402   2.574 -34.483  1.00  0.00     0.280 HD
HETATM    9  C   UNL     1      -8.911   2.768 -32.494  1.00  0.00     0.271 C 
BRANCH   7  10
HETATM   10  C   UNL     1     -10.356   3.107 -34.521  1.00  0.00     0.274 C 
BRANCH  10  11
HETATM   11  C   UNL     1     -11.743   2.634 -34.181  1.00  0.00    -0.030 A 
HETATM   12  C   UNL     1     -12.394   3.090 -33.022  1.00  0.00     0.048 A 
HETATM   13  C   UNL     1     -13.666   2.623 -32.762  1.00  0.00     0.105 A 
HETATM   14  C   UNL     1     -14.300   1.737 -33.595  1.00  0.00     0.105 A 
HETATM   15  O   UNL     1     -14.429   2.967 -31.691  1.00  0.00    -0.323 OA
HETATM   16  O   UNL     1     -15.544   1.411 -33.155  1.00  0.00    -0.323 OA
HETATM   17  C   UNL     1     -13.702   1.269 -34.743  1.00  0.00     0.040 A 
HETATM   18  C   UNL     1     -15.640   2.226 -31.968  1.00  0.00     0.352 A 
HETATM   19  C   UNL     1     -12.413   1.726 -35.038  1.00  0.00     0.012 A 
ENDBRANCH  10  11
ENDBRANCH   7  10
ENDBRANCH   5   7
ENDBRANCH   1   5
BRANCH   2  20
HETATM   20  C   UNL     1      -6.533  -1.839 -33.967  1.00  0.00     0.045 A 
HETATM   21  C   UNL     1      -5.317  -1.593 -33.279  1.00  0.00     0.001 A 
HETATM   22  C   UNL     1      -4.236  -2.474 -33.462  1.00  0.00     0.014 A 
HETATM   23  C   UNL     1      -4.348  -3.578 -34.305  1.00  0.00     0.001 A 
HETATM   24  C   UNL     1      -5.540  -3.811 -34.981  1.00  0.00     0.002 A 
HETATM   25  C   UNL     1      -6.626  -2.948 -34.814  1.00  0.00     0.030 A 
BRANCH  21  26
HETATM   26  C   UNL     1      -5.128  -0.419 -32.412  1.00  0.00    -0.024 A 
HETATM   27  C   UNL     1      -5.829  -0.292 -31.204  1.00  0.00     0.012 A 
HETATM   28  C   UNL     1      -5.666   0.841 -30.406  1.00  0.00     0.001 A 
HETATM   29  C   UNL     1      -4.798   1.857 -30.801  1.00  0.00     0.000 A 
HETATM   30  C   UNL     1      -4.088   1.740 -31.995  1.00  0.00     0.001 A 
HETATM   31  C   UNL     1      -4.253   0.609 -32.796  1.00  0.00     0.012 A 
ENDBRANCH  21  26
ENDBRANCH   2  20
TORSDOF 6
ENDMDL
MODEL 2
REMARK VINA RESULT:      -9.1      3.113      5.557
REMARK  6 active torsions:
REMARK  status: ('A' for Active; 'I' for Inactive)
REMARK    1  A    between atoms: C_2  and  N_3 
REMARK    2  A    between atoms: C_2  and  C_16 
REMARK    3  A    between atoms: N_3  and  C_5 
REMARK    4  A    between atoms: C_5  and  C_6 
REMARK       I    between atoms: C_16  and  N_17 
REMARK    5  A    between atoms: N_17  and  C_18 
REMARK    6  A    between atoms: C_19  and  C_20 
ROOT
HETATM    1  C   UNL     1      -7.831   0.499 -34.227  1.00  0.00     0.253 C 
HETATM    2  N   UNL     1      -7.480  -0.618 -33.500  1.00  0.00    -0.325 N 
HETATM    3  O   UNL     1      -7.290   0.912 -35.251  1.00  0.00    -0.271 OA
HETATM    4  H   UNL     1      -7.885  -0.737 -32.576  1.00  0.00     0.169 HD
ENDROOT
BRANCH   1   5
HETATM    5  C   UNL     1      -9.037   1.275 -33.652  1.00  0.00     0.275 C 
HETATM    6  C   UNL     1     -10.034   0.264 -33.083  1.00  0.00     0.050 C 
BRANCH   5   7
HETATM    7  N   UNL     1      -8.593   2.272 -32.548  1.00  0.00    -0.059 N 
HETATM    8  H   UNL     1      -7.624   1.992 -32.335  1.00  0.00     0.280 HD
HETATM    9  C   UNL     1      -9.384   2.188 -31.279  1.00  0.00     0.271 C 
BRANCH   7  10
HETATM   10  C   UNL     1      -8.433   3.711 -33.035  1.00  0.00     0.274 C 
BRANCH  10  11
HETATM   11  C   UNL     1      -7.031   4.259 -33.018  1.00  0.00    -0.030 A 
HETATM   12  C   UNL     1      -6.290   4.376 -34.206  1.00  0.00     0.048 A 
HETATM   13  C   UNL     1      -5.011   4.887 -34.129  1.00  0.00     0.105 A 
HETATM   14  C   UNL     1      -4.453   5.278 -32.938  1.00  0.00     0.105 A 
HETATM   15  O   UNL     1      -4.169   5.066 -35.181  1.00  0.00    -0.323 OA
HETATM   16  O   UNL     1      -3.190   5.753 -33.088  1.00  0.00    -0.323 OA
HETATM   17  C   UNL     1      -5.146   5.186 -31.752  1.00  0.00     0.040 A 
HETATM   18  C   UNL     1      -3.027   5.657 -34.520  1.00  0.00     0.352 A 
HETATM   19  C   UNL     1      -6.447   4.675 -31.795  1.00  0.00     0.012 A 
ENDBRANCH  10  11
ENDBRANCH   7  10
ENDBRANCH   5   7
ENDBRANCH   1   5
BRANCH   2  20
HETATM   20  C   UNL     1      -6.525  -1.611 -33.846  1.00  0.00     0.045 A 
HETATM   21  C   UNL     1      -5.216  -1.500 -33.312  1.00  0.00     0.001 A 
HETATM   22  C   UNL     1      -4.268  -2.495 -33.611  1.00  0.00     0.014 A 
HETATM   23  C   UNL     1      -4.600  -3.579 -34.421  1.00  0.00     0.001 A 
HETATM   24  C   UNL     1      -5.883  -3.680 -34.947  1.00  0.00     0.002 A 
HETATM   25  C   UNL     1      -6.841  -2.703 -34.663  1.00  0.00     0.030 A 
BRANCH  21  26
HETATM   26  C   UNL     1      -4.797  -0.356 -32.489  1.00  0.00    -0.024 A 
HETATM   27  C   UNL     1      -5.378  -0.115 -31.234  1.00  0.00     0.012 A 
HETATM   28  C   UNL     1      -4.996   0.993 -30.477  1.00  0.00     0.001 A 
HETATM   29  C   UNL     1      -4.026   1.870 -30.959  1.00  0.00     0.000 A 
HETATM   30  C   UNL     1      -3.434   1.639 -32.199  1.00  0.00     0.001 A 
HETATM   31  C   UNL     1      -3.818   0.533 -32.960  1.00  0.00     0.012 A 
ENDBRANCH  21  26
ENDBRANCH   2  20
TORSDOF 6
ENDMDL
MODEL 3
REMARK VINA RESULT:      -8.9      3.741      7.470
REMARK  6 active torsions:
REMARK  status: ('A' for Active; 'I' for Inactive)
REMARK    1  A    between atoms: C_2  and  N_3 
REMARK    2  A    between atoms: C_2  and  C_16 
REMARK    3  A    between atoms: N_3  and  C_5 
REMARK    4  A    between atoms: C_5  and  C_6 
REMARK       I    between atoms: C_16  and  N_17 
REMARK    5  A    between atoms: N_17  and  C_18 
REMARK    6  A    between atoms: C_19  and  C_20 
ROOT
HETATM    1  C   UNL     1      -5.380   0.566 -31.507  1.00  0.00     0.253 C 
HETATM    2  N   UNL     1      -5.079   0.249 -32.813  1.00  0.00    -0.325 N 
HETATM    3  O   UNL     1      -6.043  -0.106 -30.718  1.00  0.00    -0.271 OA
HETATM    4  H   UNL     1      -4.689   0.975 -33.407  1.00  0.00     0.169 HD
ENDROOT
BRANCH   1   5
HETATM    5  C   UNL     1      -4.799   1.918 -31.034  1.00  0.00     0.275 C 
HETATM    6  C   UNL     1      -3.333   1.990 -31.463  1.00  0.00     0.050 C 
BRANCH   5   7
HETATM    7  N   UNL     1      -5.593   3.113 -31.629  1.00  0.00    -0.059 N 
HETATM    8  H   UNL     1      -5.242   3.930 -31.107  1.00  0.00     0.280 HD
HETATM    9  C   UNL     1      -7.075   3.039 -31.423  1.00  0.00     0.271 C 
BRANCH   7  10
HETATM   10  C   UNL     1      -5.226   3.448 -33.074  1.00  0.00     0.274 C 
BRANCH  10  11
HETATM   11  C   UNL     1      -4.270   4.595 -33.261  1.00  0.00    -0.030 A 
HETATM   12  C   UNL     1      -4.005   5.489 -32.209  1.00  0.00     0.048 A 
HETATM   13  C   UNL     1      -3.119   6.521 -32.438  1.00  0.00     0.105 A 
HETATM   14  C   UNL     1      -2.499   6.693 -33.650  1.00  0.00     0.105 A 
HETATM   15  O   UNL     1      -2.755   7.464 -31.529  1.00  0.00    -0.323 OA
HETATM   16  O   UNL     1      -1.665   7.765 -33.658  1.00  0.00    -0.323 OA
HETATM   17  C   UNL     1      -2.726   5.838 -34.705  1.00  0.00     0.040 A 
HETATM   18  C   UNL     1      -1.797   8.229 -32.297  1.00  0.00     0.352 A 
HETATM   19  C   UNL     1      -3.616   4.779 -34.505  1.00  0.00     0.012 A 
ENDBRANCH  10  11
ENDBRANCH   7  10
ENDBRANCH   5   7
ENDBRANCH   1   5
BRANCH   2  20
HETATM   20  C   UNL     1      -5.334  -0.975 -33.487  1.00  0.00     0.045 A 
HETATM   21  C   UNL     1      -6.619  -1.175 -34.055  1.00  0.00     0.001 A 
HETATM   22  C   UNL     1      -6.878  -2.364 -34.761  1.00  0.00     0.014 A 
HETATM   23  C   UNL     1      -5.893  -3.339 -34.905  1.00  0.00     0.001 A 
HETATM   24  C   UNL     1      -4.638  -3.141 -34.342  1.00  0.00     0.002 A 
HETATM   25  C   UNL     1      -4.359  -1.967 -33.637  1.00  0.00     0.030 A 
BRANCH  21  26
HETATM   26  C   UNL     1      -7.709  -0.201 -33.896  1.00  0.00    -0.024 A 
HETATM   27  C   UNL     1      -7.765   0.959 -34.684  1.00  0.00     0.012 A 
HETATM   28  C   UNL     1      -8.786   1.892 -34.501  1.00  0.00     0.001 A 
HETATM   29  C   UNL     1      -9.766   1.677 -33.533  1.00  0.00     0.000 A 
HETATM   30  C   UNL     1      -9.728   0.526 -32.749  1.00  0.00     0.001 A 
HETATM   31  C   UNL     1      -8.705  -0.407 -32.928  1.00  0.00     0.012 A 
ENDBRANCH  21  26
ENDBRANCH   2  20
TORSDOF 6
ENDMDL
MODEL 4
REMARK VINA RESULT:      -8.8      3.085      5.028
REMARK  6 active torsions:
REMARK  status: ('A' for Active; 'I' for Inactive)
REMARK    1  A    between atoms: C_2  and  N_3 
REMARK    2  A    between atoms: C_2  and  C_16 
REMARK    3  A    between atoms: N_3  and  C_5 
REMARK    4  A    between atoms: C_5  and  C_6 
REMARK       I    between atoms: C_16  and  N_17 
REMARK    5  A    between atoms: N_17  and  C_18 
REMARK    6  A    between atoms: C_19  and  C_20 
ROOT
HETATM    1  C   UNL     1      -7.951  -0.020 -34.553  1.00  0.00     0.253 C 
HETATM    2  N   UNL     1      -7.496  -1.016 -33.717  1.00  0.00    -0.325 N 
HETATM    3  O   UNL     1      -7.504   0.277 -35.659  1.00  0.00    -0.271 OA
HETATM    4  H   UNL     1      -7.830  -1.029 -32.758  1.00  0.00     0.169 HD
ENDROOT
BRANCH   1   5
HETATM    5  C   UNL     1      -9.152   0.777 -33.993  1.00  0.00     0.275 C 
HETATM    6  C   UNL     1      -9.677   0.049 -32.754  1.00  0.00     0.050 C 
BRANCH   5   7
HETATM    7  N   UNL     1      -8.746   2.231 -33.632  1.00  0.00    -0.059 N 
HETATM    8  H   UNL     1      -8.864   2.275 -32.608  1.00  0.00     0.280 HD
HETATM    9  C   UNL     1      -9.615   3.288 -34.241  1.00  0.00     0.271 C 
BRANCH   7  10
HETATM   10  C   UNL     1      -7.259   2.528 -33.817  1.00  0.00     0.274 C 
BRANCH  10  11
HETATM   11  C   UNL     1      -6.629   3.407 -32.770  1.00  0.00    -0.030 A 
HETATM   12  C   UNL     1      -7.153   3.463 -31.468  1.00  0.00     0.048 A 
HETATM   13  C   UNL     1      -6.533   4.286 -30.550  1.00  0.00     0.105 A 
HETATM   14  C   UNL     1      -5.433   5.039 -30.874  1.00  0.00     0.105 A 
HETATM   15  O   UNL     1      -6.912   4.450 -29.255  1.00  0.00    -0.323 OA
HETATM   16  O   UNL     1      -4.979   5.773 -29.825  1.00  0.00    -0.323 OA
HETATM   17  C   UNL     1      -4.884   5.010 -32.136  1.00  0.00     0.040 A 
HETATM   18  C   UNL     1      -5.895   5.365 -28.786  1.00  0.00     0.352 A 
HETATM   19  C   UNL     1      -5.486   4.183 -33.090  1.00  0.00     0.012 A 
ENDBRANCH  10  11
ENDBRANCH   7  10
ENDBRANCH   5   7
ENDBRANCH   1   5
BRANCH   2  20
HETATM   20  C   UNL     1      -6.520  -2.007 -34.004  1.00  0.00     0.045 A 
HETATM   21  C   UNL     1      -5.236  -1.877 -33.415  1.00  0.00     0.001 A 
HETATM   22  C   UNL     1      -4.269  -2.870 -33.655  1.00  0.00     0.014 A 
HETATM   23  C   UNL     1      -4.557  -3.970 -34.460  1.00  0.00     0.001 A 
HETATM   24  C   UNL     1      -5.815  -4.089 -35.040  1.00  0.00     0.002 A 
HETATM   25  C   UNL     1      -6.791  -3.115 -34.815  1.00  0.00     0.030 A 
BRANCH  21  26
HETATM   26  C   UNL     1      -4.863  -0.715 -32.594  1.00  0.00    -0.024 A 
HETATM   27  C   UNL     1      -3.866   0.178 -33.015  1.00  0.00     0.012 A 
HETATM   28  C   UNL     1      -3.497   1.258 -32.212  1.00  0.00     0.001 A 
HETATM   29  C   UNL     1      -4.122   1.463 -30.982  1.00  0.00     0.000 A 
HETATM   30  C   UNL     1      -5.120   0.589 -30.555  1.00  0.00     0.001 A 
HETATM   31  C   UNL     1      -5.488  -0.495 -31.356  1.00  0.00     0.012 A 
ENDBRANCH  21  26
ENDBRANCH   2  20
TORSDOF 6
ENDMDL
MODEL 5
REMARK VINA RESULT:      -8.6      2.753      4.619
REMARK  6 active torsions:
REMARK  status: ('A' for Active; 'I' for Inactive)
REMARK    1  A    between atoms: C_2  and  N_3 
REMARK    2  A    between atoms: C_2  and  C_16 
REMARK    3  A    between atoms: N_3  and  C_5 
REMARK    4  A    between atoms: C_5  and  C_6 
REMARK       I    between atoms: C_16  and  N_17 
REMARK    5  A    between atoms: N_17  and  C_18 
REMARK    6  A    between atoms: C_19  and  C_20 
ROOT
HETATM    1  C   UNL     1      -5.253   0.835 -31.734  1.00  0.00     0.253 C 
HETATM    2  N   UNL     1      -5.171   0.488 -33.065  1.00  0.00    -0.325 N 
HETATM    3  O   UNL     1      -5.602   0.112 -30.803  1.00  0.00    -0.271 OA
HETATM    4  H   UNL     1      -5.054   1.230 -33.749  1.00  0.00     0.169 HD
ENDROOT
BRANCH   1   5
HETATM    5  C   UNL     1      -4.850   2.297 -31.435  1.00  0.00     0.275 C 
HETATM    6  C   UNL     1      -3.340   2.432 -31.635  1.00  0.00     0.050 C 
BRANCH   5   7
HETATM    7  N   UNL     1      -5.606   3.291 -32.359  1.00  0.00    -0.059 N 
HETATM    8  H   UNL     1      -6.269   2.694 -32.877  1.00  0.00     0.280 HD
HETATM    9  C   UNL     1      -4.739   3.990 -33.361  1.00  0.00     0.271 C 
BRANCH   7  10
HETATM   10  C   UNL     1      -6.526   4.258 -31.616  1.00  0.00     0.274 C 
BRANCH  10  11
HETATM   11  C   UNL     1      -7.877   4.489 -32.237  1.00  0.00    -0.030 A 
HETATM   12  C   UNL     1      -7.990   4.955 -33.558  1.00  0.00     0.048 A 
HETATM   13  C   UNL     1      -9.255   5.148 -34.075  1.00  0.00     0.105 A 
HETATM   14  C   UNL     1     -10.387   4.898 -33.341  1.00  0.00     0.105 A 
HETATM   15  O   UNL     1      -9.535   5.589 -35.330  1.00  0.00    -0.323 OA
HETATM   16  O   UNL     1     -11.524   5.149 -34.041  1.00  0.00    -0.323 OA
HETATM   17  C   UNL     1     -10.322   4.435 -32.047  1.00  0.00     0.040 A 
HETATM   18  C   UNL     1     -10.981   5.548 -35.318  1.00  0.00     0.352 A 
HETATM   19  C   UNL     1      -9.054   4.226 -31.493  1.00  0.00     0.012 A 
ENDBRANCH  10  11
ENDBRANCH   7  10
ENDBRANCH   5   7
ENDBRANCH   1   5
BRANCH   2  20
HETATM   20  C   UNL     1      -5.326  -0.804 -33.633  1.00  0.00     0.045 A 
HETATM   21  C   UNL     1      -6.617  -1.196 -34.071  1.00  0.00     0.001 A 
HETATM   22  C   UNL     1      -6.783  -2.457 -34.672  1.00  0.00     0.014 A 
HETATM   23  C   UNL     1      -5.700  -3.317 -34.840  1.00  0.00     0.001 A 
HETATM   24  C   UNL     1      -4.438  -2.931 -34.404  1.00  0.00     0.002 A 
HETATM   25  C   UNL     1      -4.251  -1.683 -33.804  1.00  0.00     0.030 A 
BRANCH  21  26
HETATM   26  C   UNL     1      -7.804  -0.348 -33.878  1.00  0.00    -0.024 A 
HETATM   27  C   UNL     1      -8.660  -0.539 -32.783  1.00  0.00     0.012 A 
HETATM   28  C   UNL     1      -9.800   0.251 -32.629  1.00  0.00     0.001 A 
HETATM   29  C   UNL     1     -10.097   1.243 -33.562  1.00  0.00     0.000 A 
HETATM   30  C   UNL     1      -9.251   1.449 -34.650  1.00  0.00     0.001 A 
HETATM   31  C   UNL     1      -8.111   0.658 -34.808  1.00  0.00     0.012 A 
ENDBRANCH  21  26
ENDBRANCH   2  20
TORSDOF 6
ENDMDL
MODEL 6
REMARK VINA RESULT:      -8.5     14.972     17.950
REMARK  6 active torsions:
REMARK  status: ('A' for Active; 'I' for Inactive)
REMARK    1  A    between atoms: C_2  and  N_3 
REMARK    2  A    between atoms: C_2  and  C_16 
REMARK    3  A    between atoms: N_3  and  C_5 
REMARK    4  A    between atoms: C_5  and  C_6 
REMARK       I    between atoms: C_16  and  N_17 
REMARK    5  A    between atoms: N_17  and  C_18 
REMARK    6  A    between atoms: C_19  and  C_20 
ROOT
HETATM    1  C   UNL     1      -3.644 -12.917 -37.906  1.00  0.00     0.253 C 
HETATM    2  N   UNL     1      -4.717 -13.720 -38.229  1.00  0.00    -0.325 N 
HETATM    3  O   UNL     1      -3.519 -11.719 -38.151  1.00  0.00    -0.271 OA
HETATM    4  H   UNL     1      -4.608 -14.726 -38.138  1.00  0.00     0.169 HD
ENDROOT
BRANCH   1   5
HETATM    5  C   UNL     1      -2.508 -13.650 -37.156  1.00  0.00     0.275 C 
HETATM    6  C   UNL     1      -3.102 -14.317 -35.915  1.00  0.00     0.050 C 
BRANCH   5   7
HETATM    7  N   UNL     1      -1.826 -14.709 -38.063  1.00  0.00    -0.059 N 
HETATM    8  H   UNL     1      -2.606 -15.300 -38.388  1.00  0.00     0.280 HD
HETATM    9  C   UNL     1      -0.846 -15.594 -37.355  1.00  0.00     0.271 C 
BRANCH   7  10
HETATM   10  C   UNL     1      -1.259 -14.146 -39.365  1.00  0.00     0.274 C 
BRANCH  10  11
HETATM   11  C   UNL     1      -1.781 -14.767 -40.632  1.00  0.00    -0.030 A 
HETATM   12  C   UNL     1      -2.736 -14.102 -41.419  1.00  0.00     0.048 A 
HETATM   13  C   UNL     1      -3.177 -14.719 -42.571  1.00  0.00     0.105 A 
HETATM   14  C   UNL     1      -2.711 -15.949 -42.962  1.00  0.00     0.105 A 
HETATM   15  O   UNL     1      -4.092 -14.211 -43.438  1.00  0.00    -0.323 OA
HETATM   16  O   UNL     1      -3.272 -16.371 -44.125  1.00  0.00    -0.323 OA
HETATM   17  C   UNL     1      -1.771 -16.633 -42.225  1.00  0.00     0.040 A 
HETATM   18  C   UNL     1      -4.117 -15.246 -44.448  1.00  0.00     0.352 A 
HETATM   19  C   UNL     1      -1.300 -16.033 -41.052  1.00  0.00     0.012 A 
ENDBRANCH  10  11
ENDBRANCH   7  10
ENDBRANCH   5   7
ENDBRANCH   1   5
BRANCH   2  20
HETATM   20  C   UNL     1      -5.964 -13.319 -38.776  1.00  0.00     0.045 A 
HETATM   21  C   UNL     1      -7.129 -13.477 -37.984  1.00  0.00     0.001 A 
HETATM   22  C   UNL     1      -8.368 -13.049 -38.494  1.00  0.00     0.014 A 
HETATM   23  C   UNL     1      -8.461 -12.476 -39.760  1.00  0.00     0.001 A 
HETATM   24  C   UNL     1      -7.317 -12.328 -40.535  1.00  0.00     0.002 A 
HETATM   25  C   UNL     1      -6.075 -12.746 -40.049  1.00  0.00     0.030 A 
BRANCH  21  26
HETATM   26  C   UNL     1      -7.098 -14.117 -36.659  1.00  0.00    -0.024 A 
HETATM   27  C   UNL     1      -7.147 -15.513 -36.528  1.00  0.00     0.012 A 
HETATM   28  C   UNL     1      -7.150 -16.106 -35.265  1.00  0.00     0.001 A 
HETATM   29  C   UNL     1      -7.097 -15.314 -34.119  1.00  0.00     0.000 A 
HETATM   30  C   UNL     1      -7.038 -13.927 -34.234  1.00  0.00     0.001 A 
HETATM   31  C   UNL     1      -7.039 -13.331 -35.497  1.00  0.00     0.012 A 
ENDBRANCH  21  26
ENDBRANCH   2  20
TORSDOF 6
ENDMDL
MODEL 7
REMARK VINA RESULT:      -8.4      2.400      8.363
REMARK  6 active torsions:
REMARK  status: ('A' for Active; 'I' for Inactive)
REMARK    1  A    between atoms: C_2  and  N_3 
REMARK    2  A    between atoms: C_2  and  C_16 
REMARK    3  A    between atoms: N_3  and  C_5 
REMARK    4  A    between atoms: C_5  and  C_6 
REMARK       I    between atoms: C_16  and  N_17 
REMARK    5  A    between atoms: N_17  and  C_18 
REMARK    6  A    between atoms: C_19  and  C_20 
ROOT
HETATM    1  C   UNL     1      -9.468   0.962 -33.270  1.00  0.00     0.253 C 
HETATM    2  N   UNL     1     -10.549   1.586 -33.854  1.00  0.00    -0.325 N 
HETATM    3  O   UNL     1      -9.499   0.021 -32.478  1.00  0.00    -0.271 OA
HETATM    4  H   UNL     1     -10.393   2.467 -34.335  1.00  0.00     0.169 HD
ENDROOT
BRANCH   1   5
HETATM    5  C   UNL     1      -8.099   1.543 -33.689  1.00  0.00     0.275 C 
HETATM    6  C   UNL     1      -8.117   3.051 -33.433  1.00  0.00     0.050 C 
BRANCH   5   7
HETATM    7  N   UNL     1      -6.938   0.878 -32.901  1.00  0.00    -0.059 N 
HETATM    8  H   UNL     1      -7.347  -0.002 -32.551  1.00  0.00     0.280 HD
HETATM    9  C   UNL     1      -6.457   1.663 -31.720  1.00  0.00     0.271 C 
BRANCH   7  10
HETATM   10  C   UNL     1      -5.786   0.392 -33.780  1.00  0.00     0.274 C 
BRANCH  10  11
HETATM   11  C   UNL     1      -5.729  -1.092 -34.028  1.00  0.00    -0.030 A 
HETATM   12  C   UNL     1      -4.563  -1.823 -33.748  1.00  0.00     0.048 A 
HETATM   13  C   UNL     1      -4.569  -3.180 -33.994  1.00  0.00     0.105 A 
HETATM   14  C   UNL     1      -5.671  -3.823 -34.498  1.00  0.00     0.105 A 
HETATM   15  O   UNL     1      -3.528  -4.026 -33.776  1.00  0.00    -0.323 OA
HETATM   16  O   UNL     1      -5.464  -5.156 -34.661  1.00  0.00    -0.323 OA
HETATM   17  C   UNL     1      -6.836  -3.147 -34.781  1.00  0.00     0.040 A 
HETATM   18  C   UNL     1      -4.116  -5.290 -34.162  1.00  0.00     0.352 A 
HETATM   19  C   UNL     1      -6.864  -1.770 -34.540  1.00  0.00     0.012 A 
ENDBRANCH  10  11
ENDBRANCH   7  10
ENDBRANCH   5   7
ENDBRANCH   1   5
BRANCH   2  20
HETATM   20  C   UNL     1     -11.912   1.195 -33.791  1.00  0.00     0.045 A 
HETATM   21  C   UNL     1     -12.907   2.194 -33.945  1.00  0.00     0.001 A 
HETATM   22  C   UNL     1     -14.263   1.820 -33.926  1.00  0.00     0.014 A 
HETATM   23  C   UNL     1     -14.635   0.488 -33.757  1.00  0.00     0.001 A 
HETATM   24  C   UNL     1     -13.657  -0.487 -33.600  1.00  0.00     0.002 A 
HETATM   25  C   UNL     1     -12.304  -0.137 -33.617  1.00  0.00     0.030 A 
BRANCH  21  26
HETATM   26  C   UNL     1     -12.574   3.620 -34.082  1.00  0.00    -0.024 A 
HETATM   27  C   UNL     1     -12.311   4.413 -32.954  1.00  0.00     0.012 A 
HETATM   28  C   UNL     1     -12.029   5.773 -33.094  1.00  0.00     0.001 A 
HETATM   29  C   UNL     1     -11.999   6.355 -34.360  1.00  0.00     0.000 A 
HETATM   30  C   UNL     1     -12.249   5.578 -35.490  1.00  0.00     0.001 A 
HETATM   31  C   UNL     1     -12.535   4.219 -35.351  1.00  0.00     0.012 A 
ENDBRANCH  21  26
ENDBRANCH   2  20
TORSDOF 6
ENDMDL
MODEL 8
REMARK VINA RESULT:      -8.4      4.842      8.213
REMARK  6 active torsions:
REMARK  status: ('A' for Active; 'I' for Inactive)
REMARK    1  A    between atoms: C_2  and  N_3 
REMARK    2  A    between atoms: C_2  and  C_16 
REMARK    3  A    between atoms: N_3  and  C_5 
REMARK    4  A    between atoms: C_5  and  C_6 
REMARK       I    between atoms: C_16  and  N_17 
REMARK    5  A    between atoms: N_17  and  C_18 
REMARK    6  A    between atoms: C_19  and  C_20 
ROOT
HETATM    1  C   UNL     1      -4.705   4.600 -31.018  1.00  0.00     0.253 C 
HETATM    2  N   UNL     1      -3.383   4.368 -31.327  1.00  0.00    -0.325 N 
HETATM    3  O   UNL     1      -5.477   5.360 -31.600  1.00  0.00    -0.271 OA
HETATM    4  H   UNL     1      -2.812   3.865 -30.654  1.00  0.00     0.169 HD
ENDROOT
BRANCH   1   5
HETATM    5  C   UNL     1      -5.221   3.793 -29.804  1.00  0.00     0.275 C 
HETATM    6  C   UNL     1      -5.902   4.762 -28.835  1.00  0.00     0.050 C 
BRANCH   5   7
HETATM    7  N   UNL     1      -6.216   2.685 -30.244  1.00  0.00    -0.059 N 
HETATM    8  H   UNL     1      -6.109   2.647 -31.269  1.00  0.00     0.280 HD
HETATM    9  C   UNL     1      -7.653   2.984 -29.944  1.00  0.00     0.271 C 
BRANCH   7  10
HETATM   10  C   UNL     1      -5.815   1.277 -29.806  1.00  0.00     0.274 C 
BRANCH  10  11
HETATM   11  C   UNL     1      -5.382   0.345 -30.906  1.00  0.00    -0.030 A 
HETATM   12  C   UNL     1      -6.315  -0.168 -31.822  1.00  0.00     0.048 A 
HETATM   13  C   UNL     1      -5.860  -1.017 -32.810  1.00  0.00     0.105 A 
HETATM   14  C   UNL     1      -4.537  -1.366 -32.917  1.00  0.00     0.105 A 
HETATM   15  O   UNL     1      -6.630  -1.594 -33.770  1.00  0.00    -0.323 OA
HETATM   16  O   UNL     1      -4.306  -2.207 -33.959  1.00  0.00    -0.323 OA
HETATM   17  C   UNL     1      -3.589  -0.882 -32.045  1.00  0.00     0.040 A 
HETATM   18  C   UNL     1      -5.629  -2.317 -34.525  1.00  0.00     0.352 A 
HETATM   19  C   UNL     1      -4.017  -0.016 -31.033  1.00  0.00     0.012 A 
ENDBRANCH  10  11
ENDBRANCH   7  10
ENDBRANCH   5   7
ENDBRANCH   1   5
BRANCH   2  20
HETATM   20  C   UNL     1      -2.665   4.833 -32.461  1.00  0.00     0.045 A 
HETATM   21  C   UNL     1      -1.464   5.556 -32.247  1.00  0.00     0.001 A 
HETATM   22  C   UNL     1      -0.719   5.991 -33.358  1.00  0.00     0.014 A 
HETATM   23  C   UNL     1      -1.147   5.720 -34.656  1.00  0.00     0.001 A 
HETATM   24  C   UNL     1      -2.327   5.016 -34.861  1.00  0.00     0.002 A 
HETATM   25  C   UNL     1      -3.083   4.575 -33.772  1.00  0.00     0.030 A 
BRANCH  21  26
HETATM   26  C   UNL     1      -0.989   5.909 -30.900  1.00  0.00    -0.024 A 
HETATM   27  C   UNL     1      -1.517   7.012 -30.213  1.00  0.00     0.012 A 
HETATM   28  C   UNL     1      -1.034   7.356 -28.949  1.00  0.00     0.001 A 
HETATM   29  C   UNL     1      -0.024   6.601 -28.355  1.00  0.00     0.000 A 
HETATM   30  C   UNL     1       0.503   5.497 -29.023  1.00  0.00     0.001 A 
HETATM   31  C   UNL     1       0.024   5.154 -30.288  1.00  0.00     0.012 A 
ENDBRANCH  21  26
ENDBRANCH   2  20
TORSDOF 6
ENDMDL
MODEL 9
REMARK VINA RESULT:      -8.3      4.730      8.055
REMARK  6 active torsions:
REMARK  status: ('A' for Active; 'I' for Inactive)
REMARK    1  A    between atoms: C_2  and  N_3 
REMARK    2  A    between atoms: C_2  and  C_16 
REMARK    3  A    between atoms: N_3  and  C_5 
REMARK    4  A    between atoms: C_5  and  C_6 
REMARK       I    between atoms: C_16  and  N_17 
REMARK    5  A    between atoms: N_17  and  C_18 
REMARK    6  A    between atoms: C_19  and  C_20 
ROOT
HETATM    1  C   UNL     1      -3.839   3.232 -31.449  1.00  0.00     0.253 C 
HETATM    2  N   UNL     1      -4.016   4.365 -32.214  1.00  0.00    -0.325 N 
HETATM    3  O   UNL     1      -2.795   2.601 -31.296  1.00  0.00    -0.271 OA
HETATM    4  H   UNL     1      -4.965   4.672 -32.406  1.00  0.00     0.169 HD
ENDROOT
BRANCH   1   5
HETATM    5  C   UNL     1      -5.119   2.749 -30.730  1.00  0.00     0.275 C 
HETATM    6  C   UNL     1      -5.597   3.862 -29.797  1.00  0.00     0.050 C 
BRANCH   5   7
HETATM    7  N   UNL     1      -6.234   2.382 -31.747  1.00  0.00    -0.059 N 
HETATM    8  H   UNL     1      -5.729   2.265 -32.638  1.00  0.00     0.280 HD
HETATM    9  C   UNL     1      -7.270   3.446 -31.942  1.00  0.00     0.271 C 
BRANCH   7  10
HETATM   10  C   UNL     1      -6.854   1.004 -31.523  1.00  0.00     0.274 C 
BRANCH  10  11
HETATM   11  C   UNL     1      -6.494  -0.051 -32.533  1.00  0.00    -0.030 A 
HETATM   12  C   UNL     1      -5.332  -0.826 -32.380  1.00  0.00     0.048 A 
HETATM   13  C   UNL     1      -5.053  -1.780 -33.336  1.00  0.00     0.105 A 
HETATM   14  C   UNL     1      -5.872  -1.987 -34.418  1.00  0.00     0.105 A 
HETATM   15  O   UNL     1      -3.977  -2.610 -33.333  1.00  0.00    -0.323 OA
HETATM   16  O   UNL     1      -5.416  -2.974 -35.232  1.00  0.00    -0.323 OA
HETATM   17  C   UNL     1      -7.023  -1.255 -34.603  1.00  0.00     0.040 A 
HETATM   18  C   UNL     1      -4.234  -3.397 -34.519  1.00  0.00     0.352 A 
HETATM   19  C   UNL     1      -7.337  -0.282 -33.649  1.00  0.00     0.012 A 
ENDBRANCH  10  11
ENDBRANCH   7  10
ENDBRANCH   5   7
ENDBRANCH   1   5
BRANCH   2  20
HETATM   20  C   UNL     1      -3.015   5.132 -32.868  1.00  0.00     0.045 A 
HETATM   21  C   UNL     1      -2.658   6.386 -32.310  1.00  0.00     0.001 A 
HETATM   22  C   UNL     1      -1.641   7.143 -32.921  1.00  0.00     0.014 A 
HETATM   23  C   UNL     1      -0.988   6.676 -34.059  1.00  0.00     0.001 A 
HETATM   24  C   UNL     1      -1.346   5.449 -34.606  1.00  0.00     0.002 A 
HETATM   25  C   UNL     1      -2.353   4.681 -34.015  1.00  0.00     0.030 A 
BRANCH  21  26
HETATM   26  C   UNL     1      -3.343   6.948 -31.136  1.00  0.00    -0.024 A 
HETATM   27  C   UNL     1      -4.523   7.696 -31.277  1.00  0.00     0.012 A 
HETATM   28  C   UNL     1      -5.146   8.252 -30.158  1.00  0.00     0.001 A 
HETATM   29  C   UNL     1      -4.604   8.064 -28.888  1.00  0.00     0.000 A 
HETATM   30  C   UNL     1      -3.438   7.317 -28.733  1.00  0.00     0.001 A 
HETATM   31  C   UNL     1      -2.811   6.763 -29.850  1.00  0.00     0.012 A 
ENDBRANCH  21  26
ENDBRANCH   2  20
TORSDOF 6
ENDMDL
MODEL 10
REMARK VINA RESULT:      -8.2      4.321      8.975
REMARK  6 active torsions:
REMARK  status: ('A' for Active; 'I' for Inactive)
REMARK    1  A    between atoms: C_2  and  N_3 
REMARK    2  A    between atoms: C_2  and  C_16 
REMARK    3  A    between atoms: N_3  and  C_5 
REMARK    4  A    between atoms: C_5  and  C_6 
REMARK       I    between atoms: C_16  and  N_17 
REMARK    5  A    between atoms: N_17  and  C_18 
REMARK    6  A    between atoms: C_19  and  C_20 
ROOT
HETATM    1  C   UNL     1      -7.177   3.698 -32.082  1.00  0.00     0.253 C 
HETATM    2  N   UNL     1      -7.806   3.341 -33.255  1.00  0.00    -0.325 N 
HETATM    3  O   UNL     1      -7.692   3.798 -30.970  1.00  0.00    -0.271 OA
HETATM    4  H   UNL     1      -7.309   3.483 -34.129  1.00  0.00     0.169 HD
ENDROOT
BRANCH   1   5
HETATM    5  C   UNL     1      -5.667   3.990 -32.237  1.00  0.00     0.275 C 
HETATM    6  C   UNL     1      -5.016   2.803 -32.949  1.00  0.00     0.050 C 
BRANCH   5   7
HETATM    7  N   UNL     1      -5.425   5.297 -33.040  1.00  0.00    -0.059 N 
HETATM    8  H   UNL     1      -6.373   5.608 -33.302  1.00  0.00     0.280 HD
HETATM    9  C   UNL     1      -4.637   5.115 -34.301  1.00  0.00     0.271 C 
BRANCH   7  10
HETATM   10  C   UNL     1      -4.905   6.460 -32.197  1.00  0.00     0.274 C 
BRANCH  10  11
HETATM   11  C   UNL     1      -3.414   6.512 -31.995  1.00  0.00    -0.030 A 
HETATM   12  C   UNL     1      -2.740   5.465 -31.344  1.00  0.00     0.048 A 
HETATM   13  C   UNL     1      -1.373   5.566 -31.189  1.00  0.00     0.105 A 
HETATM   14  C   UNL     1      -0.667   6.648 -31.650  1.00  0.00     0.105 A 
HETATM   15  O   UNL     1      -0.577   4.644 -30.588  1.00  0.00    -0.323 OA
HETATM   16  O   UNL     1       0.664   6.544 -31.398  1.00  0.00    -0.323 OA
HETATM   17  C   UNL     1      -1.286   7.692 -32.299  1.00  0.00     0.040 A 
HETATM   18  C   UNL     1       0.725   5.251 -30.760  1.00  0.00     0.352 A 
HETATM   19  C   UNL     1      -2.671   7.620 -32.475  1.00  0.00     0.012 A 
ENDBRANCH  10  11
ENDBRANCH   7  10
ENDBRANCH   5   7
ENDBRANCH   1   5
BRANCH   2  20
HETATM   20  C   UNL     1      -9.136   2.871 -33.415  1.00  0.00     0.045 A 
HETATM   21  C   UNL     1      -9.340   1.483 -33.621  1.00  0.00     0.001 A 
HETATM   22  C   UNL     1     -10.653   0.993 -33.742  1.00  0.00     0.014 A 
HETATM   23  C   UNL     1     -11.747   1.853 -33.663  1.00  0.00     0.001 A 
HETATM   24  C   UNL     1     -11.542   3.213 -33.468  1.00  0.00     0.002 A 
HETATM   25  C   UNL     1     -10.246   3.721 -33.345  1.00  0.00     0.030 A 
BRANCH  21  26
HETATM   26  C   UNL     1      -8.222   0.537 -33.757  1.00  0.00    -0.024 A 
HETATM   27  C   UNL     1      -7.815   0.073 -35.017  1.00  0.00     0.012 A 
HETATM   28  C   UNL     1      -6.774  -0.850 -35.131  1.00  0.00     0.001 A 
HETATM   29  C   UNL     1      -6.124  -1.316 -33.989  1.00  0.00     0.000 A 
HETATM   30  C   UNL     1      -6.511  -0.858 -32.732  1.00  0.00     0.001 A 
HETATM   31  C   UNL     1      -7.554   0.063 -32.616  1.00  0.00     0.012 A 
ENDBRANCH  21  26
ENDBRANCH   2  20
TORSDOF 6
ENDMDL
