MODEL 1
REMARK VINA RESULT:      -8.7      0.000      0.000
REMARK  6 active torsions:
REMARK  status: ('A' for Active; 'I' for Inactive)
REMARK    1  A    between atoms: N_4  and  C_5 
REMARK    2  A    between atoms: C_14  and  C_15 
REMARK       I    between atoms: C_15  and  N_16 
REMARK    3  A    between atoms: N_16  and  C_17 
REMARK    4  A    between atoms: C_17  and  C_18 
REMARK    5  A    between atoms: C_18  and  O_19 
REMARK    6  A    between atoms: C_18  and  C_20 
ROOT
HETATM    1  C   UNL     1      -9.357   2.972 -33.765  1.00  0.00     0.255 C 
HETATM    2  N   UNL     1      -9.960   3.019 -35.002  1.00  0.00    -0.354 N 
HETATM    3  O   UNL     1      -9.781   3.614 -32.810  1.00  0.00    -0.268 OA
HETATM    4  H   UNL     1      -9.414   2.672 -35.777  1.00  0.00     0.162 HD
ENDROOT
BRANCH   1   5
HETATM    5  C   UNL     1      -8.149   2.156 -33.670  1.00  0.00     0.082 C 
HETATM    6  C   UNL     1      -6.818   2.647 -33.729  1.00  0.00     0.069 C 
HETATM    7  C   UNL     1      -6.362   4.052 -33.896  1.00  0.00     0.073 C 
HETATM    8  N   UNL     1      -5.919   1.674 -33.591  1.00  0.00    -0.171 NA
HETATM    9  N   UNL     1      -6.633   0.524 -33.550  1.00  0.00    -0.237 N 
HETATM   10  C   UNL     1      -7.997   0.790 -33.425  1.00  0.00     0.050 C 
HETATM   11  C   UNL     1      -9.000  -0.219 -32.988  1.00  0.00     0.071 C 
BRANCH   9  12
HETATM   12  C   UNL     1      -5.933  -0.718 -33.643  1.00  0.00     0.058 A 
HETATM   13  C   UNL     1      -4.795  -0.917 -32.839  1.00  0.00     0.033 A 
HETATM   14  C   UNL     1      -4.069  -2.109 -32.912  1.00  0.00     0.021 A 
HETATM   15  C   UNL     1      -4.462  -3.101 -33.804  1.00  0.00     0.011 A 
HETATM   16 BR   UNL     1      -3.477  -4.710 -33.916  1.00  0.00    -0.051 Br
HETATM   17  C   UNL     1      -5.572  -2.909 -34.625  1.00  0.00     0.021 A 
HETATM   18  C   UNL     1      -6.305  -1.719 -34.548  1.00  0.00     0.033 A 
ENDBRANCH   9  12
ENDBRANCH   1   5
BRANCH   2  19
HETATM   19  C   UNL     1     -11.013   3.976 -35.345  1.00  0.00     0.159 C 
BRANCH  19  20
HETATM   20  C   UNL     1     -12.367   3.370 -35.790  1.00  0.00     0.169 C 
BRANCH  20  21
HETATM   21  O   UNL     1     -12.163   2.197 -36.578  1.00  0.00    -0.389 OA
HETATM   22  H   UNL     1     -11.264   1.875 -36.351  1.00  0.00     0.210 HD
ENDBRANCH  20  21
BRANCH  20  23
HETATM   23  C   UNL     1     -13.206   2.960 -34.595  1.00  0.00    -0.028 A 
HETATM   24  C   UNL     1     -13.783   1.680 -34.540  1.00  0.00     0.013 A 
HETATM   25  C   UNL     1     -14.561   1.300 -33.446  1.00  0.00     0.043 A 
HETATM   26  C   UNL     1     -14.765   2.197 -32.404  1.00  0.00     0.116 A 
HETATM   27  F   UNL     1     -15.512   1.830 -31.354  1.00  0.00    -0.206 F 
HETATM   28  C   UNL     1     -14.204   3.467 -32.433  1.00  0.00     0.043 A 
HETATM   29  C   UNL     1     -13.424   3.848 -33.525  1.00  0.00     0.013 A 
ENDBRANCH  20  23
ENDBRANCH  19  20
ENDBRANCH   2  19
TORSDOF 6
ENDMDL
MODEL 2
REMARK VINA RESULT:      -8.4      6.134      9.008
REMARK  6 active torsions:
REMARK  status: ('A' for Active; 'I' for Inactive)
REMARK    1  A    between atoms: N_4  and  C_5 
REMARK    2  A    between atoms: C_14  and  C_15 
REMARK       I    between atoms: C_15  and  N_16 
REMARK    3  A    between atoms: N_16  and  C_17 
REMARK    4  A    between atoms: C_17  and  C_18 
REMARK    5  A    between atoms: C_18  and  O_19 
REMARK    6  A    between atoms: C_18  and  C_20 
ROOT
HETATM    1  C   UNL     1      -4.539   4.079 -33.283  1.00  0.00     0.255 C 
HETATM    2  N   UNL     1      -4.803   2.880 -32.657  1.00  0.00    -0.354 N 
HETATM    3  O   UNL     1      -5.175   4.456 -34.261  1.00  0.00    -0.268 OA
HETATM    4  H   UNL     1      -4.086   2.535 -32.036  1.00  0.00     0.162 HD
ENDROOT
BRANCH   1   5
HETATM    5  C   UNL     1      -3.418   4.848 -32.748  1.00  0.00     0.082 C 
HETATM    6  C   UNL     1      -2.265   5.237 -33.478  1.00  0.00     0.069 C 
HETATM    7  C   UNL     1      -1.939   4.960 -34.902  1.00  0.00     0.073 C 
HETATM    8  N   UNL     1      -1.420   5.952 -32.737  1.00  0.00    -0.171 NA
HETATM    9  N   UNL     1      -1.946   5.954 -31.489  1.00  0.00    -0.237 N 
HETATM   10  C   UNL     1      -3.243   5.438 -31.495  1.00  0.00     0.050 C 
HETATM   11  C   UNL     1      -4.217   5.637 -30.388  1.00  0.00     0.071 C 
BRANCH   9  12
HETATM   12  C   UNL     1      -1.145   6.445 -30.412  1.00  0.00     0.058 A 
HETATM   13  C   UNL     1      -0.210   5.582 -29.813  1.00  0.00     0.033 A 
HETATM   14  C   UNL     1       0.580   6.015 -28.744  1.00  0.00     0.021 A 
HETATM   15  C   UNL     1       0.425   7.308 -28.254  1.00  0.00     0.011 A 
HETATM   16 BR   UNL     1       1.480   7.895 -26.801  1.00  0.00    -0.051 Br
HETATM   17  C   UNL     1      -0.516   8.167 -28.819  1.00  0.00     0.021 A 
HETATM   18  C   UNL     1      -1.303   7.737 -29.895  1.00  0.00     0.033 A 
ENDBRANCH   9  12
ENDBRANCH   1   5
BRANCH   2  19
HETATM   19  C   UNL     1      -5.705   1.870 -33.210  1.00  0.00     0.159 C 
BRANCH  19  20
HETATM   20  C   UNL     1      -5.909   0.596 -32.353  1.00  0.00     0.169 C 
BRANCH  20  21
HETATM   21  O   UNL     1      -7.197   0.601 -31.736  1.00  0.00    -0.389 OA
HETATM   22  H   UNL     1      -7.726   1.267 -32.226  1.00  0.00     0.210 HD
ENDBRANCH  20  21
BRANCH  20  23
HETATM   23  C   UNL     1      -5.831  -0.658 -33.202  1.00  0.00    -0.028 A 
HETATM   24  C   UNL     1      -6.989  -1.182 -33.801  1.00  0.00     0.013 A 
HETATM   25  C   UNL     1      -6.922  -2.340 -34.578  1.00  0.00     0.043 A 
HETATM   26  C   UNL     1      -5.700  -2.977 -34.758  1.00  0.00     0.116 A 
HETATM   27  F   UNL     1      -5.640  -4.088 -35.504  1.00  0.00    -0.206 F 
HETATM   28  C   UNL     1      -4.541  -2.478 -34.178  1.00  0.00     0.043 A 
HETATM   29  C   UNL     1      -4.605  -1.320 -33.403  1.00  0.00     0.013 A 
ENDBRANCH  20  23
ENDBRANCH  19  20
ENDBRANCH   2  19
TORSDOF 6
ENDMDL
MODEL 3
REMARK VINA RESULT:      -8.2      5.481      7.985
REMARK  6 active torsions:
REMARK  status: ('A' for Active; 'I' for Inactive)
REMARK    1  A    between atoms: N_4  and  C_5 
REMARK    2  A    between atoms: C_14  and  C_15 
REMARK       I    between atoms: C_15  and  N_16 
REMARK    3  A    between atoms: N_16  and  C_17 
REMARK    4  A    between atoms: C_17  and  C_18 
REMARK    5  A    between atoms: C_18  and  O_19 
REMARK    6  A    between atoms: C_18  and  C_20 
ROOT
HETATM    1  C   UNL     1      -5.821   3.613 -32.911  1.00  0.00     0.255 C 
HETATM    2  N   UNL     1      -6.848   3.413 -32.014  1.00  0.00    -0.354 N 
HETATM    3  O   UNL     1      -5.980   3.487 -34.120  1.00  0.00    -0.268 OA
HETATM    4  H   UNL     1      -6.578   3.288 -31.050  1.00  0.00     0.162 HD
ENDROOT
BRANCH   1   5
HETATM    5  C   UNL     1      -4.517   3.927 -32.333  1.00  0.00     0.082 C 
HETATM    6  C   UNL     1      -3.491   2.985 -32.055  1.00  0.00     0.069 C 
HETATM    7  C   UNL     1      -3.507   1.516 -32.277  1.00  0.00     0.073 C 
HETATM    8  N   UNL     1      -2.402   3.565 -31.552  1.00  0.00    -0.171 NA
HETATM    9  N   UNL     1      -2.728   4.869 -31.390  1.00  0.00    -0.237 N 
HETATM   10  C   UNL     1      -3.944   5.159 -32.010  1.00  0.00     0.050 C 
HETATM   11  C   UNL     1      -4.399   6.538 -32.335  1.00  0.00     0.071 C 
BRANCH   9  12
HETATM   12  C   UNL     1      -1.840   5.707 -30.647  1.00  0.00     0.058 A 
HETATM   13  C   UNL     1      -0.454   5.493 -30.757  1.00  0.00     0.033 A 
HETATM   14  C   UNL     1       0.450   6.275 -30.033  1.00  0.00     0.021 A 
HETATM   15  C   UNL     1      -0.027   7.264 -29.179  1.00  0.00     0.011 A 
HETATM   16 BR   UNL     1       1.188   8.318 -28.188  1.00  0.00    -0.051 Br
HETATM   17  C   UNL     1      -1.399   7.473 -29.039  1.00  0.00     0.021 A 
HETATM   18  C   UNL     1      -2.305   6.694 -29.769  1.00  0.00     0.033 A 
ENDBRANCH   9  12
ENDBRANCH   1   5
BRANCH   2  19
HETATM   19  C   UNL     1      -8.141   2.842 -32.391  1.00  0.00     0.159 C 
BRANCH  19  20
HETATM   20  C   UNL     1      -8.388   1.374 -31.966  1.00  0.00     0.169 C 
BRANCH  20  21
HETATM   21  O   UNL     1      -9.779   1.055 -32.025  1.00  0.00    -0.389 OA
HETATM   22  H   UNL     1      -9.904   0.290 -31.422  1.00  0.00     0.210 HD
ENDBRANCH  20  21
BRANCH  20  23
HETATM   23  C   UNL     1      -7.673   0.406 -32.889  1.00  0.00    -0.028 A 
HETATM   24  C   UNL     1      -6.636  -0.406 -32.400  1.00  0.00     0.013 A 
HETATM   25  C   UNL     1      -5.972  -1.294 -33.248  1.00  0.00     0.043 A 
HETATM   26  C   UNL     1      -6.341  -1.373 -34.586  1.00  0.00     0.116 A 
HETATM   27  F   UNL     1      -5.702  -2.226 -35.397  1.00  0.00    -0.206 F 
HETATM   28  C   UNL     1      -7.364  -0.583 -35.093  1.00  0.00     0.043 A 
HETATM   29  C   UNL     1      -8.031   0.303 -34.247  1.00  0.00     0.013 A 
ENDBRANCH  20  23
ENDBRANCH  19  20
ENDBRANCH   2  19
TORSDOF 6
ENDMDL
MODEL 4
REMARK VINA RESULT:      -8.2      5.663      8.790
REMARK  6 active torsions:
REMARK  status: ('A' for Active; 'I' for Inactive)
REMARK    1  A    between atoms: N_4  and  C_5 
REMARK    2  A    between atoms: C_14  and  C_15 
REMARK       I    between atoms: C_15  and  N_16 
REMARK    3  A    between atoms: N_16  and  C_17 
REMARK    4  A    between atoms: C_17  and  C_18 
REMARK    5  A    between atoms: C_18  and  O_19 
REMARK    6  A    between atoms: C_18  and  C_20 
ROOT
HETATM    1  C   UNL     1      -5.215   4.700 -32.375  1.00  0.00     0.255 C 
HETATM    2  N   UNL     1      -4.075   5.043 -33.069  1.00  0.00    -0.354 N 
HETATM    3  O   UNL     1      -5.909   5.538 -31.810  1.00  0.00    -0.268 OA
HETATM    4  H   UNL     1      -3.440   4.288 -33.280  1.00  0.00     0.162 HD
ENDROOT
BRANCH   1   5
HETATM    5  C   UNL     1      -5.518   3.273 -32.303  1.00  0.00     0.082 C 
HETATM    6  C   UNL     1      -5.560   2.500 -31.113  1.00  0.00     0.069 C 
HETATM    7  C   UNL     1      -5.313   2.946 -29.717  1.00  0.00     0.073 C 
HETATM    8  N   UNL     1      -5.886   1.231 -31.351  1.00  0.00    -0.171 NA
HETATM    9  N   UNL     1      -5.956   1.123 -32.699  1.00  0.00    -0.237 N 
HETATM   10  C   UNL     1      -5.905   2.379 -33.303  1.00  0.00     0.050 C 
HETATM   11  C   UNL     1      -6.322   2.640 -34.708  1.00  0.00     0.071 C 
BRANCH   9  12
HETATM   12  C   UNL     1      -6.058  -0.182 -33.275  1.00  0.00     0.058 A 
HETATM   13  C   UNL     1      -4.877  -0.894 -33.555  1.00  0.00     0.033 A 
HETATM   14  C   UNL     1      -4.930  -2.165 -34.135  1.00  0.00     0.021 A 
HETATM   15  C   UNL     1      -6.163  -2.723 -34.458  1.00  0.00     0.011 A 
HETATM   16 BR   UNL     1      -6.240  -4.435 -35.255  1.00  0.00    -0.051 Br
HETATM   17  C   UNL     1      -7.341  -2.020 -34.211  1.00  0.00     0.021 A 
HETATM   18  C   UNL     1      -7.290  -0.750 -33.623  1.00  0.00     0.033 A 
ENDBRANCH   9  12
ENDBRANCH   1   5
BRANCH   2  19
HETATM   19  C   UNL     1      -3.482   6.380 -33.024  1.00  0.00     0.159 C 
BRANCH  19  20
HETATM   20  C   UNL     1      -1.960   6.460 -33.303  1.00  0.00     0.169 C 
BRANCH  20  21
HETATM   21  O   UNL     1      -1.632   7.671 -33.984  1.00  0.00    -0.389 OA
HETATM   22  H   UNL     1      -1.235   7.398 -34.840  1.00  0.00     0.210 HD
ENDBRANCH  20  21
BRANCH  20  23
HETATM   23  C   UNL     1      -1.163   6.449 -32.013  1.00  0.00    -0.028 A 
HETATM   24  C   UNL     1      -1.274   7.512 -31.101  1.00  0.00     0.013 A 
HETATM   25  C   UNL     1      -0.537   7.509 -29.916  1.00  0.00     0.043 A 
HETATM   26  C   UNL     1       0.313   6.445 -29.638  1.00  0.00     0.116 A 
HETATM   27  F   UNL     1       1.019   6.444 -28.500  1.00  0.00    -0.206 F 
HETATM   28  C   UNL     1       0.439   5.380 -30.522  1.00  0.00     0.043 A 
HETATM   29  C   UNL     1      -0.299   5.381 -31.706  1.00  0.00     0.013 A 
ENDBRANCH  20  23
ENDBRANCH  19  20
ENDBRANCH   2  19
TORSDOF 6
ENDMDL
MODEL 5
REMARK VINA RESULT:      -8.0      5.215      7.911
REMARK  6 active torsions:
REMARK  status: ('A' for Active; 'I' for Inactive)
REMARK    1  A    between atoms: N_4  and  C_5 
REMARK    2  A    between atoms: C_14  and  C_15 
REMARK       I    between atoms: C_15  and  N_16 
REMARK    3  A    between atoms: N_16  and  C_17 
REMARK    4  A    between atoms: C_17  and  C_18 
REMARK    5  A    between atoms: C_18  and  O_19 
REMARK    6  A    between atoms: C_18  and  C_20 
ROOT
HETATM    1  C   UNL     1      -7.564   1.840 -32.348  1.00  0.00     0.255 C 
HETATM    2  N   UNL     1      -7.026   0.695 -32.892  1.00  0.00    -0.354 N 
HETATM    3  O   UNL     1      -8.751   1.924 -32.049  1.00  0.00    -0.268 OA
HETATM    4  H   UNL     1      -6.125   0.794 -33.334  1.00  0.00     0.162 HD
ENDROOT
BRANCH   1   5
HETATM    5  C   UNL     1      -6.650   2.970 -32.199  1.00  0.00     0.082 C 
HETATM    6  C   UNL     1      -6.757   4.210 -32.883  1.00  0.00     0.069 C 
HETATM    7  C   UNL     1      -7.782   4.630 -33.873  1.00  0.00     0.073 C 
HETATM    8  N   UNL     1      -5.795   5.061 -32.529  1.00  0.00    -0.171 NA
HETATM    9  N   UNL     1      -4.984   4.366 -31.697  1.00  0.00    -0.237 N 
HETATM   10  C   UNL     1      -5.564   3.148 -31.340  1.00  0.00     0.050 C 
HETATM   11  C   UNL     1      -5.121   2.330 -30.178  1.00  0.00     0.071 C 
BRANCH   9  12
HETATM   12  C   UNL     1      -3.726   4.939 -31.334  1.00  0.00     0.058 A 
HETATM   13  C   UNL     1      -3.715   6.123 -30.574  1.00  0.00     0.033 A 
HETATM   14  C   UNL     1      -2.508   6.729 -30.213  1.00  0.00     0.021 A 
HETATM   15  C   UNL     1      -1.305   6.165 -30.627  1.00  0.00     0.011 A 
HETATM   16 BR   UNL     1       0.330   6.986 -30.152  1.00  0.00    -0.051 Br
HETATM   17  C   UNL     1      -1.299   5.006 -31.401  1.00  0.00     0.021 A 
HETATM   18  C   UNL     1      -2.508   4.394 -31.757  1.00  0.00     0.033 A 
ENDBRANCH   9  12
ENDBRANCH   1   5
BRANCH   2  19
HETATM   19  C   UNL     1      -7.839  -0.432 -33.350  1.00  0.00     0.159 C 
BRANCH  19  20
HETATM   20  C   UNL     1      -7.452  -1.039 -34.721  1.00  0.00     0.169 C 
BRANCH  20  21
HETATM   21  O   UNL     1      -6.865  -0.048 -35.567  1.00  0.00    -0.389 OA
HETATM   22  H   UNL     1      -5.942   0.063 -35.249  1.00  0.00     0.210 HD
ENDBRANCH  20  21
BRANCH  20  23
HETATM   23  C   UNL     1      -6.429  -2.147 -34.565  1.00  0.00    -0.028 A 
HETATM   24  C   UNL     1      -6.764  -3.473 -34.888  1.00  0.00     0.013 A 
HETATM   25  C   UNL     1      -5.828  -4.497 -34.739  1.00  0.00     0.043 A 
HETATM   26  C   UNL     1      -4.555  -4.201 -34.267  1.00  0.00     0.116 A 
HETATM   27  F   UNL     1      -3.658  -5.185 -34.126  1.00  0.00    -0.206 F 
HETATM   28  C   UNL     1      -4.198  -2.898 -33.942  1.00  0.00     0.043 A 
HETATM   29  C   UNL     1      -5.131  -1.873 -34.093  1.00  0.00     0.013 A 
ENDBRANCH  20  23
ENDBRANCH  19  20
ENDBRANCH   2  19
TORSDOF 6
ENDMDL
MODEL 6
REMARK VINA RESULT:      -8.0      4.769      9.132
REMARK  6 active torsions:
REMARK  status: ('A' for Active; 'I' for Inactive)
REMARK    1  A    between atoms: N_4  and  C_5 
REMARK    2  A    between atoms: C_14  and  C_15 
REMARK       I    between atoms: C_15  and  N_16 
REMARK    3  A    between atoms: N_16  and  C_17 
REMARK    4  A    between atoms: C_17  and  C_18 
REMARK    5  A    between atoms: C_18  and  O_19 
REMARK    6  A    between atoms: C_18  and  C_20 
ROOT
HETATM    1  C   UNL     1      -9.170   2.004 -33.190  1.00  0.00     0.255 C 
HETATM    2  N   UNL     1      -9.017   0.665 -32.909  1.00  0.00    -0.354 N 
HETATM    3  O   UNL     1      -8.298   2.654 -33.757  1.00  0.00    -0.268 OA
HETATM    4  H   UNL     1      -9.656   0.276 -32.232  1.00  0.00     0.162 HD
ENDROOT
BRANCH   1   5
HETATM    5  C   UNL     1     -10.410   2.620 -32.724  1.00  0.00     0.082 C 
HETATM    6  C   UNL     1     -10.531   3.472 -31.595  1.00  0.00     0.069 C 
HETATM    7  C   UNL     1      -9.466   3.917 -30.659  1.00  0.00     0.073 C 
HETATM    8  N   UNL     1     -11.780   3.903 -31.425  1.00  0.00    -0.171 NA
HETATM    9  N   UNL     1     -12.515   3.262 -32.365  1.00  0.00    -0.237 N 
HETATM   10  C   UNL     1     -11.691   2.605 -33.279  1.00  0.00     0.050 C 
HETATM   11  C   UNL     1     -12.149   2.130 -34.613  1.00  0.00     0.071 C 
BRANCH   9  12
HETATM   12  C   UNL     1     -13.940   3.339 -32.285  1.00  0.00     0.058 A 
HETATM   13  C   UNL     1     -14.542   4.594 -32.076  1.00  0.00     0.033 A 
HETATM   14  C   UNL     1     -15.930   4.712 -31.972  1.00  0.00     0.021 A 
HETATM   15  C   UNL     1     -16.726   3.574 -32.057  1.00  0.00     0.011 A 
HETATM   16 BR   UNL     1     -18.604   3.725 -31.906  1.00  0.00    -0.051 Br
HETATM   17  C   UNL     1     -16.145   2.320 -32.239  1.00  0.00     0.021 A 
HETATM   18  C   UNL     1     -14.753   2.201 -32.351  1.00  0.00     0.033 A 
ENDBRANCH   9  12
ENDBRANCH   1   5
BRANCH   2  19
HETATM   19  C   UNL     1      -7.747  -0.047 -33.066  1.00  0.00     0.159 C 
BRANCH  19  20
HETATM   20  C   UNL     1      -7.503  -0.710 -34.443  1.00  0.00     0.169 C 
BRANCH  20  21
HETATM   21  O   UNL     1      -7.097   0.260 -35.409  1.00  0.00    -0.389 OA
HETATM   22  H   UNL     1      -7.720   1.013 -35.310  1.00  0.00     0.210 HD
ENDBRANCH  20  21
BRANCH  20  23
HETATM   23  C   UNL     1      -6.399  -1.747 -34.368  1.00  0.00    -0.028 A 
HETATM   24  C   UNL     1      -6.622  -3.055 -34.829  1.00  0.00     0.013 A 
HETATM   25  C   UNL     1      -5.610  -4.014 -34.756  1.00  0.00     0.043 A 
HETATM   26  C   UNL     1      -4.375  -3.669 -34.221  1.00  0.00     0.116 A 
HETATM   27  F   UNL     1      -3.405  -4.592 -34.152  1.00  0.00    -0.206 F 
HETATM   28  C   UNL     1      -4.128  -2.382 -33.761  1.00  0.00     0.043 A 
HETATM   29  C   UNL     1      -5.137  -1.422 -33.836  1.00  0.00     0.013 A 
ENDBRANCH  20  23
ENDBRANCH  19  20
ENDBRANCH   2  19
TORSDOF 6
ENDMDL
MODEL 7
REMARK VINA RESULT:      -7.9      1.497      2.308
REMARK  6 active torsions:
REMARK  status: ('A' for Active; 'I' for Inactive)
REMARK    1  A    between atoms: N_4  and  C_5 
REMARK    2  A    between atoms: C_14  and  C_15 
REMARK       I    between atoms: C_15  and  N_16 
REMARK    3  A    between atoms: N_16  and  C_17 
REMARK    4  A    between atoms: C_17  and  C_18 
REMARK    5  A    between atoms: C_18  and  O_19 
REMARK    6  A    between atoms: C_18  and  C_20 
ROOT
HETATM    1  C   UNL     1      -9.482   3.518 -33.887  1.00  0.00     0.255 C 
HETATM    2  N   UNL     1     -10.118   3.831 -32.706  1.00  0.00    -0.354 N 
HETATM    3  O   UNL     1      -9.919   3.873 -34.976  1.00  0.00    -0.268 OA
HETATM    4  H   UNL     1      -9.839   3.298 -31.896  1.00  0.00     0.162 HD
ENDROOT
BRANCH   1   5
HETATM    5  C   UNL     1      -8.283   2.691 -33.770  1.00  0.00     0.082 C 
HETATM    6  C   UNL     1      -6.948   3.174 -33.763  1.00  0.00     0.069 C 
HETATM    7  C   UNL     1      -6.477   4.580 -33.869  1.00  0.00     0.073 C 
HETATM    8  N   UNL     1      -6.061   2.191 -33.620  1.00  0.00    -0.171 NA
HETATM    9  N   UNL     1      -6.783   1.046 -33.641  1.00  0.00    -0.237 N 
HETATM   10  C   UNL     1      -8.149   1.317 -33.561  1.00  0.00     0.050 C 
HETATM   11  C   UNL     1      -9.174   0.303 -33.194  1.00  0.00     0.071 C 
BRANCH   9  12
HETATM   12  C   UNL     1      -6.086  -0.198 -33.744  1.00  0.00     0.058 A 
HETATM   13  C   UNL     1      -6.580  -1.181 -34.621  1.00  0.00     0.033 A 
HETATM   14  C   UNL     1      -5.941  -2.419 -34.739  1.00  0.00     0.021 A 
HETATM   15  C   UNL     1      -4.817  -2.689 -33.965  1.00  0.00     0.011 A 
HETATM   16 BR   UNL     1      -3.957  -4.365 -34.110  1.00  0.00    -0.051 Br
HETATM   17  C   UNL     1      -4.330  -1.736 -33.073  1.00  0.00     0.021 A 
HETATM   18  C   UNL     1      -4.965  -0.492 -32.959  1.00  0.00     0.033 A 
ENDBRANCH   9  12
ENDBRANCH   1   5
BRANCH   2  19
HETATM   19  C   UNL     1     -11.456   4.421 -32.649  1.00  0.00     0.159 C 
BRANCH  19  20
HETATM   20  C   UNL     1     -12.492   3.677 -31.770  1.00  0.00     0.169 C 
BRANCH  20  21
HETATM   21  O   UNL     1     -13.369   4.602 -31.126  1.00  0.00    -0.389 OA
HETATM   22  H   UNL     1     -14.190   4.612 -31.665  1.00  0.00     0.210 HD
ENDBRANCH  20  21
BRANCH  20  23
HETATM   23  C   UNL     1     -13.359   2.753 -32.603  1.00  0.00    -0.028 A 
HETATM   24  C   UNL     1     -14.703   2.536 -32.254  1.00  0.00     0.013 A 
HETATM   25  C   UNL     1     -15.503   1.681 -33.014  1.00  0.00     0.043 A 
HETATM   26  C   UNL     1     -14.963   1.041 -34.124  1.00  0.00     0.116 A 
HETATM   27  F   UNL     1     -15.734   0.222 -34.852  1.00  0.00    -0.206 F 
HETATM   28  C   UNL     1     -13.639   1.242 -34.491  1.00  0.00     0.043 A 
HETATM   29  C   UNL     1     -12.839   2.097 -33.734  1.00  0.00     0.013 A 
ENDBRANCH  20  23
ENDBRANCH  19  20
ENDBRANCH   2  19
TORSDOF 6
ENDMDL
MODEL 8
REMARK VINA RESULT:      -7.9      5.082      7.932
REMARK  6 active torsions:
REMARK  status: ('A' for Active; 'I' for Inactive)
REMARK    1  A    between atoms: N_4  and  C_5 
REMARK    2  A    between atoms: C_14  and  C_15 
REMARK       I    between atoms: C_15  and  N_16 
REMARK    3  A    between atoms: N_16  and  C_17 
REMARK    4  A    between atoms: C_17  and  C_18 
REMARK    5  A    between atoms: C_18  and  O_19 
REMARK    6  A    between atoms: C_18  and  C_20 
ROOT
HETATM    1  C   UNL     1      -5.959   4.371 -31.166  1.00  0.00     0.255 C 
HETATM    2  N   UNL     1      -5.511   5.580 -31.651  1.00  0.00    -0.354 N 
HETATM    3  O   UNL     1      -6.197   4.195 -29.976  1.00  0.00    -0.268 OA
HETATM    4  H   UNL     1      -5.106   5.565 -32.575  1.00  0.00     0.162 HD
ENDROOT
BRANCH   1   5
HETATM    5  C   UNL     1      -6.082   3.293 -32.144  1.00  0.00     0.082 C 
HETATM    6  C   UNL     1      -6.885   3.331 -33.314  1.00  0.00     0.069 C 
HETATM    7  C   UNL     1      -7.756   4.435 -33.797  1.00  0.00     0.073 C 
HETATM    8  N   UNL     1      -6.781   2.213 -34.030  1.00  0.00    -0.171 NA
HETATM    9  N   UNL     1      -6.001   1.385 -33.296  1.00  0.00    -0.237 N 
HETATM   10  C   UNL     1      -5.420   2.066 -32.226  1.00  0.00     0.050 C 
HETATM   11  C   UNL     1      -4.248   1.560 -31.461  1.00  0.00     0.071 C 
BRANCH   9  12
HETATM   12  C   UNL     1      -5.898   0.015 -33.692  1.00  0.00     0.058 A 
HETATM   13  C   UNL     1      -7.052  -0.650 -34.142  1.00  0.00     0.033 A 
HETATM   14  C   UNL     1      -7.001  -1.995 -34.521  1.00  0.00     0.021 A 
HETATM   15  C   UNL     1      -5.798  -2.688 -34.433  1.00  0.00     0.011 A 
HETATM   16 BR   UNL     1      -5.724  -4.509 -34.932  1.00  0.00    -0.051 Br
HETATM   17  C   UNL     1      -4.650  -2.051 -33.965  1.00  0.00     0.021 A 
HETATM   18  C   UNL     1      -4.699  -0.702 -33.592  1.00  0.00     0.033 A 
ENDBRANCH   9  12
ENDBRANCH   1   5
BRANCH   2  19
HETATM   19  C   UNL     1      -5.084   6.681 -30.787  1.00  0.00     0.159 C 
BRANCH  19  20
HETATM   20  C   UNL     1      -3.556   6.845 -30.596  1.00  0.00     0.169 C 
BRANCH  20  21
HETATM   21  O   UNL     1      -3.088   6.027 -29.524  1.00  0.00    -0.389 OA
HETATM   22  H   UNL     1      -2.315   6.499 -29.144  1.00  0.00     0.210 HD
ENDBRANCH  20  21
BRANCH  20  23
HETATM   23  C   UNL     1      -2.797   6.421 -31.839  1.00  0.00    -0.028 A 
HETATM   24  C   UNL     1      -2.448   7.370 -32.815  1.00  0.00     0.013 A 
HETATM   25  C   UNL     1      -1.755   6.983 -33.963  1.00  0.00     0.043 A 
HETATM   26  C   UNL     1      -1.409   5.648 -34.140  1.00  0.00     0.116 A 
HETATM   27  F   UNL     1      -0.744   5.280 -35.242  1.00  0.00    -0.206 F 
HETATM   28  C   UNL     1      -1.741   4.692 -33.189  1.00  0.00     0.043 A 
HETATM   29  C   UNL     1      -2.431   5.077 -32.040  1.00  0.00     0.013 A 
ENDBRANCH  20  23
ENDBRANCH  19  20
ENDBRANCH   2  19
TORSDOF 6
ENDMDL
MODEL 9
REMARK VINA RESULT:      -7.9      5.517      8.717
REMARK  6 active torsions:
REMARK  status: ('A' for Active; 'I' for Inactive)
REMARK    1  A    between atoms: N_4  and  C_5 
REMARK    2  A    between atoms: C_14  and  C_15 
REMARK       I    between atoms: C_15  and  N_16 
REMARK    3  A    between atoms: N_16  and  C_17 
REMARK    4  A    between atoms: C_17  and  C_18 
REMARK    5  A    between atoms: C_18  and  O_19 
REMARK    6  A    between atoms: C_18  and  C_20 
ROOT
HETATM    1  C   UNL     1      -5.250   5.685 -30.885  1.00  0.00     0.255 C 
HETATM    2  N   UNL     1      -4.189   5.601 -30.010  1.00  0.00    -0.354 N 
HETATM    3  O   UNL     1      -5.721   6.762 -31.234  1.00  0.00    -0.268 OA
HETATM    4  H   UNL     1      -4.033   4.698 -29.587  1.00  0.00     0.162 HD
ENDROOT
BRANCH   1   5
HETATM    5  C   UNL     1      -5.817   4.415 -31.330  1.00  0.00     0.082 C 
HETATM    6  C   UNL     1      -7.000   3.818 -30.818  1.00  0.00     0.069 C 
HETATM    7  C   UNL     1      -7.900   4.328 -29.751  1.00  0.00     0.073 C 
HETATM    8  N   UNL     1      -7.288   2.671 -31.431  1.00  0.00    -0.171 NA
HETATM    9  N   UNL     1      -6.251   2.440 -32.272  1.00  0.00    -0.237 N 
HETATM   10  C   UNL     1      -5.424   3.560 -32.361  1.00  0.00     0.050 C 
HETATM   11  C   UNL     1      -4.432   3.771 -33.451  1.00  0.00     0.071 C 
BRANCH   9  12
HETATM   12  C   UNL     1      -6.156   1.161 -32.901  1.00  0.00     0.058 A 
HETATM   13  C   UNL     1      -5.364   0.166 -32.300  1.00  0.00     0.033 A 
HETATM   14  C   UNL     1      -5.226  -1.093 -32.891  1.00  0.00     0.021 A 
HETATM   15  C   UNL     1      -5.864  -1.359 -34.099  1.00  0.00     0.011 A 
HETATM   16 BR   UNL     1      -5.673  -3.055 -34.910  1.00  0.00    -0.051 Br
HETATM   17  C   UNL     1      -6.632  -0.376 -34.721  1.00  0.00     0.021 A 
HETATM   18  C   UNL     1      -6.776   0.883 -34.125  1.00  0.00     0.033 A 
ENDBRANCH   9  12
ENDBRANCH   1   5
BRANCH   2  19
HETATM   19  C   UNL     1      -3.670   6.750 -29.267  1.00  0.00     0.159 C 
BRANCH  19  20
HETATM   20  C   UNL     1      -2.204   7.150 -29.569  1.00  0.00     0.169 C 
BRANCH  20  21
HETATM   21  O   UNL     1      -1.298   6.420 -28.741  1.00  0.00    -0.389 OA
HETATM   22  H   UNL     1      -1.850   5.996 -28.049  1.00  0.00     0.210 HD
ENDBRANCH  20  21
BRANCH  20  23
HETATM   23  C   UNL     1      -1.834   6.843 -31.007  1.00  0.00    -0.028 A 
HETATM   24  C   UNL     1      -2.105   7.775 -32.023  1.00  0.00     0.013 A 
HETATM   25  C   UNL     1      -1.772   7.493 -33.349  1.00  0.00     0.043 A 
HETATM   26  C   UNL     1      -1.167   6.281 -33.663  1.00  0.00     0.116 A 
HETATM   27  F   UNL     1      -0.848   6.014 -34.936  1.00  0.00    -0.206 F 
HETATM   28  C   UNL     1      -0.887   5.345 -32.676  1.00  0.00     0.043 A 
HETATM   29  C   UNL     1      -1.217   5.625 -31.351  1.00  0.00     0.013 A 
ENDBRANCH  20  23
ENDBRANCH  19  20
ENDBRANCH   2  19
TORSDOF 6
ENDMDL
MODEL 10
REMARK VINA RESULT:      -7.8      1.746      2.059
REMARK  6 active torsions:
REMARK  status: ('A' for Active; 'I' for Inactive)
REMARK    1  A    between atoms: N_4  and  C_5 
REMARK    2  A    between atoms: C_14  and  C_15 
REMARK       I    between atoms: C_15  and  N_16 
REMARK    3  A    between atoms: N_16  and  C_17 
REMARK    4  A    between atoms: C_17  and  C_18 
REMARK    5  A    between atoms: C_18  and  O_19 
REMARK    6  A    between atoms: C_18  and  C_20 
ROOT
HETATM    1  C   UNL     1      -9.138   4.754 -33.942  1.00  0.00     0.255 C 
HETATM    2  N   UNL     1     -10.174   4.693 -33.036  1.00  0.00    -0.354 N 
HETATM    3  O   UNL     1      -9.082   5.619 -34.809  1.00  0.00    -0.268 OA
HETATM    4  H   UNL     1     -10.275   3.824 -32.534  1.00  0.00     0.162 HD
ENDROOT
BRANCH   1   5
HETATM    5  C   UNL     1      -8.139   3.692 -33.846  1.00  0.00     0.082 C 
HETATM    6  C   UNL     1      -6.735   3.889 -33.773  1.00  0.00     0.069 C 
HETATM    7  C   UNL     1      -5.983   5.171 -33.779  1.00  0.00     0.073 C 
HETATM    8  N   UNL     1      -6.073   2.738 -33.669  1.00  0.00    -0.171 NA
HETATM    9  N   UNL     1      -7.012   1.769 -33.781  1.00  0.00    -0.237 N 
HETATM   10  C   UNL     1      -8.296   2.311 -33.719  1.00  0.00     0.050 C 
HETATM   11  C   UNL     1      -9.520   1.510 -33.444  1.00  0.00     0.071 C 
BRANCH   9  12
HETATM   12  C   UNL     1      -6.580   0.416 -33.943  1.00  0.00     0.058 A 
HETATM   13  C   UNL     1      -5.442  -0.022 -33.242  1.00  0.00     0.033 A 
HETATM   14  C   UNL     1      -4.974  -1.331 -33.386  1.00  0.00     0.021 A 
HETATM   15  C   UNL     1      -5.628  -2.204 -34.249  1.00  0.00     0.011 A 
HETATM   16 BR   UNL     1      -4.992  -3.972 -34.459  1.00  0.00    -0.051 Br
HETATM   17  C   UNL     1      -6.741  -1.778 -34.971  1.00  0.00     0.021 A 
HETATM   18  C   UNL     1      -7.217  -0.469 -34.822  1.00  0.00     0.033 A 
ENDBRANCH   9  12
ENDBRANCH   1   5
BRANCH   2  19
HETATM   19  C   UNL     1     -11.385   5.508 -33.148  1.00  0.00     0.159 C 
BRANCH  19  20
HETATM   20  C   UNL     1     -12.369   5.114 -34.277  1.00  0.00     0.169 C 
BRANCH  20  21
HETATM   21  O   UNL     1     -11.813   5.408 -35.559  1.00  0.00    -0.389 OA
HETATM   22  H   UNL     1     -10.839   5.337 -35.452  1.00  0.00     0.210 HD
ENDBRANCH  20  21
BRANCH  20  23
HETATM   23  C   UNL     1     -12.667   3.627 -34.254  1.00  0.00    -0.028 A 
HETATM   24  C   UNL     1     -12.344   2.823 -35.360  1.00  0.00     0.013 A 
HETATM   25  C   UNL     1     -12.623   1.455 -35.346  1.00  0.00     0.043 A 
HETATM   26  C   UNL     1     -13.225   0.888 -34.229  1.00  0.00     0.116 A 
HETATM   27  F   UNL     1     -13.491  -0.425 -34.218  1.00  0.00    -0.206 F 
HETATM   28  C   UNL     1     -13.552   1.662 -33.123  1.00  0.00     0.043 A 
HETATM   29  C   UNL     1     -13.272   3.028 -33.134  1.00  0.00     0.013 A 
ENDBRANCH  20  23
ENDBRANCH  19  20
ENDBRANCH   2  19
TORSDOF 6
ENDMDL
