MODEL 1
REMARK VINA RESULT:      -7.3      0.000      0.000
REMARK  5 active torsions:
REMARK  status: ('A' for Active; 'I' for Inactive)
REMARK    1  A    between atoms: C_2  and  C_3 
REMARK    2  A    between atoms: C_3  and  N_4 
REMARK    3  A    between atoms: C_3  and  C_19 
REMARK       I    between atoms: N_4  and  C_5 
REMARK    4  A    between atoms: C_5  and  C_6 
REMARK    5  A    between atoms: C_7  and  C_8 
ROOT
HETATM    1  N   UNL     1      -2.797   4.919 -30.990  1.00  0.00    -0.345 N 
HETATM    2  C   UNL     1      -4.113   5.019 -31.368  1.00  0.00     0.255 C 
HETATM    3  O   UNL     1      -4.497   5.822 -32.214  1.00  0.00    -0.268 OA
HETATM    4  H   UNL     1      -2.551   4.363 -30.185  1.00  0.00     0.163 HD
ENDROOT
BRANCH   2   5
HETATM    5  C   UNL     1      -5.010   4.083 -30.708  1.00  0.00     0.075 A 
HETATM    6  C   UNL     1      -5.353   2.754 -31.114  1.00  0.00     0.076 A 
HETATM    7  N   UNL     1      -6.217   2.191 -30.255  1.00  0.00    -0.178 NA
HETATM    8  N   UNL     1      -6.429   3.131 -29.327  1.00  0.00    -0.288 N 
HETATM    9  H   UNL     1      -7.072   2.918 -28.570  1.00  0.00     0.188 HD
HETATM   10  C   UNL     1      -5.725   4.276 -29.541  1.00  0.00     0.128 A 
BRANCH   6  11
HETATM   11  C   UNL     1      -4.841   1.996 -32.323  1.00  0.00     0.040 C 
HETATM   12  C   UNL     1      -3.404   1.478 -32.118  1.00  0.00     0.011 C 
HETATM   13  C   UNL     1      -3.340   0.238 -31.230  1.00  0.00     0.001 C 
HETATM   14  C   UNL     1      -4.215  -0.882 -31.782  1.00  0.00     0.000 C 
HETATM   15  C   UNL     1      -5.656  -0.426 -31.970  1.00  0.00     0.001 C 
HETATM   16  C   UNL     1      -5.756   0.853 -32.808  1.00  0.00     0.011 C 
ENDBRANCH   6  11
ENDBRANCH   2   5
BRANCH   1  17
HETATM   17  C   UNL     1      -1.778   5.806 -31.516  1.00  0.00     0.154 C 
BRANCH  17  18
HETATM   18  C   UNL     1      -1.052   5.167 -32.707  1.00  0.00     0.028 C 
HETATM   19  C   UNL     1      -1.406   5.839 -34.028  1.00  0.00     0.007 C 
ENDBRANCH  17  18
BRANCH  17  20
HETATM   20  C   UNL     1      -0.837   6.108 -30.389  1.00  0.00     0.127 A 
HETATM   21  N   UNL     1      -0.402   7.290 -29.993  1.00  0.00    -0.237 NA
HETATM   22  C   UNL     1       0.437   7.047 -28.932  1.00  0.00     0.048 A 
HETATM   23  C   UNL     1       1.093   8.161 -28.214  1.00  0.00     0.072 C 
HETATM   24  C   UNL     1       0.530   5.692 -28.698  1.00  0.00     0.116 A 
HETATM   25  N   UNL     1      -0.271   5.107 -29.638  1.00  0.00    -0.351 N 
HETATM   26  H   UNL     1      -0.417   4.116 -29.783  1.00  0.00     0.166 HD
ENDBRANCH  17  20
ENDBRANCH   1  17
TORSDOF 5
ENDMDL
MODEL 2
REMARK VINA RESULT:      -7.2      1.804      2.392
REMARK  5 active torsions:
REMARK  status: ('A' for Active; 'I' for Inactive)
REMARK    1  A    between atoms: C_2  and  C_3 
REMARK    2  A    between atoms: C_3  and  N_4 
REMARK    3  A    between atoms: C_3  and  C_19 
REMARK       I    between atoms: N_4  and  C_5 
REMARK    4  A    between atoms: C_5  and  C_6 
REMARK    5  A    between atoms: C_7  and  C_8 
ROOT
HETATM    1  N   UNL     1      -3.649   3.440 -31.930  1.00  0.00    -0.345 N 
HETATM    2  C   UNL     1      -5.016   3.349 -31.839  1.00  0.00     0.255 C 
HETATM    3  O   UNL     1      -5.762   4.251 -32.208  1.00  0.00    -0.268 OA
HETATM    4  H   UNL     1      -3.073   2.749 -31.472  1.00  0.00     0.163 HD
ENDROOT
BRANCH   2   5
HETATM    5  C   UNL     1      -5.509   2.092 -31.296  1.00  0.00     0.075 A 
HETATM    6  C   UNL     1      -5.678   0.844 -31.975  1.00  0.00     0.076 A 
HETATM    7  N   UNL     1      -6.162  -0.097 -31.148  1.00  0.00    -0.178 NA
HETATM    8  N   UNL     1      -6.305   0.528 -29.975  1.00  0.00    -0.288 N 
HETATM    9  H   UNL     1      -6.674  -0.004 -29.193  1.00  0.00     0.188 HD
HETATM   10  C   UNL     1      -5.920   1.833 -30.002  1.00  0.00     0.128 A 
BRANCH   6  11
HETATM   11  C   UNL     1      -5.360   0.530 -33.424  1.00  0.00     0.040 C 
HETATM   12  C   UNL     1      -4.260  -0.541 -33.558  1.00  0.00     0.011 C 
HETATM   13  C   UNL     1      -4.771  -1.955 -33.293  1.00  0.00     0.001 C 
HETATM   14  C   UNL     1      -5.937  -2.301 -34.211  1.00  0.00     0.000 C 
HETATM   15  C   UNL     1      -7.067  -1.287 -34.088  1.00  0.00     0.001 C 
HETATM   16  C   UNL     1      -6.580   0.152 -34.288  1.00  0.00     0.011 C 
ENDBRANCH   6  11
ENDBRANCH   2   5
BRANCH   1  17
HETATM   17  C   UNL     1      -2.990   4.640 -32.406  1.00  0.00     0.154 C 
BRANCH  17  18
HETATM   18  C   UNL     1      -2.351   4.409 -33.782  1.00  0.00     0.028 C 
HETATM   19  C   UNL     1      -1.872   5.707 -34.421  1.00  0.00     0.007 C 
ENDBRANCH  17  18
BRANCH  17  20
HETATM   20  C   UNL     1      -1.967   5.016 -31.376  1.00  0.00     0.127 A 
HETATM   21  N   UNL     1      -0.801   4.443 -31.148  1.00  0.00    -0.237 NA
HETATM   22  C   UNL     1      -0.234   5.141 -30.108  1.00  0.00     0.048 A 
HETATM   23  C   UNL     1       1.107   4.785 -29.598  1.00  0.00     0.072 C 
HETATM   24  C   UNL     1      -1.084   6.140 -29.686  1.00  0.00     0.116 A 
HETATM   25  N   UNL     1      -2.186   6.041 -30.487  1.00  0.00    -0.351 N 
HETATM   26  H   UNL     1      -3.029   6.599 -30.437  1.00  0.00     0.166 HD
ENDBRANCH  17  20
ENDBRANCH   1  17
TORSDOF 5
ENDMDL
MODEL 3
REMARK VINA RESULT:      -7.2      2.989      7.642
REMARK  5 active torsions:
REMARK  status: ('A' for Active; 'I' for Inactive)
REMARK    1  A    between atoms: C_2  and  C_3 
REMARK    2  A    between atoms: C_3  and  N_4 
REMARK    3  A    between atoms: C_3  and  C_19 
REMARK       I    between atoms: N_4  and  C_5 
REMARK    4  A    between atoms: C_5  and  C_6 
REMARK    5  A    between atoms: C_7  and  C_8 
ROOT
HETATM    1  N   UNL     1      -4.766   1.565 -33.002  1.00  0.00    -0.345 N 
HETATM    2  C   UNL     1      -4.652   2.587 -32.092  1.00  0.00     0.255 C 
HETATM    3  O   UNL     1      -4.299   2.399 -30.932  1.00  0.00    -0.268 OA
HETATM    4  H   UNL     1      -5.208   1.738 -33.893  1.00  0.00     0.163 HD
ENDROOT
BRANCH   2   5
HETATM    5  C   UNL     1      -4.956   3.908 -32.618  1.00  0.00     0.075 A 
HETATM    6  C   UNL     1      -4.065   4.836 -33.245  1.00  0.00     0.076 A 
HETATM    7  N   UNL     1      -4.704   5.961 -33.600  1.00  0.00    -0.178 NA
HETATM    8  N   UNL     1      -5.968   5.767 -33.209  1.00  0.00    -0.288 N 
HETATM    9  H   UNL     1      -6.638   6.512 -33.373  1.00  0.00     0.188 HD
HETATM   10  C   UNL     1      -6.178   4.554 -32.627  1.00  0.00     0.128 A 
BRANCH   6  11
HETATM   11  C   UNL     1      -2.587   4.647 -33.531  1.00  0.00     0.040 C 
HETATM   12  C   UNL     1      -2.068   5.642 -34.586  1.00  0.00     0.011 C 
HETATM   13  C   UNL     1      -1.850   7.045 -34.026  1.00  0.00     0.001 C 
HETATM   14  C   UNL     1      -0.900   7.021 -32.834  1.00  0.00     0.000 C 
HETATM   15  C   UNL     1      -1.390   6.074 -31.745  1.00  0.00     0.001 C 
HETATM   16  C   UNL     1      -1.678   4.670 -32.285  1.00  0.00     0.011 C 
ENDBRANCH   6  11
ENDBRANCH   2   5
BRANCH   1  17
HETATM   17  C   UNL     1      -4.542   0.180 -32.633  1.00  0.00     0.154 C 
BRANCH  17  18
HETATM   18  C   UNL     1      -3.073  -0.213 -32.835  1.00  0.00     0.028 C 
HETATM   19  C   UNL     1      -2.523  -1.012 -31.659  1.00  0.00     0.007 C 
ENDBRANCH  17  18
BRANCH  17  20
HETATM   20  C   UNL     1      -5.461  -0.651 -33.479  1.00  0.00     0.127 A 
HETATM   21  N   UNL     1      -5.453  -1.961 -33.633  1.00  0.00    -0.237 NA
HETATM   22  C   UNL     1      -6.479  -2.245 -34.502  1.00  0.00     0.048 A 
HETATM   23  C   UNL     1      -6.783  -3.641 -34.886  1.00  0.00     0.072 C 
HETATM   24  C   UNL     1      -7.103  -1.083 -34.898  1.00  0.00     0.116 A 
HETATM   25  N   UNL     1      -6.439  -0.077 -34.254  1.00  0.00    -0.351 N 
HETATM   26  H   UNL     1      -6.609   0.917 -34.337  1.00  0.00     0.166 HD
ENDBRANCH  17  20
ENDBRANCH   1  17
TORSDOF 5
ENDMDL
MODEL 4
REMARK VINA RESULT:      -7.2      2.241      3.626
REMARK  5 active torsions:
REMARK  status: ('A' for Active; 'I' for Inactive)
REMARK    1  A    between atoms: C_2  and  C_3 
REMARK    2  A    between atoms: C_3  and  N_4 
REMARK    3  A    between atoms: C_3  and  C_19 
REMARK       I    between atoms: N_4  and  C_5 
REMARK    4  A    between atoms: C_5  and  C_6 
REMARK    5  A    between atoms: C_7  and  C_8 
ROOT
HETATM    1  N   UNL     1      -3.877   3.065 -32.139  1.00  0.00    -0.345 N 
HETATM    2  C   UNL     1      -4.437   2.193 -31.239  1.00  0.00     0.255 C 
HETATM    3  O   UNL     1      -5.102   2.573 -30.280  1.00  0.00    -0.268 OA
HETATM    4  H   UNL     1      -3.211   2.723 -32.815  1.00  0.00     0.163 HD
ENDROOT
BRANCH   2   5
HETATM    5  C   UNL     1      -4.202   0.786 -31.526  1.00  0.00     0.075 A 
HETATM    6  C   UNL     1      -5.136  -0.184 -32.009  1.00  0.00     0.076 A 
HETATM    7  N   UNL     1      -4.557  -1.387 -32.152  1.00  0.00    -0.178 NA
HETATM    8  N   UNL     1      -3.290  -1.199 -31.767  1.00  0.00    -0.288 N 
HETATM    9  H   UNL     1      -2.663  -1.996 -31.785  1.00  0.00     0.188 HD
HETATM   10  C   UNL     1      -3.020   0.082 -31.394  1.00  0.00     0.128 A 
BRANCH   6  11
HETATM   11  C   UNL     1      -6.595   0.033 -32.360  1.00  0.00     0.040 C 
HETATM   12  C   UNL     1      -6.840   1.418 -32.990  1.00  0.00     0.011 C 
HETATM   13  C   UNL     1      -6.408   1.492 -34.452  1.00  0.00     0.001 C 
HETATM   14  C   UNL     1      -7.099   0.419 -35.287  1.00  0.00     0.000 C 
HETATM   15  C   UNL     1      -6.856  -0.974 -34.721  1.00  0.00     0.001 C 
HETATM   16  C   UNL     1      -7.222  -1.070 -33.237  1.00  0.00     0.011 C 
ENDBRANCH   6  11
ENDBRANCH   2   5
BRANCH   1  17
HETATM   17  C   UNL     1      -3.976   4.503 -31.978  1.00  0.00     0.154 C 
BRANCH  17  18
HETATM   18  C   UNL     1      -4.255   5.189 -33.321  1.00  0.00     0.028 C 
HETATM   19  C   UNL     1      -5.724   5.104 -33.718  1.00  0.00     0.007 C 
ENDBRANCH  17  18
BRANCH  17  20
HETATM   20  C   UNL     1      -2.683   4.966 -31.376  1.00  0.00     0.127 A 
HETATM   21  N   UNL     1      -1.471   4.499 -31.608  1.00  0.00    -0.237 NA
HETATM   22  C   UNL     1      -0.624   5.242 -30.821  1.00  0.00     0.048 A 
HETATM   23  C   UNL     1       0.836   5.007 -30.846  1.00  0.00     0.072 C 
HETATM   24  C   UNL     1      -1.340   6.159 -30.083  1.00  0.00     0.116 A 
HETATM   25  N   UNL     1      -2.646   5.964 -30.433  1.00  0.00    -0.351 N 
HETATM   26  H   UNL     1      -3.456   6.444 -30.060  1.00  0.00     0.166 HD
ENDBRANCH  17  20
ENDBRANCH   1  17
TORSDOF 5
ENDMDL
MODEL 5
REMARK VINA RESULT:      -7.0      2.882      4.124
REMARK  5 active torsions:
REMARK  status: ('A' for Active; 'I' for Inactive)
REMARK    1  A    between atoms: C_2  and  C_3 
REMARK    2  A    between atoms: C_3  and  N_4 
REMARK    3  A    between atoms: C_3  and  C_19 
REMARK       I    between atoms: N_4  and  C_5 
REMARK    4  A    between atoms: C_5  and  C_6 
REMARK    5  A    between atoms: C_7  and  C_8 
ROOT
HETATM    1  N   UNL     1      -4.594   3.598 -30.725  1.00  0.00    -0.345 N 
HETATM    2  C   UNL     1      -4.141   2.316 -30.918  1.00  0.00     0.255 C 
HETATM    3  O   UNL     1      -2.960   2.059 -31.128  1.00  0.00    -0.268 OA
HETATM    4  H   UNL     1      -5.586   3.779 -30.714  1.00  0.00     0.163 HD
ENDROOT
BRANCH   2   5
HETATM    5  C   UNL     1      -5.166   1.288 -30.828  1.00  0.00     0.075 A 
HETATM    6  C   UNL     1      -5.616   0.398 -31.854  1.00  0.00     0.076 A 
HETATM    7  N   UNL     1      -6.584  -0.416 -31.402  1.00  0.00    -0.178 NA
HETATM    8  N   UNL     1      -6.756  -0.057 -30.126  1.00  0.00    -0.288 N 
HETATM    9  H   UNL     1      -7.462  -0.545 -29.584  1.00  0.00     0.188 HD
HETATM   10  C   UNL     1      -5.929   0.947 -29.726  1.00  0.00     0.128 A 
BRANCH   6  11
HETATM   11  C   UNL     1      -5.110   0.301 -33.280  1.00  0.00     0.040 C 
HETATM   12  C   UNL     1      -3.909  -0.656 -33.407  1.00  0.00     0.011 C 
HETATM   13  C   UNL     1      -4.315  -2.126 -33.380  1.00  0.00     0.001 C 
HETATM   14  C   UNL     1      -5.334  -2.438 -34.469  1.00  0.00     0.000 C 
HETATM   15  C   UNL     1      -6.559  -1.537 -34.365  1.00  0.00     0.001 C 
HETATM   16  C   UNL     1      -6.186  -0.052 -34.327  1.00  0.00     0.011 C 
ENDBRANCH   6  11
ENDBRANCH   2   5
BRANCH   1  17
HETATM   17  C   UNL     1      -3.713   4.746 -30.824  1.00  0.00     0.154 C 
BRANCH  17  18
HETATM   18  C   UNL     1      -4.372   5.999 -30.233  1.00  0.00     0.028 C 
HETATM   19  C   UNL     1      -5.683   5.681 -29.524  1.00  0.00     0.007 C 
ENDBRANCH  17  18
BRANCH  17  20
HETATM   20  C   UNL     1      -3.389   4.923 -32.278  1.00  0.00     0.127 A 
HETATM   21  N   UNL     1      -2.196   4.956 -32.841  1.00  0.00    -0.237 NA
HETATM   22  C   UNL     1      -2.418   5.140 -34.185  1.00  0.00     0.048 A 
HETATM   23  C   UNL     1      -1.290   5.200 -35.139  1.00  0.00     0.072 C 
HETATM   24  C   UNL     1      -3.769   5.242 -34.435  1.00  0.00     0.116 A 
HETATM   25  N   UNL     1      -4.374   5.118 -33.216  1.00  0.00    -0.351 N 
HETATM   26  H   UNL     1      -5.364   5.177 -33.017  1.00  0.00     0.166 HD
ENDBRANCH  17  20
ENDBRANCH   1  17
TORSDOF 5
ENDMDL
MODEL 6
REMARK VINA RESULT:      -6.9     18.214     19.650
REMARK  5 active torsions:
REMARK  status: ('A' for Active; 'I' for Inactive)
REMARK    1  A    between atoms: C_2  and  C_3 
REMARK    2  A    between atoms: C_3  and  N_4 
REMARK    3  A    between atoms: C_3  and  C_19 
REMARK       I    between atoms: N_4  and  C_5 
REMARK    4  A    between atoms: C_5  and  C_6 
REMARK    5  A    between atoms: C_7  and  C_8 
ROOT
HETATM    1  N   UNL     1      -4.637 -13.767 -37.476  1.00  0.00    -0.345 N 
HETATM    2  C   UNL     1      -4.469 -12.758 -38.391  1.00  0.00     0.255 C 
HETATM    3  O   UNL     1      -3.820 -11.746 -38.144  1.00  0.00    -0.268 OA
HETATM    4  H   UNL     1      -5.304 -14.501 -37.660  1.00  0.00     0.163 HD
ENDROOT
BRANCH   2   5
HETATM    5  C   UNL     1      -5.099 -12.994 -39.681  1.00  0.00     0.075 A 
HETATM    6  C   UNL     1      -6.483 -12.875 -40.023  1.00  0.00     0.076 A 
HETATM    7  N   UNL     1      -6.693 -13.178 -41.313  1.00  0.00    -0.178 NA
HETATM    8  N   UNL     1      -5.482 -13.489 -41.787  1.00  0.00    -0.288 N 
HETATM    9  H   UNL     1      -5.407 -13.765 -42.761  1.00  0.00     0.188 HD
HETATM   10  C   UNL     1      -4.492 -13.385 -40.860  1.00  0.00     0.128 A 
BRANCH   6  11
HETATM   11  C   UNL     1      -7.624 -12.450 -39.119  1.00  0.00     0.040 C 
HETATM   12  C   UNL     1      -8.876 -12.038 -39.917  1.00  0.00     0.011 C 
HETATM   13  C   UNL     1      -9.658 -13.233 -40.455  1.00  0.00     0.001 C 
HETATM   14  C   UNL     1     -10.057 -14.182 -39.331  1.00  0.00     0.000 C 
HETATM   15  C   UNL     1      -8.845 -14.645 -38.531  1.00  0.00     0.001 C 
HETATM   16  C   UNL     1      -8.001 -13.471 -38.026  1.00  0.00     0.011 C 
ENDBRANCH   6  11
ENDBRANCH   2   5
BRANCH   1  17
HETATM   17  C   UNL     1      -4.112 -13.675 -36.127  1.00  0.00     0.154 C 
BRANCH  17  18
HETATM   18  C   UNL     1      -3.025 -14.730 -35.884  1.00  0.00     0.028 C 
HETATM   19  C   UNL     1      -1.653 -14.263 -36.356  1.00  0.00     0.007 C 
ENDBRANCH  17  18
BRANCH  17  20
HETATM   20  C   UNL     1      -5.273 -13.850 -35.194  1.00  0.00     0.127 A 
HETATM   21  N   UNL     1      -5.633 -14.942 -34.547  1.00  0.00    -0.237 NA
HETATM   22  C   UNL     1      -6.753 -14.602 -33.826  1.00  0.00     0.048 A 
HETATM   23  C   UNL     1      -7.420 -15.590 -32.951  1.00  0.00     0.072 C 
HETATM   24  C   UNL     1      -7.089 -13.287 -34.060  1.00  0.00     0.116 A 
HETATM   25  N   UNL     1      -6.152 -12.824 -34.940  1.00  0.00    -0.351 N 
HETATM   26  H   UNL     1      -6.109 -11.903 -35.357  1.00  0.00     0.166 HD
ENDBRANCH  17  20
ENDBRANCH   1  17
TORSDOF 5
ENDMDL
MODEL 7
REMARK VINA RESULT:      -6.9      2.510      7.201
REMARK  5 active torsions:
REMARK  status: ('A' for Active; 'I' for Inactive)
REMARK    1  A    between atoms: C_2  and  C_3 
REMARK    2  A    between atoms: C_3  and  N_4 
REMARK    3  A    between atoms: C_3  and  C_19 
REMARK       I    between atoms: N_4  and  C_5 
REMARK    4  A    between atoms: C_5  and  C_6 
REMARK    5  A    between atoms: C_7  and  C_8 
ROOT
HETATM    1  N   UNL     1      -5.233   1.235 -32.708  1.00  0.00    -0.345 N 
HETATM    2  C   UNL     1      -5.361   2.559 -33.047  1.00  0.00     0.255 C 
HETATM    3  O   UNL     1      -5.797   2.921 -34.136  1.00  0.00    -0.268 OA
HETATM    4  H   UNL     1      -4.726   0.981 -31.873  1.00  0.00     0.163 HD
ENDROOT
BRANCH   2   5
HETATM    5  C   UNL     1      -4.964   3.495 -32.007  1.00  0.00     0.075 A 
HETATM    6  C   UNL     1      -3.735   4.220 -31.893  1.00  0.00     0.076 A 
HETATM    7  N   UNL     1      -3.724   4.990 -30.794  1.00  0.00    -0.178 NA
HETATM    8  N   UNL     1      -4.908   4.765 -30.214  1.00  0.00    -0.288 N 
HETATM    9  H   UNL     1      -5.113   5.246 -29.344  1.00  0.00     0.188 HD
HETATM   10  C   UNL     1      -5.693   3.890 -30.900  1.00  0.00     0.128 A 
BRANCH   6  11
HETATM   11  C   UNL     1      -2.559   4.198 -32.850  1.00  0.00     0.040 C 
HETATM   12  C   UNL     1      -2.888   4.883 -34.190  1.00  0.00     0.011 C 
HETATM   13  C   UNL     1      -2.873   6.407 -34.100  1.00  0.00     0.001 C 
HETATM   14  C   UNL     1      -1.533   6.915 -33.580  1.00  0.00     0.000 C 
HETATM   15  C   UNL     1      -1.179   6.290 -32.236  1.00  0.00     0.001 C 
HETATM   16  C   UNL     1      -1.243   4.760 -32.273  1.00  0.00     0.011 C 
ENDBRANCH   6  11
ENDBRANCH   2   5
BRANCH   1  17
HETATM   17  C   UNL     1      -5.542   0.170 -33.642  1.00  0.00     0.154 C 
BRANCH  17  18
HETATM   18  C   UNL     1      -7.041  -0.154 -33.633  1.00  0.00     0.028 C 
HETATM   19  C   UNL     1      -7.678   0.020 -35.007  1.00  0.00     0.007 C 
ENDBRANCH  17  18
BRANCH  17  20
HETATM   20  C   UNL     1      -4.715  -1.016 -33.243  1.00  0.00     0.127 A 
HETATM   21  N   UNL     1      -4.727  -2.225 -33.771  1.00  0.00    -0.237 NA
HETATM   22  C   UNL     1      -3.802  -2.955 -33.065  1.00  0.00     0.048 A 
HETATM   23  C   UNL     1      -3.529  -4.368 -33.407  1.00  0.00     0.072 C 
HETATM   24  C   UNL     1      -3.237  -2.180 -32.076  1.00  0.00     0.116 A 
HETATM   25  N   UNL     1      -3.835  -0.956 -32.190  1.00  0.00    -0.351 N 
HETATM   26  H   UNL     1      -3.685  -0.147 -31.601  1.00  0.00     0.166 HD
ENDBRANCH  17  20
ENDBRANCH   1  17
TORSDOF 5
ENDMDL
MODEL 8
REMARK VINA RESULT:      -6.8      5.195      7.501
REMARK  5 active torsions:
REMARK  status: ('A' for Active; 'I' for Inactive)
REMARK    1  A    between atoms: C_2  and  C_3 
REMARK    2  A    between atoms: C_3  and  N_4 
REMARK    3  A    between atoms: C_3  and  C_19 
REMARK       I    between atoms: N_4  and  C_5 
REMARK    4  A    between atoms: C_5  and  C_6 
REMARK    5  A    between atoms: C_7  and  C_8 
ROOT
HETATM    1  N   UNL     1      -6.214   0.285 -32.843  1.00  0.00    -0.345 N 
HETATM    2  C   UNL     1      -5.989   1.618 -32.603  1.00  0.00     0.255 C 
HETATM    3  O   UNL     1      -5.377   2.335 -33.389  1.00  0.00    -0.268 OA
HETATM    4  H   UNL     1      -6.579  -0.300 -32.106  1.00  0.00     0.163 HD
ENDROOT
BRANCH   2   5
HETATM    5  C   UNL     1      -6.555   2.116 -31.359  1.00  0.00     0.075 A 
HETATM    6  C   UNL     1      -7.543   3.136 -31.184  1.00  0.00     0.076 A 
HETATM    7  N   UNL     1      -7.816   3.331 -29.885  1.00  0.00    -0.178 NA
HETATM    8  N   UNL     1      -7.024   2.468 -29.241  1.00  0.00    -0.288 N 
HETATM    9  H   UNL     1      -7.060   2.452 -28.227  1.00  0.00     0.188 HD
HETATM   10  C   UNL     1      -6.257   1.709 -30.071  1.00  0.00     0.128 A 
BRANCH   6  11
HETATM   11  C   UNL     1      -8.256   3.925 -32.265  1.00  0.00     0.040 C 
HETATM   12  C   UNL     1      -9.036   3.014 -33.231  1.00  0.00     0.011 C 
HETATM   13  C   UNL     1     -10.349   2.507 -32.642  1.00  0.00     0.001 C 
HETATM   14  C   UNL     1     -11.238   3.664 -32.199  1.00  0.00     0.000 C 
HETATM   15  C   UNL     1     -10.519   4.577 -31.213  1.00  0.00     0.001 C 
HETATM   16  C   UNL     1      -9.167   5.057 -31.748  1.00  0.00     0.011 C 
ENDBRANCH   6  11
ENDBRANCH   2   5
BRANCH   1  17
HETATM   17  C   UNL     1      -5.683  -0.384 -34.015  1.00  0.00     0.154 C 
BRANCH  17  18
HETATM   18  C   UNL     1      -6.813  -0.899 -34.916  1.00  0.00     0.028 C 
HETATM   19  C   UNL     1      -7.824   0.190 -35.253  1.00  0.00     0.007 C 
ENDBRANCH  17  18
BRANCH  17  20
HETATM   20  C   UNL     1      -4.812  -1.501 -33.523  1.00  0.00     0.127 A 
HETATM   21  N   UNL     1      -4.699  -2.718 -34.022  1.00  0.00    -0.237 NA
HETATM   22  C   UNL     1      -3.785  -3.368 -33.227  1.00  0.00     0.048 A 
HETATM   23  C   UNL     1      -3.389  -4.764 -33.513  1.00  0.00     0.072 C 
HETATM   24  C   UNL     1      -3.355  -2.536 -32.216  1.00  0.00     0.116 A 
HETATM   25  N   UNL     1      -4.025  -1.360 -32.406  1.00  0.00    -0.351 N 
HETATM   26  H   UNL     1      -3.978  -0.531 -31.827  1.00  0.00     0.166 HD
ENDBRANCH  17  20
ENDBRANCH   1  17
TORSDOF 5
ENDMDL
MODEL 9
REMARK VINA RESULT:      -6.7      2.833      4.310
REMARK  5 active torsions:
REMARK  status: ('A' for Active; 'I' for Inactive)
REMARK    1  A    between atoms: C_2  and  C_3 
REMARK    2  A    between atoms: C_3  and  N_4 
REMARK    3  A    between atoms: C_3  and  C_19 
REMARK       I    between atoms: N_4  and  C_5 
REMARK    4  A    between atoms: C_5  and  C_6 
REMARK    5  A    between atoms: C_7  and  C_8 
ROOT
HETATM    1  N   UNL     1      -6.388   4.056 -31.277  1.00  0.00    -0.345 N 
HETATM    2  C   UNL     1      -6.781   2.810 -30.853  1.00  0.00     0.255 C 
HETATM    3  O   UNL     1      -6.256   2.243 -29.900  1.00  0.00    -0.268 OA
HETATM    4  H   UNL     1      -6.733   4.415 -32.154  1.00  0.00     0.163 HD
ENDROOT
BRANCH   2   5
HETATM    5  C   UNL     1      -7.883   2.231 -31.605  1.00  0.00     0.075 A 
HETATM    6  C   UNL     1      -7.840   1.595 -32.887  1.00  0.00     0.076 A 
HETATM    7  N   UNL     1      -9.060   1.185 -33.267  1.00  0.00    -0.178 NA
HETATM    8  N   UNL     1      -9.866   1.549 -32.264  1.00  0.00    -0.288 N 
HETATM    9  H   UNL     1     -10.856   1.342 -32.348  1.00  0.00     0.188 HD
HETATM   10  C   UNL     1      -9.215   2.167 -31.240  1.00  0.00     0.128 A 
BRANCH   6  11
HETATM   11  C   UNL     1      -6.623   1.356 -33.758  1.00  0.00     0.040 C 
HETATM   12  C   UNL     1      -5.502   0.618 -33.000  1.00  0.00     0.011 C 
HETATM   13  C   UNL     1      -5.771  -0.876 -32.847  1.00  0.00     0.001 C 
HETATM   14  C   UNL     1      -5.994  -1.538 -34.202  1.00  0.00     0.000 C 
HETATM   15  C   UNL     1      -7.118  -0.863 -34.977  1.00  0.00     0.001 C 
HETATM   16  C   UNL     1      -6.913   0.650 -35.098  1.00  0.00     0.011 C 
ENDBRANCH   6  11
ENDBRANCH   2   5
BRANCH   1  17
HETATM   17  C   UNL     1      -5.275   4.758 -30.667  1.00  0.00     0.154 C 
BRANCH  17  18
HETATM   18  C   UNL     1      -5.663   6.198 -30.307  1.00  0.00     0.028 C 
HETATM   19  C   UNL     1      -4.521   6.952 -29.636  1.00  0.00     0.007 C 
ENDBRANCH  17  18
BRANCH  17  20
HETATM   20  C   UNL     1      -4.142   4.717 -31.649  1.00  0.00     0.127 A 
HETATM   21  N   UNL     1      -4.144   5.125 -32.904  1.00  0.00    -0.237 NA
HETATM   22  C   UNL     1      -2.881   4.877 -33.384  1.00  0.00     0.048 A 
HETATM   23  C   UNL     1      -2.512   5.238 -34.769  1.00  0.00     0.072 C 
HETATM   24  C   UNL     1      -2.107   4.288 -32.408  1.00  0.00     0.116 A 
HETATM   25  N   UNL     1      -2.923   4.178 -31.317  1.00  0.00    -0.351 N 
HETATM   26  H   UNL     1      -2.694   3.759 -30.424  1.00  0.00     0.166 HD
ENDBRANCH  17  20
ENDBRANCH   1  17
TORSDOF 5
ENDMDL
MODEL 10
REMARK VINA RESULT:      -6.5      3.313      5.772
REMARK  5 active torsions:
REMARK  status: ('A' for Active; 'I' for Inactive)
REMARK    1  A    between atoms: C_2  and  C_3 
REMARK    2  A    between atoms: C_3  and  N_4 
REMARK    3  A    between atoms: C_3  and  C_19 
REMARK       I    between atoms: N_4  and  C_5 
REMARK    4  A    between atoms: C_5  and  C_6 
REMARK    5  A    between atoms: C_7  and  C_8 
ROOT
HETATM    1  N   UNL     1      -5.084   2.612 -31.277  1.00  0.00    -0.345 N 
HETATM    2  C   UNL     1      -5.971   2.006 -30.422  1.00  0.00     0.255 C 
HETATM    3  O   UNL     1      -5.628   1.145 -29.618  1.00  0.00    -0.268 OA
HETATM    4  H   UNL     1      -5.431   3.194 -32.025  1.00  0.00     0.163 HD
ENDROOT
BRANCH   2   5
HETATM    5  C   UNL     1      -7.341   2.484 -30.527  1.00  0.00     0.075 A 
HETATM    6  C   UNL     1      -8.461   1.829 -31.132  1.00  0.00     0.076 A 
HETATM    7  N   UNL     1      -9.570   2.579 -31.041  1.00  0.00    -0.178 NA
HETATM    8  N   UNL     1      -9.177   3.685 -30.402  1.00  0.00    -0.288 N 
HETATM    9  H   UNL     1      -9.868   4.409 -30.232  1.00  0.00     0.188 HD
HETATM   10  C   UNL     1      -7.859   3.678 -30.061  1.00  0.00     0.128 A 
BRANCH   6  11
HETATM   11  C   UNL     1      -8.486   0.463 -31.790  1.00  0.00     0.040 C 
HETATM   12  C   UNL     1      -9.797   0.213 -32.560  1.00  0.00     0.011 C 
HETATM   13  C   UNL     1      -9.846   0.936 -33.902  1.00  0.00     0.001 C 
HETATM   14  C   UNL     1      -8.658   0.555 -34.778  1.00  0.00     0.000 C 
HETATM   15  C   UNL     1      -7.334   0.816 -34.072  1.00  0.00     0.001 C 
HETATM   16  C   UNL     1      -7.273   0.155 -32.691  1.00  0.00     0.011 C 
ENDBRANCH   6  11
ENDBRANCH   2   5
BRANCH   1  17
HETATM   17  C   UNL     1      -3.688   2.224 -31.335  1.00  0.00     0.154 C 
BRANCH  17  18
HETATM   18  C   UNL     1      -2.900   3.142 -32.279  1.00  0.00     0.028 C 
HETATM   19  C   UNL     1      -2.348   4.369 -31.563  1.00  0.00     0.007 C 
ENDBRANCH  17  18
BRANCH  17  20
HETATM   20  C   UNL     1      -3.649   0.796 -31.790  1.00  0.00     0.127 A 
HETATM   21  N   UNL     1      -4.102   0.296 -32.924  1.00  0.00    -0.237 NA
HETATM   22  C   UNL     1      -3.840  -1.052 -32.873  1.00  0.00     0.048 A 
HETATM   23  C   UNL     1      -4.194  -1.937 -34.004  1.00  0.00     0.072 C 
HETATM   24  C   UNL     1      -3.238  -1.376 -31.677  1.00  0.00     0.116 A 
HETATM   25  N   UNL     1      -3.136  -0.198 -30.992  1.00  0.00    -0.351 N 
HETATM   26  H   UNL     1      -2.771  -0.065 -30.057  1.00  0.00     0.166 HD
ENDBRANCH  17  20
ENDBRANCH   1  17
TORSDOF 5
ENDMDL
