MODEL 1
REMARK VINA RESULT:      -8.2      0.000      0.000
REMARK  5 active torsions:
REMARK  status: ('A' for Active; 'I' for Inactive)
REMARK    1  A    between atoms: C_4  and  S_5 
REMARK    2  A    between atoms: S_5  and  C_6 
REMARK    3  A    between atoms: C_6  and  C_7 
REMARK       I    between atoms: C_7  and  N_8 
REMARK    4  A    between atoms: N_8  and  C_9 
REMARK    5  A    between atoms: C_11  and  C_12 
ROOT
HETATM    1  C   UNL     1      -5.772   0.692 -33.557  1.00  0.00     0.035 A 
HETATM    2  C   UNL     1      -5.404  -0.653 -33.662  1.00  0.00     0.042 A 
HETATM    3  C   UNL     1      -6.111  -1.544 -34.488  1.00  0.00    -0.021 A 
HETATM    4  C   UNL     1      -7.201  -1.057 -35.221  1.00  0.00     0.012 A 
HETATM    5  C   UNL     1      -7.571   0.286 -35.133  1.00  0.00     0.003 A 
HETATM    6  C   UNL     1      -6.859   1.155 -34.306  1.00  0.00     0.029 A 
ENDROOT
BRANCH   1   7
HETATM    7  N   UNL     1      -5.109   1.629 -32.738  1.00  0.00    -0.327 N 
HETATM    8  C   UNL     1      -5.461   2.046 -31.468  1.00  0.00     0.231 C 
HETATM    9  O   UNL     1      -6.429   1.645 -30.823  1.00  0.00    -0.272 OA
HETATM   10  H   UNL     1      -4.322   2.118 -33.151  1.00  0.00     0.169 HD
BRANCH   8  11
HETATM   11  C   UNL     1      -4.491   3.027 -30.821  1.00  0.00     0.182 C 
BRANCH  11  12
HETATM   12  S   UNL     1      -4.849   4.770 -31.230  1.00  0.00    -0.121 SA
BRANCH  12  13
HETATM   13  C   UNL     1      -3.813   4.930 -32.673  1.00  0.00     0.001 A 
HETATM   14  C   UNL     1      -2.426   4.811 -32.549  1.00  0.00     0.018 A 
HETATM   15  C   UNL     1      -1.606   4.945 -33.672  1.00  0.00     0.001 A 
HETATM   16  C   UNL     1      -2.170   5.189 -34.924  1.00  0.00     0.000 A 
HETATM   17  C   UNL     1      -3.553   5.292 -35.056  1.00  0.00     0.001 A 
HETATM   18  C   UNL     1      -4.373   5.158 -33.934  1.00  0.00     0.018 A 
ENDBRANCH  12  13
ENDBRANCH  11  12
ENDBRANCH   8  11
ENDBRANCH   1   7
BRANCH   3  19
HETATM   19  C   UNL     1      -5.710  -2.943 -34.559  1.00  0.00     0.010 A 
HETATM   20  C   UNL     1      -6.416  -4.085 -35.014  1.00  0.00     0.152 A 
HETATM   21  N   UNL     1      -5.707  -5.212 -34.913  1.00  0.00    -0.187 NA
HETATM   22  N   UNL     1      -4.544  -4.801 -34.385  1.00  0.00    -0.289 N 
HETATM   23  H   UNL     1      -3.827  -5.495 -34.206  1.00  0.00     0.188 HD
HETATM   24  C   UNL     1      -4.495  -3.456 -34.155  1.00  0.00     0.123 A 
ENDBRANCH   3  19
TORSDOF 5
ENDMDL
MODEL 2
REMARK VINA RESULT:      -7.9      4.323      7.220
REMARK  5 active torsions:
REMARK  status: ('A' for Active; 'I' for Inactive)
REMARK    1  A    between atoms: C_4  and  S_5 
REMARK    2  A    between atoms: S_5  and  C_6 
REMARK    3  A    between atoms: C_6  and  C_7 
REMARK       I    between atoms: C_7  and  N_8 
REMARK    4  A    between atoms: N_8  and  C_9 
REMARK    5  A    between atoms: C_11  and  C_12 
ROOT
HETATM    1  C   UNL     1      -8.836   1.226 -33.529  1.00  0.00     0.035 A 
HETATM    2  C   UNL     1     -10.142   0.732 -33.467  1.00  0.00     0.042 A 
HETATM    3  C   UNL     1     -11.246   1.533 -33.809  1.00  0.00    -0.021 A 
HETATM    4  C   UNL     1     -11.014   2.850 -34.224  1.00  0.00     0.012 A 
HETATM    5  C   UNL     1      -9.714   3.352 -34.300  1.00  0.00     0.003 A 
HETATM    6  C   UNL     1      -8.631   2.542 -33.955  1.00  0.00     0.029 A 
ENDROOT
BRANCH   1   7
HETATM    7  N   UNL     1      -7.692   0.474 -33.189  1.00  0.00    -0.327 N 
HETATM    8  C   UNL     1      -7.030   0.437 -31.976  1.00  0.00     0.231 C 
HETATM    9  O   UNL     1      -7.349   1.060 -30.964  1.00  0.00    -0.272 OA
HETATM   10  H   UNL     1      -7.249  -0.045 -33.939  1.00  0.00     0.169 HD
BRANCH   8  11
HETATM   11  C   UNL     1      -5.859  -0.535 -31.912  1.00  0.00     0.182 C 
BRANCH  11  12
HETATM   12  S   UNL     1      -4.846  -0.543 -33.431  1.00  0.00    -0.121 SA
BRANCH  12  13
HETATM   13  C   UNL     1      -5.162  -2.217 -33.962  1.00  0.00     0.001 A 
HETATM   14  C   UNL     1      -4.175  -3.193 -33.803  1.00  0.00     0.018 A 
HETATM   15  C   UNL     1      -4.409  -4.504 -34.224  1.00  0.00     0.001 A 
HETATM   16  C   UNL     1      -5.635  -4.846 -34.797  1.00  0.00     0.000 A 
HETATM   17  C   UNL     1      -6.628  -3.879 -34.943  1.00  0.00     0.001 A 
HETATM   18  C   UNL     1      -6.394  -2.569 -34.522  1.00  0.00     0.018 A 
ENDBRANCH  12  13
ENDBRANCH  11  12
ENDBRANCH   8  11
ENDBRANCH   1   7
BRANCH   3  19
HETATM   19  C   UNL     1     -12.595   0.990 -33.715  1.00  0.00     0.010 A 
HETATM   20  C   UNL     1     -13.854   1.640 -33.708  1.00  0.00     0.152 A 
HETATM   21  N   UNL     1     -14.879   0.791 -33.598  1.00  0.00    -0.187 NA
HETATM   22  N   UNL     1     -14.284  -0.408 -33.526  1.00  0.00    -0.289 N 
HETATM   23  H   UNL     1     -14.869  -1.230 -33.431  1.00  0.00     0.188 HD
HETATM   24  C   UNL     1     -12.921  -0.345 -33.592  1.00  0.00     0.123 A 
ENDBRANCH   3  19
TORSDOF 5
ENDMDL
MODEL 3
REMARK VINA RESULT:      -7.9      1.553      2.172
REMARK  5 active torsions:
REMARK  status: ('A' for Active; 'I' for Inactive)
REMARK    1  A    between atoms: C_4  and  S_5 
REMARK    2  A    between atoms: S_5  and  C_6 
REMARK    3  A    between atoms: C_6  and  C_7 
REMARK       I    between atoms: C_7  and  N_8 
REMARK    4  A    between atoms: N_8  and  C_9 
REMARK    5  A    between atoms: C_11  and  C_12 
ROOT
HETATM    1  C   UNL     1      -5.357   0.444 -33.556  1.00  0.00     0.035 A 
HETATM    2  C   UNL     1      -4.952  -0.887 -33.699  1.00  0.00     0.042 A 
HETATM    3  C   UNL     1      -5.802  -1.853 -34.266  1.00  0.00    -0.021 A 
HETATM    4  C   UNL     1      -7.073  -1.457 -34.698  1.00  0.00     0.012 A 
HETATM    5  C   UNL     1      -7.484  -0.129 -34.570  1.00  0.00     0.003 A 
HETATM    6  C   UNL     1      -6.628   0.816 -34.003  1.00  0.00     0.029 A 
ENDROOT
BRANCH   1   7
HETATM    7  N   UNL     1      -4.554   1.454 -32.986  1.00  0.00    -0.327 N 
HETATM    8  C   UNL     1      -4.214   1.619 -31.656  1.00  0.00     0.231 C 
HETATM    9  O   UNL     1      -4.554   0.882 -30.731  1.00  0.00    -0.272 OA
HETATM   10  H   UNL     1      -4.248   2.197 -33.606  1.00  0.00     0.169 HD
BRANCH   8  11
HETATM   11  C   UNL     1      -3.269   2.780 -31.374  1.00  0.00     0.182 C 
BRANCH  11  12
HETATM   12  S   UNL     1      -3.261   4.040 -32.695  1.00  0.00    -0.121 SA
BRANCH  12  13
HETATM   13  C   UNL     1      -1.901   5.037 -32.114  1.00  0.00     0.001 A 
HETATM   14  C   UNL     1      -1.622   6.259 -32.732  1.00  0.00     0.018 A 
HETATM   15  C   UNL     1      -0.553   7.042 -32.290  1.00  0.00     0.001 A 
HETATM   16  C   UNL     1       0.236   6.611 -31.223  1.00  0.00     0.000 A 
HETATM   17  C   UNL     1      -0.048   5.401 -30.593  1.00  0.00     0.001 A 
HETATM   18  C   UNL     1      -1.117   4.618 -31.034  1.00  0.00     0.018 A 
ENDBRANCH  12  13
ENDBRANCH  11  12
ENDBRANCH   8  11
ENDBRANCH   1   7
BRANCH   3  19
HETATM   19  C   UNL     1      -5.354  -3.235 -34.383  1.00  0.00     0.010 A 
HETATM   20  C   UNL     1      -6.021  -4.384 -34.876  1.00  0.00     0.152 A 
HETATM   21  N   UNL     1      -5.274  -5.489 -34.813  1.00  0.00    -0.187 NA
HETATM   22  N   UNL     1      -4.126  -5.058 -34.272  1.00  0.00    -0.289 N 
HETATM   23  H   UNL     1      -3.385  -5.732 -34.115  1.00  0.00     0.188 HD
HETATM   24  C   UNL     1      -4.121  -3.720 -33.997  1.00  0.00     0.123 A 
ENDBRANCH   3  19
TORSDOF 5
ENDMDL
MODEL 4
REMARK VINA RESULT:      -7.8      4.722      7.045
REMARK  5 active torsions:
REMARK  status: ('A' for Active; 'I' for Inactive)
REMARK    1  A    between atoms: C_4  and  S_5 
REMARK    2  A    between atoms: S_5  and  C_6 
REMARK    3  A    between atoms: C_6  and  C_7 
REMARK       I    between atoms: C_7  and  N_8 
REMARK    4  A    between atoms: N_8  and  C_9 
REMARK    5  A    between atoms: C_11  and  C_12 
ROOT
HETATM    1  C   UNL     1      -7.726   0.433 -34.419  1.00  0.00     0.035 A 
HETATM    2  C   UNL     1      -7.429  -0.916 -34.636  1.00  0.00     0.042 A 
HETATM    3  C   UNL     1      -6.191  -1.463 -34.256  1.00  0.00    -0.021 A 
HETATM    4  C   UNL     1      -5.249  -0.628 -33.642  1.00  0.00     0.012 A 
HETATM    5  C   UNL     1      -5.538   0.717 -33.411  1.00  0.00     0.003 A 
HETATM    6  C   UNL     1      -6.772   1.243 -33.797  1.00  0.00     0.029 A 
ENDROOT
BRANCH   1   7
HETATM    7  N   UNL     1      -8.945   1.040 -34.787  1.00  0.00    -0.327 N 
HETATM    8  C   UNL     1     -10.105   1.137 -34.042  1.00  0.00     0.231 C 
HETATM    9  O   UNL     1     -10.262   0.711 -32.898  1.00  0.00    -0.272 OA
HETATM   10  H   UNL     1      -9.014   1.380 -35.741  1.00  0.00     0.169 HD
BRANCH   8  11
HETATM   11  C   UNL     1     -11.232   1.919 -34.706  1.00  0.00     0.182 C 
BRANCH  11  12
HETATM   12  S   UNL     1     -11.682   3.441 -33.803  1.00  0.00    -0.121 SA
BRANCH  12  13
HETATM   13  C   UNL     1     -13.300   2.953 -33.234  1.00  0.00     0.001 A 
HETATM   14  C   UNL     1     -13.836   1.726 -33.636  1.00  0.00     0.018 A 
HETATM   15  C   UNL     1     -15.107   1.340 -33.203  1.00  0.00     0.001 A 
HETATM   16  C   UNL     1     -15.842   2.174 -32.360  1.00  0.00     0.000 A 
HETATM   17  C   UNL     1     -15.305   3.390 -31.944  1.00  0.00     0.001 A 
HETATM   18  C   UNL     1     -14.035   3.777 -32.376  1.00  0.00     0.018 A 
ENDBRANCH  12  13
ENDBRANCH  11  12
ENDBRANCH   8  11
ENDBRANCH   1   7
BRANCH   3  19
HETATM   19  C   UNL     1      -5.909  -2.870 -34.514  1.00  0.00     0.010 A 
HETATM   20  C   UNL     1      -6.753  -3.913 -34.971  1.00  0.00     0.152 A 
HETATM   21  N   UNL     1      -6.123  -5.085 -35.077  1.00  0.00    -0.187 NA
HETATM   22  N   UNL     1      -4.873  -4.804 -34.682  1.00  0.00    -0.289 N 
HETATM   23  H   UNL     1      -4.192  -5.556 -34.671  1.00  0.00     0.188 HD
HETATM   24  C   UNL     1      -4.692  -3.496 -34.335  1.00  0.00     0.123 A 
ENDBRANCH   3  19
TORSDOF 5
ENDMDL
MODEL 5
REMARK VINA RESULT:      -7.8      3.612      6.366
REMARK  5 active torsions:
REMARK  status: ('A' for Active; 'I' for Inactive)
REMARK    1  A    between atoms: C_4  and  S_5 
REMARK    2  A    between atoms: S_5  and  C_6 
REMARK    3  A    between atoms: C_6  and  C_7 
REMARK       I    between atoms: C_7  and  N_8 
REMARK    4  A    between atoms: N_8  and  C_9 
REMARK    5  A    between atoms: C_11  and  C_12 
ROOT
HETATM    1  C   UNL     1      -6.618   0.372 -33.310  1.00  0.00     0.035 A 
HETATM    2  C   UNL     1      -6.723  -0.938 -33.786  1.00  0.00     0.042 A 
HETATM    3  C   UNL     1      -5.602  -1.784 -33.858  1.00  0.00    -0.021 A 
HETATM    4  C   UNL     1      -4.362  -1.290 -33.433  1.00  0.00     0.012 A 
HETATM    5  C   UNL     1      -4.247   0.012 -32.946  1.00  0.00     0.003 A 
HETATM    6  C   UNL     1      -5.370   0.838 -32.884  1.00  0.00     0.029 A 
ENDROOT
BRANCH   1   7
HETATM    7  N   UNL     1      -7.703   1.269 -33.225  1.00  0.00    -0.327 N 
HETATM    8  C   UNL     1      -8.732   1.272 -32.302  1.00  0.00     0.231 C 
HETATM    9  O   UNL     1      -8.863   0.480 -31.370  1.00  0.00    -0.272 OA
HETATM   10  H   UNL     1      -7.791   1.949 -33.973  1.00  0.00     0.169 HD
BRANCH   8  11
HETATM   11  C   UNL     1      -9.720   2.424 -32.445  1.00  0.00     0.182 C 
BRANCH  11  12
HETATM   12  S   UNL     1     -10.323   2.648 -34.154  1.00  0.00    -0.121 SA
BRANCH  12  13
HETATM   13  C   UNL     1     -11.816   1.679 -34.045  1.00  0.00     0.001 A 
HETATM   14  C   UNL     1     -13.041   2.247 -34.409  1.00  0.00     0.018 A 
HETATM   15  C   UNL     1     -14.217   1.499 -34.318  1.00  0.00     0.001 A 
HETATM   16  C   UNL     1     -14.173   0.178 -33.873  1.00  0.00     0.000 A 
HETATM   17  C   UNL     1     -12.952  -0.398 -33.525  1.00  0.00     0.001 A 
HETATM   18  C   UNL     1     -11.776   0.349 -33.615  1.00  0.00     0.018 A 
ENDBRANCH  12  13
ENDBRANCH  11  12
ENDBRANCH   8  11
ENDBRANCH   1   7
BRANCH   3  19
HETATM   19  C   UNL     1      -5.745  -3.138 -34.376  1.00  0.00     0.010 A 
HETATM   20  C   UNL     1      -4.826  -4.217 -34.410  1.00  0.00     0.152 A 
HETATM   21  N   UNL     1      -5.330  -5.314 -34.981  1.00  0.00    -0.187 NA
HETATM   22  N   UNL     1      -6.572  -4.943 -35.325  1.00  0.00    -0.289 N 
HETATM   23  H   UNL     1      -7.164  -5.622 -35.792  1.00  0.00     0.188 HD
HETATM   24  C   UNL     1      -6.870  -3.654 -34.986  1.00  0.00     0.123 A 
ENDBRANCH   3  19
TORSDOF 5
ENDMDL
MODEL 6
REMARK VINA RESULT:      -7.5      3.375      8.566
REMARK  5 active torsions:
REMARK  status: ('A' for Active; 'I' for Inactive)
REMARK    1  A    between atoms: C_4  and  S_5 
REMARK    2  A    between atoms: S_5  and  C_6 
REMARK    3  A    between atoms: C_6  and  C_7 
REMARK       I    between atoms: C_7  and  N_8 
REMARK    4  A    between atoms: N_8  and  C_9 
REMARK    5  A    between atoms: C_11  and  C_12 
ROOT
HETATM    1  C   UNL     1      -2.888   3.844 -32.359  1.00  0.00     0.035 A 
HETATM    2  C   UNL     1      -2.269   4.387 -31.229  1.00  0.00     0.042 A 
HETATM    3  C   UNL     1      -1.242   5.341 -31.344  1.00  0.00    -0.021 A 
HETATM    4  C   UNL     1      -0.848   5.751 -32.623  1.00  0.00     0.012 A 
HETATM    5  C   UNL     1      -1.465   5.224 -33.758  1.00  0.00     0.003 A 
HETATM    6  C   UNL     1      -2.481   4.276 -33.625  1.00  0.00     0.029 A 
ENDROOT
BRANCH   1   7
HETATM    7  N   UNL     1      -3.913   2.877 -32.307  1.00  0.00    -0.327 N 
HETATM    8  C   UNL     1      -3.844   1.592 -31.802  1.00  0.00     0.231 C 
HETATM    9  O   UNL     1      -2.853   1.075 -31.289  1.00  0.00    -0.272 OA
HETATM   10  H   UNL     1      -4.788   3.117 -32.762  1.00  0.00     0.169 HD
BRANCH   8  11
HETATM   11  C   UNL     1      -5.156   0.818 -31.834  1.00  0.00     0.182 C 
BRANCH  11  12
HETATM   12  S   UNL     1      -5.983   0.867 -33.461  1.00  0.00    -0.121 SA
BRANCH  12  13
HETATM   13  C   UNL     1      -5.781  -0.844 -33.921  1.00  0.00     0.001 A 
HETATM   14  C   UNL     1      -6.874  -1.565 -34.411  1.00  0.00     0.018 A 
HETATM   15  C   UNL     1      -6.728  -2.909 -34.764  1.00  0.00     0.001 A 
HETATM   16  C   UNL     1      -5.487  -3.534 -34.639  1.00  0.00     0.000 A 
HETATM   17  C   UNL     1      -4.391  -2.815 -34.167  1.00  0.00     0.001 A 
HETATM   18  C   UNL     1      -4.536  -1.472 -33.814  1.00  0.00     0.018 A 
ENDBRANCH  12  13
ENDBRANCH  11  12
ENDBRANCH   8  11
ENDBRANCH   1   7
BRANCH   3  19
HETATM   19  C   UNL     1      -0.608   5.873 -30.144  1.00  0.00     0.010 A 
HETATM   20  C   UNL     1       0.495   5.394 -29.393  1.00  0.00     0.152 A 
HETATM   21  N   UNL     1       0.780   6.161 -28.337  1.00  0.00    -0.187 NA
HETATM   22  N   UNL     1      -0.143   7.131 -28.400  1.00  0.00    -0.289 N 
HETATM   23  H   UNL     1      -0.135   7.849 -27.683  1.00  0.00     0.188 HD
HETATM   24  C   UNL     1      -0.996   7.006 -29.459  1.00  0.00     0.123 A 
ENDBRANCH   3  19
TORSDOF 5
ENDMDL
MODEL 7
REMARK VINA RESULT:      -7.3      4.745      7.469
REMARK  5 active torsions:
REMARK  status: ('A' for Active; 'I' for Inactive)
REMARK    1  A    between atoms: C_4  and  S_5 
REMARK    2  A    between atoms: S_5  and  C_6 
REMARK    3  A    between atoms: C_6  and  C_7 
REMARK       I    between atoms: C_7  and  N_8 
REMARK    4  A    between atoms: N_8  and  C_9 
REMARK    5  A    between atoms: C_11  and  C_12 
ROOT
HETATM    1  C   UNL     1      -7.684   0.949 -34.422  1.00  0.00     0.035 A 
HETATM    2  C   UNL     1      -6.601   1.076 -33.547  1.00  0.00     0.042 A 
HETATM    3  C   UNL     1      -5.658   0.043 -33.394  1.00  0.00    -0.021 A 
HETATM    4  C   UNL     1      -5.819  -1.128 -34.145  1.00  0.00     0.012 A 
HETATM    5  C   UNL     1      -6.890  -1.262 -35.029  1.00  0.00     0.003 A 
HETATM    6  C   UNL     1      -7.817  -0.227 -35.167  1.00  0.00     0.029 A 
ENDROOT
BRANCH   1   7
HETATM    7  N   UNL     1      -8.665   1.944 -34.610  1.00  0.00    -0.327 N 
HETATM    8  C   UNL     1      -9.840   2.123 -33.904  1.00  0.00     0.231 C 
HETATM    9  O   UNL     1     -10.223   1.431 -32.961  1.00  0.00    -0.272 OA
HETATM   10  H   UNL     1      -8.541   2.562 -35.406  1.00  0.00     0.169 HD
BRANCH   8  11
HETATM   11  C   UNL     1     -10.657   3.342 -34.312  1.00  0.00     0.182 C 
BRANCH  11  12
HETATM   12  S   UNL     1     -12.032   2.941 -35.446  1.00  0.00    -0.121 SA
BRANCH  12  13
HETATM   13  C   UNL     1     -13.283   2.561 -34.233  1.00  0.00     0.001 A 
HETATM   14  C   UNL     1     -14.070   1.416 -34.384  1.00  0.00     0.018 A 
HETATM   15  C   UNL     1     -15.060   1.115 -33.444  1.00  0.00     0.001 A 
HETATM   16  C   UNL     1     -15.259   1.952 -32.347  1.00  0.00     0.000 A 
HETATM   17  C   UNL     1     -14.466   3.086 -32.183  1.00  0.00     0.001 A 
HETATM   18  C   UNL     1     -13.477   3.387 -33.121  1.00  0.00     0.018 A 
ENDBRANCH  12  13
ENDBRANCH  11  12
ENDBRANCH   8  11
ENDBRANCH   1   7
BRANCH   3  19
HETATM   19  C   UNL     1      -4.552   0.203 -32.459  1.00  0.00     0.010 A 
HETATM   20  C   UNL     1      -3.851   1.364 -32.047  1.00  0.00     0.152 A 
HETATM   21  N   UNL     1      -2.879   1.103 -31.170  1.00  0.00    -0.187 NA
HETATM   22  N   UNL     1      -2.944  -0.228 -31.019  1.00  0.00    -0.289 N 
HETATM   23  H   UNL     1      -2.285  -0.673 -30.390  1.00  0.00     0.188 HD
HETATM   24  C   UNL     1      -3.926  -0.813 -31.767  1.00  0.00     0.123 A 
ENDBRANCH   3  19
TORSDOF 5
ENDMDL
MODEL 8
REMARK VINA RESULT:      -7.3     15.187     16.131
REMARK  5 active torsions:
REMARK  status: ('A' for Active; 'I' for Inactive)
REMARK    1  A    between atoms: C_4  and  S_5 
REMARK    2  A    between atoms: S_5  and  C_6 
REMARK    3  A    between atoms: C_6  and  C_7 
REMARK       I    between atoms: C_7  and  N_8 
REMARK    4  A    between atoms: N_8  and  C_9 
REMARK    5  A    between atoms: C_11  and  C_12 
ROOT
HETATM    1  C   UNL     1      -5.862 -12.725 -38.472  1.00  0.00     0.035 A 
HETATM    2  C   UNL     1      -7.233 -12.899 -38.689  1.00  0.00     0.042 A 
HETATM    3  C   UNL     1      -7.831 -12.550 -39.914  1.00  0.00    -0.021 A 
HETATM    4  C   UNL     1      -7.022 -12.024 -40.928  1.00  0.00     0.012 A 
HETATM    5  C   UNL     1      -5.652 -11.855 -40.727  1.00  0.00     0.003 A 
HETATM    6  C   UNL     1      -5.076 -12.205 -39.505  1.00  0.00     0.029 A 
ENDROOT
BRANCH   1   7
HETATM    7  N   UNL     1      -5.210 -13.046 -37.264  1.00  0.00    -0.327 N 
HETATM    8  C   UNL     1      -5.082 -14.289 -36.672  1.00  0.00     0.231 C 
HETATM    9  O   UNL     1      -5.517 -15.347 -37.123  1.00  0.00    -0.272 OA
HETATM   10  H   UNL     1      -4.855 -12.268 -36.718  1.00  0.00     0.169 HD
BRANCH   8  11
HETATM   11  C   UNL     1      -4.254 -14.310 -35.393  1.00  0.00     0.182 C 
BRANCH  11  12
HETATM   12  S   UNL     1      -2.716 -15.282 -35.547  1.00  0.00    -0.121 SA
BRANCH  12  13
HETATM   13  C   UNL     1      -2.128 -14.619 -37.095  1.00  0.00     0.001 A 
HETATM   14  C   UNL     1      -2.139 -15.419 -38.241  1.00  0.00     0.018 A 
HETATM   15  C   UNL     1      -1.671 -14.912 -39.456  1.00  0.00     0.001 A 
HETATM   16  C   UNL     1      -1.199 -13.602 -39.532  1.00  0.00     0.000 A 
HETATM   17  C   UNL     1      -1.201 -12.795 -38.395  1.00  0.00     0.001 A 
HETATM   18  C   UNL     1      -1.669 -13.301 -37.181  1.00  0.00     0.018 A 
ENDBRANCH  12  13
ENDBRANCH  11  12
ENDBRANCH   8  11
ENDBRANCH   1   7
BRANCH   3  19
HETATM   19  C   UNL     1      -9.265 -12.729 -40.098  1.00  0.00     0.010 A 
HETATM   20  C   UNL     1     -10.065 -13.898 -40.038  1.00  0.00     0.152 A 
HETATM   21  N   UNL     1     -11.358 -13.658 -40.275  1.00  0.00    -0.187 NA
HETATM   22  N   UNL     1     -11.394 -12.336 -40.496  1.00  0.00    -0.289 N 
HETATM   23  H   UNL     1     -12.288 -11.908 -40.708  1.00  0.00     0.188 HD
HETATM   24  C   UNL     1     -10.171 -11.734 -40.402  1.00  0.00     0.123 A 
ENDBRANCH   3  19
TORSDOF 5
ENDMDL
MODEL 9
REMARK VINA RESULT:      -7.2      2.016      2.617
REMARK  5 active torsions:
REMARK  status: ('A' for Active; 'I' for Inactive)
REMARK    1  A    between atoms: C_4  and  S_5 
REMARK    2  A    between atoms: S_5  and  C_6 
REMARK    3  A    between atoms: C_6  and  C_7 
REMARK       I    between atoms: C_7  and  N_8 
REMARK    4  A    between atoms: N_8  and  C_9 
REMARK    5  A    between atoms: C_11  and  C_12 
ROOT
HETATM    1  C   UNL     1      -6.546   1.836 -33.443  1.00  0.00     0.035 A 
HETATM    2  C   UNL     1      -6.010   0.596 -33.806  1.00  0.00     0.042 A 
HETATM    3  C   UNL     1      -6.788  -0.575 -33.775  1.00  0.00    -0.021 A 
HETATM    4  C   UNL     1      -8.126  -0.480 -33.375  1.00  0.00     0.012 A 
HETATM    5  C   UNL     1      -8.675   0.753 -33.020  1.00  0.00     0.003 A 
HETATM    6  C   UNL     1      -7.887   1.904 -33.056  1.00  0.00     0.029 A 
ENDROOT
BRANCH   1   7
HETATM    7  N   UNL     1      -5.813   3.041 -33.444  1.00  0.00    -0.327 N 
HETATM    8  C   UNL     1      -6.239   4.293 -33.843  1.00  0.00     0.231 C 
HETATM    9  O   UNL     1      -7.362   4.570 -34.261  1.00  0.00    -0.272 OA
HETATM   10  H   UNL     1      -4.831   2.976 -33.196  1.00  0.00     0.169 HD
BRANCH   8  11
HETATM   11  C   UNL     1      -5.218   5.410 -33.656  1.00  0.00     0.182 C 
BRANCH  11  12
HETATM   12  S   UNL     1      -3.831   5.323 -34.839  1.00  0.00    -0.121 SA
BRANCH  12  13
HETATM   13  C   UNL     1      -2.506   5.793 -33.741  1.00  0.00     0.001 A 
HETATM   14  C   UNL     1      -1.895   4.826 -32.937  1.00  0.00     0.018 A 
HETATM   15  C   UNL     1      -0.863   5.187 -32.067  1.00  0.00     0.001 A 
HETATM   16  C   UNL     1      -0.433   6.512 -32.004  1.00  0.00     0.000 A 
HETATM   17  C   UNL     1      -1.028   7.476 -32.816  1.00  0.00     0.001 A 
HETATM   18  C   UNL     1      -2.058   7.117 -33.686  1.00  0.00     0.018 A 
ENDBRANCH  12  13
ENDBRANCH  11  12
ENDBRANCH   8  11
ENDBRANCH   1   7
BRANCH   3  19
HETATM   19  C   UNL     1      -6.191  -1.853 -34.144  1.00  0.00     0.010 A 
HETATM   20  C   UNL     1      -4.847  -2.298 -34.077  1.00  0.00     0.152 A 
HETATM   21  N   UNL     1      -4.690  -3.548 -34.520  1.00  0.00    -0.187 NA
HETATM   22  N   UNL     1      -5.929  -3.909 -34.881  1.00  0.00    -0.289 N 
HETATM   23  H   UNL     1      -6.067  -4.839 -35.263  1.00  0.00     0.188 HD
HETATM   24  C   UNL     1      -6.862  -2.933 -34.677  1.00  0.00     0.123 A 
ENDBRANCH   3  19
TORSDOF 5
ENDMDL
MODEL 10
REMARK VINA RESULT:      -7.0      2.655      3.620
REMARK  5 active torsions:
REMARK  status: ('A' for Active; 'I' for Inactive)
REMARK    1  A    between atoms: C_4  and  S_5 
REMARK    2  A    between atoms: S_5  and  C_6 
REMARK    3  A    between atoms: C_6  and  C_7 
REMARK       I    between atoms: C_7  and  N_8 
REMARK    4  A    between atoms: N_8  and  C_9 
REMARK    5  A    between atoms: C_11  and  C_12 
ROOT
HETATM    1  C   UNL     1      -5.102   2.003 -32.175  1.00  0.00     0.035 A 
HETATM    2  C   UNL     1      -5.156   0.896 -33.028  1.00  0.00     0.042 A 
HETATM    3  C   UNL     1      -5.689  -0.333 -32.600  1.00  0.00    -0.021 A 
HETATM    4  C   UNL     1      -6.177  -0.433 -31.291  1.00  0.00     0.012 A 
HETATM    5  C   UNL     1      -6.139   0.668 -30.434  1.00  0.00     0.003 A 
HETATM    6  C   UNL     1      -5.605   1.879 -30.876  1.00  0.00     0.029 A 
ENDROOT
BRANCH   1   7
HETATM    7  N   UNL     1      -4.571   3.256 -32.543  1.00  0.00    -0.327 N 
HETATM    8  C   UNL     1      -3.335   3.784 -32.217  1.00  0.00     0.231 C 
HETATM    9  O   UNL     1      -2.470   3.224 -31.545  1.00  0.00    -0.272 OA
HETATM   10  H   UNL     1      -5.191   3.884 -33.043  1.00  0.00     0.169 HD
BRANCH   8  11
HETATM   11  C   UNL     1      -3.035   5.145 -32.832  1.00  0.00     0.182 C 
BRANCH  11  12
HETATM   12  S   UNL     1      -1.248   5.470 -33.022  1.00  0.00    -0.121 SA
BRANCH  12  13
HETATM   13  C   UNL     1      -0.991   6.445 -31.551  1.00  0.00     0.001 A 
HETATM   14  C   UNL     1       0.156   6.245 -30.777  1.00  0.00     0.018 A 
HETATM   15  C   UNL     1       0.362   6.997 -29.618  1.00  0.00     0.001 A 
HETATM   16  C   UNL     1      -0.573   7.958 -29.233  1.00  0.00     0.000 A 
HETATM   17  C   UNL     1      -1.711   8.172 -30.010  1.00  0.00     0.001 A 
HETATM   18  C   UNL     1      -1.916   7.422 -31.168  1.00  0.00     0.018 A 
ENDBRANCH  12  13
ENDBRANCH  11  12
ENDBRANCH   8  11
ENDBRANCH   1   7
BRANCH   3  19
HETATM   19  C   UNL     1      -5.712  -1.471 -33.510  1.00  0.00     0.010 A 
HETATM   20  C   UNL     1      -6.801  -2.152 -34.110  1.00  0.00     0.152 A 
HETATM   21  N   UNL     1      -6.417  -3.165 -34.890  1.00  0.00    -0.187 NA
HETATM   22  N   UNL     1      -5.080  -3.146 -34.790  1.00  0.00    -0.289 N 
HETATM   23  H   UNL     1      -4.550  -3.842 -35.302  1.00  0.00     0.188 HD
HETATM   24  C   UNL     1      -4.609  -2.154 -33.978  1.00  0.00     0.123 A 
ENDBRANCH   3  19
TORSDOF 5
ENDMDL
