MODEL 1
REMARK VINA RESULT:      -9.9      0.000      0.000
REMARK  3 active torsions:
REMARK  status: ('A' for Active; 'I' for Inactive)
REMARK    1  A    between atoms: C_6  and  C_7 
REMARK    2  A    between atoms: C_7  and  N_8 
REMARK    3  A    between atoms: C_12  and  C_13 
ROOT
HETATM    1  N   UNL     1      -7.416   2.122 -32.780  1.00  0.00    -0.066 N 
HETATM    2  H   UNL     1      -8.309   2.558 -33.042  1.00  0.00     0.280 HD
HETATM    3  C   UNL     1      -6.600   1.982 -34.047  1.00  0.00     0.236 C 
HETATM    4  C   UNL     1      -7.311   1.050 -35.025  1.00  0.00     0.037 C 
HETATM    5  C   UNL     1      -7.571  -0.341 -34.409  1.00  0.00     0.024 C 
HETATM    6  C   UNL     1      -8.430  -0.110 -33.161  1.00  0.00     0.037 C 
HETATM    7  C   UNL     1      -7.733   0.787 -32.148  1.00  0.00     0.236 C 
ENDROOT
BRANCH   1   8
HETATM    8  C   UNL     1      -6.769   3.051 -31.773  1.00  0.00     0.293 C 
BRANCH   8   9
HETATM    9  C   UNL     1      -5.295   2.986 -31.806  1.00  0.00     0.061 A 
HETATM   10  N   UNL     1      -4.477   3.854 -32.512  1.00  0.00    -0.308 N 
HETATM   11  C   UNL     1      -3.168   3.434 -32.283  1.00  0.00     0.134 A 
HETATM   12  C   UNL     1      -4.786   4.956 -33.314  1.00  0.00     0.099 A 
HETATM   13  C   UNL     1      -2.121   4.168 -32.906  1.00  0.00     0.057 A 
HETATM   14  N   UNL     1      -3.132   2.379 -31.501  1.00  0.00    -0.241 NA
HETATM   15  C   UNL     1      -2.406   5.231 -33.688  1.00  0.00    -0.057 A 
HETATM   16  C   UNL     1      -1.343   6.030 -34.385  1.00  0.00     0.048 C 
HETATM   17  C   UNL     1      -3.792   5.645 -33.899  1.00  0.00     0.024 A 
HETATM   18  C   UNL     1      -4.432   2.074 -31.230  1.00  0.00     0.146 A 
ENDBRANCH   8   9
ENDBRANCH   1   8
BRANCH   5  19
HETATM   19  C   UNL     1      -6.287  -1.130 -34.185  1.00  0.00    -0.024 A 
HETATM   20  C   UNL     1      -6.004  -2.531 -34.406  1.00  0.00     0.018 A 
HETATM   21  C   UNL     1      -4.686  -2.750 -34.007  1.00  0.00     0.138 A 
HETATM   22  C   UNL     1      -6.684  -3.665 -34.895  1.00  0.00     0.017 A 
HETATM   23  N   UNL     1      -4.003  -3.907 -33.987  1.00  0.00    -0.242 NA
HETATM   24  N   UNL     1      -4.143  -1.556 -33.642  1.00  0.00    -0.350 N 
HETATM   25  C   UNL     1      -4.710  -4.954 -34.451  1.00  0.00     0.119 A 
HETATM   26  C   UNL     1      -6.015  -4.893 -34.910  1.00  0.00     0.020 A 
HETATM   27  H   UNL     1      -3.179  -1.446 -33.364  1.00  0.00     0.166 HD
HETATM   28  C   UNL     1      -5.088  -0.571 -33.755  1.00  0.00     0.098 A 
ENDBRANCH   5  19
TORSDOF 3
ENDMDL
MODEL 2
REMARK VINA RESULT:      -9.1      1.689      2.613
REMARK  3 active torsions:
REMARK  status: ('A' for Active; 'I' for Inactive)
REMARK    1  A    between atoms: C_6  and  C_7 
REMARK    2  A    between atoms: C_7  and  N_8 
REMARK    3  A    between atoms: C_12  and  C_13 
ROOT
HETATM    1  N   UNL     1      -6.083   3.305 -33.196  1.00  0.00    -0.066 N 
HETATM    2  H   UNL     1      -6.844   3.849 -32.770  1.00  0.00     0.280 HD
HETATM    3  C   UNL     1      -6.724   2.254 -34.077  1.00  0.00     0.236 C 
HETATM    4  C   UNL     1      -7.563   1.303 -33.226  1.00  0.00     0.037 C 
HETATM    5  C   UNL     1      -6.725   0.626 -32.121  1.00  0.00     0.024 C 
HETATM    6  C   UNL     1      -6.147   1.755 -31.261  1.00  0.00     0.037 C 
HETATM    7  C   UNL     1      -5.274   2.701 -32.071  1.00  0.00     0.236 C 
ENDROOT
BRANCH   1   8
HETATM    8  C   UNL     1      -5.247   4.291 -33.986  1.00  0.00     0.293 C 
BRANCH   8   9
HETATM    9  C   UNL     1      -4.727   5.392 -33.153  1.00  0.00     0.061 A 
HETATM   10  N   UNL     1      -3.397   5.564 -32.803  1.00  0.00    -0.308 N 
HETATM   11  C   UNL     1      -3.345   6.706 -32.006  1.00  0.00     0.134 A 
HETATM   12  C   UNL     1      -2.261   4.818 -33.125  1.00  0.00     0.099 A 
HETATM   13  C   UNL     1      -2.075   7.105 -31.506  1.00  0.00     0.057 A 
HETATM   14  N   UNL     1      -4.538   7.232 -31.842  1.00  0.00    -0.241 NA
HETATM   15  C   UNL     1      -0.969   6.390 -31.806  1.00  0.00    -0.057 A 
HETATM   16  C   UNL     1       0.393   6.753 -31.292  1.00  0.00     0.048 C 
HETATM   17  C   UNL     1      -1.064   5.201 -32.650  1.00  0.00     0.024 A 
HETATM   18  C   UNL     1      -5.398   6.416 -32.513  1.00  0.00     0.146 A 
ENDBRANCH   8   9
ENDBRANCH   1   8
BRANCH   5  19
HETATM   19  C   UNL     1      -5.705  -0.358 -32.682  1.00  0.00    -0.024 A 
HETATM   20  C   UNL     1      -5.897  -1.517 -33.526  1.00  0.00     0.018 A 
HETATM   21  C   UNL     1      -4.642  -2.092 -33.722  1.00  0.00     0.138 A 
HETATM   22  C   UNL     1      -6.969  -2.174 -34.163  1.00  0.00     0.017 A 
HETATM   23  N   UNL     1      -4.335  -3.211 -34.399  1.00  0.00    -0.242 NA
HETATM   24  N   UNL     1      -3.710  -1.304 -33.119  1.00  0.00    -0.350 N 
HETATM   25  C   UNL     1      -5.401  -3.800 -34.972  1.00  0.00     0.119 A 
HETATM   26  C   UNL     1      -6.704  -3.336 -34.894  1.00  0.00     0.020 A 
HETATM   27  H   UNL     1      -2.717  -1.483 -33.167  1.00  0.00     0.166 HD
HETATM   28  C   UNL     1      -4.330  -0.252 -32.501  1.00  0.00     0.098 A 
ENDBRANCH   5  19
TORSDOF 3
ENDMDL
MODEL 3
REMARK VINA RESULT:      -9.0      2.618      8.271
REMARK  3 active torsions:
REMARK  status: ('A' for Active; 'I' for Inactive)
REMARK    1  A    between atoms: C_6  and  C_7 
REMARK    2  A    between atoms: C_7  and  N_8 
REMARK    3  A    between atoms: C_12  and  C_13 
ROOT
HETATM    1  N   UNL     1      -4.283   3.235 -32.709  1.00  0.00    -0.066 N 
HETATM    2  H   UNL     1      -4.412   2.792 -33.627  1.00  0.00     0.280 HD
HETATM    3  C   UNL     1      -5.102   4.508 -32.707  1.00  0.00     0.236 C 
HETATM    4  C   UNL     1      -4.574   5.468 -33.771  1.00  0.00     0.037 C 
HETATM    5  C   UNL     1      -3.082   5.801 -33.558  1.00  0.00     0.024 C 
HETATM    6  C   UNL     1      -2.328   4.467 -33.611  1.00  0.00     0.037 C 
HETATM    7  C   UNL     1      -2.805   3.500 -32.538  1.00  0.00     0.236 C 
ENDROOT
BRANCH   1   8
HETATM    8  C   UNL     1      -4.769   2.232 -31.682  1.00  0.00     0.293 C 
BRANCH   8   9
HETATM    9  C   UNL     1      -4.224   0.880 -31.906  1.00  0.00     0.061 A 
HETATM   10  N   UNL     1      -4.750  -0.054 -32.786  1.00  0.00    -0.308 N 
HETATM   11  C   UNL     1      -3.950  -1.189 -32.678  1.00  0.00     0.134 A 
HETATM   12  C   UNL     1      -5.844   0.018 -33.651  1.00  0.00     0.099 A 
HETATM   13  C   UNL     1      -4.283  -2.311 -33.487  1.00  0.00     0.057 A 
HETATM   14  N   UNL     1      -2.988  -1.018 -31.800  1.00  0.00    -0.241 NA
HETATM   15  C   UNL     1      -5.342  -2.257 -34.324  1.00  0.00    -0.057 A 
HETATM   16  C   UNL     1      -5.750  -3.415 -35.186  1.00  0.00     0.048 C 
HETATM   17  C   UNL     1      -6.153  -1.045 -34.413  1.00  0.00     0.024 A 
HETATM   18  C   UNL     1      -3.166   0.235 -31.295  1.00  0.00     0.146 A 
ENDBRANCH   8   9
ENDBRANCH   1   8
BRANCH   5  19
HETATM   19  C   UNL     1      -2.844   6.640 -32.309  1.00  0.00    -0.024 A 
HETATM   20  C   UNL     1      -1.648   6.805 -31.512  1.00  0.00     0.018 A 
HETATM   21  C   UNL     1      -1.974   7.654 -30.455  1.00  0.00     0.138 A 
HETATM   22  C   UNL     1      -0.313   6.351 -31.533  1.00  0.00     0.017 A 
HETATM   23  N   UNL     1      -1.195   8.055 -29.437  1.00  0.00    -0.242 NA
HETATM   24  N   UNL     1      -3.260   8.069 -30.619  1.00  0.00    -0.350 N 
HETATM   25  C   UNL     1       0.062   7.577 -29.505  1.00  0.00     0.119 A 
HETATM   26  C   UNL     1       0.546   6.749 -30.505  1.00  0.00     0.020 A 
HETATM   27  H   UNL     1      -3.711   8.735 -30.008  1.00  0.00     0.166 HD
HETATM   28  C   UNL     1      -3.793   7.478 -31.733  1.00  0.00     0.098 A 
ENDBRANCH   5  19
TORSDOF 3
ENDMDL
MODEL 4
REMARK VINA RESULT:      -9.0      2.563      8.302
REMARK  3 active torsions:
REMARK  status: ('A' for Active; 'I' for Inactive)
REMARK    1  A    between atoms: C_6  and  C_7 
REMARK    2  A    between atoms: C_7  and  N_8 
REMARK    3  A    between atoms: C_12  and  C_13 
ROOT
HETATM    1  N   UNL     1      -4.733   2.945 -32.538  1.00  0.00    -0.066 N 
HETATM    2  H   UNL     1      -5.125   2.813 -33.479  1.00  0.00     0.280 HD
HETATM    3  C   UNL     1      -5.500   4.077 -31.889  1.00  0.00     0.236 C 
HETATM    4  C   UNL     1      -5.286   5.368 -32.673  1.00  0.00     0.037 C 
HETATM    5  C   UNL     1      -3.791   5.737 -32.779  1.00  0.00     0.024 C 
HETATM    6  C   UNL     1      -3.101   4.560 -33.477  1.00  0.00     0.037 C 
HETATM    7  C   UNL     1      -3.264   3.262 -32.701  1.00  0.00     0.236 C 
ENDROOT
BRANCH   1   8
HETATM    8  C   UNL     1      -4.918   1.628 -31.812  1.00  0.00     0.293 C 
BRANCH   8   9
HETATM    9  C   UNL     1      -5.978   0.794 -32.410  1.00  0.00     0.061 A 
HETATM   10  N   UNL     1      -5.766  -0.399 -33.084  1.00  0.00    -0.308 N 
HETATM   11  C   UNL     1      -7.020  -0.847 -33.494  1.00  0.00     0.134 A 
HETATM   12  C   UNL     1      -4.589  -1.102 -33.353  1.00  0.00     0.099 A 
HETATM   13  C   UNL     1      -7.080  -2.069 -34.220  1.00  0.00     0.057 A 
HETATM   14  N   UNL     1      -7.970  -0.017 -33.127  1.00  0.00    -0.241 NA
HETATM   15  C   UNL     1      -5.950  -2.756 -34.491  1.00  0.00    -0.057 A 
HETATM   16  C   UNL     1      -5.951  -4.040 -35.268  1.00  0.00     0.048 C 
HETATM   17  C   UNL     1      -4.653  -2.256 -34.039  1.00  0.00     0.024 A 
HETATM   18  C   UNL     1      -7.340   1.010 -32.491  1.00  0.00     0.146 A 
ENDBRANCH   8   9
ENDBRANCH   1   8
BRANCH   5  19
HETATM   19  C   UNL     1      -3.194   6.145 -31.438  1.00  0.00    -0.024 A 
HETATM   20  C   UNL     1      -1.823   6.436 -31.079  1.00  0.00     0.018 A 
HETATM   21  C   UNL     1      -1.810   6.723 -29.715  1.00  0.00     0.138 A 
HETATM   22  C   UNL     1      -0.570   6.498 -31.722  1.00  0.00     0.017 A 
HETATM   23  N   UNL     1      -0.755   7.007 -28.933  1.00  0.00    -0.242 NA
HETATM   24  N   UNL     1      -3.093   6.705 -29.259  1.00  0.00    -0.350 N 
HETATM   25  C   UNL     1       0.414   7.037 -29.600  1.00  0.00     0.119 A 
HETATM   26  C   UNL     1       0.561   6.802 -30.958  1.00  0.00     0.020 A 
HETATM   27  H   UNL     1      -3.349   6.935 -28.310  1.00  0.00     0.166 HD
HETATM   28  C   UNL     1      -3.937   6.370 -30.284  1.00  0.00     0.098 A 
ENDBRANCH   5  19
TORSDOF 3
ENDMDL
MODEL 5
REMARK VINA RESULT:      -9.0      2.222      3.599
REMARK  3 active torsions:
REMARK  status: ('A' for Active; 'I' for Inactive)
REMARK    1  A    between atoms: C_6  and  C_7 
REMARK    2  A    between atoms: C_7  and  N_8 
REMARK    3  A    between atoms: C_12  and  C_13 
ROOT
HETATM    1  N   UNL     1      -4.742   3.479 -32.005  1.00  0.00    -0.066 N 
HETATM    2  H   UNL     1      -4.308   3.889 -31.168  1.00  0.00     0.280 HD
HETATM    3  C   UNL     1      -6.186   3.183 -31.659  1.00  0.00     0.236 C 
HETATM    4  C   UNL     1      -6.252   2.148 -30.540  1.00  0.00     0.037 C 
HETATM    5  C   UNL     1      -5.522   0.842 -30.919  1.00  0.00     0.024 C 
HETATM    6  C   UNL     1      -4.068   1.227 -31.215  1.00  0.00     0.037 C 
HETATM    7  C   UNL     1      -3.965   2.231 -32.353  1.00  0.00     0.236 C 
ENDROOT
BRANCH   1   8
HETATM    8  C   UNL     1      -4.610   4.515 -33.102  1.00  0.00     0.293 C 
BRANCH   8   9
HETATM    9  C   UNL     1      -3.227   5.007 -33.256  1.00  0.00     0.061 A 
HETATM   10  N   UNL     1      -2.476   5.596 -32.251  1.00  0.00    -0.308 N 
HETATM   11  C   UNL     1      -1.247   5.923 -32.819  1.00  0.00     0.134 A 
HETATM   12  C   UNL     1      -2.781   5.856 -30.913  1.00  0.00     0.099 A 
HETATM   13  C   UNL     1      -0.280   6.550 -31.985  1.00  0.00     0.057 A 
HETATM   14  N   UNL     1      -1.198   5.583 -34.087  1.00  0.00    -0.241 NA
HETATM   15  C   UNL     1      -0.564   6.812 -30.691  1.00  0.00    -0.057 A 
HETATM   16  C   UNL     1       0.410   7.489 -29.771  1.00  0.00     0.048 C 
HETATM   17  C   UNL     1      -1.864   6.449 -30.131  1.00  0.00     0.024 A 
HETATM   18  C   UNL     1      -2.419   5.052 -34.376  1.00  0.00     0.146 A 
ENDBRANCH   8   9
ENDBRANCH   1   8
BRANCH   5  19
HETATM   19  C   UNL     1      -6.236   0.075 -32.025  1.00  0.00    -0.024 A 
HETATM   20  C   UNL     1      -5.740  -0.954 -32.914  1.00  0.00     0.018 A 
HETATM   21  C   UNL     1      -6.789  -1.298 -33.765  1.00  0.00     0.138 A 
HETATM   22  C   UNL     1      -4.536  -1.655 -33.124  1.00  0.00     0.017 A 
HETATM   23  N   UNL     1      -6.783  -2.176 -34.782  1.00  0.00    -0.242 NA
HETATM   24  N   UNL     1      -7.897  -0.603 -33.386  1.00  0.00    -0.350 N 
HETATM   25  C   UNL     1      -5.602  -2.802 -34.942  1.00  0.00     0.119 A 
HETATM   26  C   UNL     1      -4.477  -2.591 -34.161  1.00  0.00     0.020 A 
HETATM   27  H   UNL     1      -8.802  -0.721 -33.819  1.00  0.00     0.166 HD
HETATM   28  C   UNL     1      -7.584   0.217 -32.336  1.00  0.00     0.098 A 
ENDBRANCH   5  19
TORSDOF 3
ENDMDL
MODEL 6
REMARK VINA RESULT:      -8.9      2.474      5.096
REMARK  3 active torsions:
REMARK  status: ('A' for Active; 'I' for Inactive)
REMARK    1  A    between atoms: C_6  and  C_7 
REMARK    2  A    between atoms: C_7  and  N_8 
REMARK    3  A    between atoms: C_12  and  C_13 
ROOT
HETATM    1  N   UNL     1      -6.308   1.708 -31.191  1.00  0.00    -0.066 N 
HETATM    2  H   UNL     1      -5.713   2.349 -30.651  1.00  0.00     0.280 HD
HETATM    3  C   UNL     1      -5.966   0.302 -30.747  1.00  0.00     0.236 C 
HETATM    4  C   UNL     1      -4.510  -0.011 -31.083  1.00  0.00     0.037 C 
HETATM    5  C   UNL     1      -4.218   0.152 -32.590  1.00  0.00     0.024 C 
HETATM    6  C   UNL     1      -4.555   1.605 -32.943  1.00  0.00     0.037 C 
HETATM    7  C   UNL     1      -6.011   1.940 -32.654  1.00  0.00     0.236 C 
ENDROOT
BRANCH   1   8
HETATM    8  C   UNL     1      -7.740   2.085 -30.870  1.00  0.00     0.293 C 
BRANCH   8   9
HETATM    9  C   UNL     1      -8.715   1.425 -31.759  1.00  0.00     0.061 A 
HETATM   10  N   UNL     1      -9.483   2.071 -32.715  1.00  0.00    -0.308 N 
HETATM   11  C   UNL     1     -10.271   1.090 -33.314  1.00  0.00     0.134 A 
HETATM   12  C   UNL     1      -9.537   3.415 -33.091  1.00  0.00     0.099 A 
HETATM   13  C   UNL     1     -11.164   1.498 -34.343  1.00  0.00     0.057 A 
HETATM   14  N   UNL     1     -10.045  -0.093 -32.791  1.00  0.00    -0.241 NA
HETATM   15  C   UNL     1     -11.231   2.796 -34.712  1.00  0.00    -0.057 A 
HETATM   16  C   UNL     1     -12.168   3.286 -35.778  1.00  0.00     0.048 C 
HETATM   17  C   UNL     1     -10.383   3.794 -34.064  1.00  0.00     0.024 A 
HETATM   18  C   UNL     1      -9.117   0.105 -31.813  1.00  0.00     0.146 A 
ENDBRANCH   8   9
ENDBRANCH   1   8
BRANCH   5  19
HETATM   19  C   UNL     1      -4.914  -0.906 -33.437  1.00  0.00    -0.024 A 
HETATM   20  C   UNL     1      -4.628  -2.317 -33.585  1.00  0.00     0.018 A 
HETATM   21  C   UNL     1      -5.540  -2.825 -34.508  1.00  0.00     0.138 A 
HETATM   22  C   UNL     1      -3.712  -3.252 -33.062  1.00  0.00     0.017 A 
HETATM   23  N   UNL     1      -5.628  -4.075 -34.992  1.00  0.00    -0.242 NA
HETATM   24  N   UNL     1      -6.402  -1.829 -34.854  1.00  0.00    -0.350 N 
HETATM   25  C   UNL     1      -4.719  -4.917 -34.466  1.00  0.00     0.119 A 
HETATM   26  C   UNL     1      -3.767  -4.572 -33.521  1.00  0.00     0.020 A 
HETATM   27  H   UNL     1      -7.189  -1.964 -35.472  1.00  0.00     0.166 HD
HETATM   28  C   UNL     1      -6.046  -0.673 -34.211  1.00  0.00     0.098 A 
ENDBRANCH   5  19
TORSDOF 3
ENDMDL
MODEL 7
REMARK VINA RESULT:      -8.8      3.157      8.649
REMARK  3 active torsions:
REMARK  status: ('A' for Active; 'I' for Inactive)
REMARK    1  A    between atoms: C_6  and  C_7 
REMARK    2  A    between atoms: C_7  and  N_8 
REMARK    3  A    between atoms: C_12  and  C_13 
ROOT
HETATM    1  N   UNL     1      -4.218   4.192 -32.329  1.00  0.00    -0.066 N 
HETATM    2  H   UNL     1      -4.670   4.421 -33.223  1.00  0.00     0.280 HD
HETATM    3  C   UNL     1      -4.237   5.448 -31.485  1.00  0.00     0.236 C 
HETATM    4  C   UNL     1      -3.416   6.542 -32.161  1.00  0.00     0.037 C 
HETATM    5  C   UNL     1      -1.959   6.098 -32.412  1.00  0.00     0.024 C 
HETATM    6  C   UNL     1      -2.033   4.850 -33.299  1.00  0.00     0.037 C 
HETATM    7  C   UNL     1      -2.814   3.725 -32.638  1.00  0.00     0.236 C 
ENDROOT
BRANCH   1   8
HETATM    8  C   UNL     1      -5.032   3.070 -31.717  1.00  0.00     0.293 C 
BRANCH   8   9
HETATM    9  C   UNL     1      -5.839   2.343 -32.715  1.00  0.00     0.061 A 
HETATM   10  N   UNL     1      -5.628   1.028 -33.103  1.00  0.00    -0.308 N 
HETATM   11  C   UNL     1      -6.594   0.743 -34.066  1.00  0.00     0.134 A 
HETATM   12  C   UNL     1      -4.683   0.090 -32.682  1.00  0.00     0.099 A 
HETATM   13  C   UNL     1      -6.594  -0.560 -34.635  1.00  0.00     0.057 A 
HETATM   14  N   UNL     1      -7.365   1.782 -34.295  1.00  0.00    -0.241 NA
HETATM   15  C   UNL     1      -5.682  -1.475 -34.241  1.00  0.00    -0.057 A 
HETATM   16  C   UNL     1      -5.624  -2.859 -34.820  1.00  0.00     0.048 C 
HETATM   17  C   UNL     1      -4.689  -1.140 -33.223  1.00  0.00     0.024 A 
HETATM   18  C   UNL     1      -6.890   2.779 -33.497  1.00  0.00     0.146 A 
ENDBRANCH   8   9
ENDBRANCH   1   8
BRANCH   5  19
HETATM   19  C   UNL     1      -1.167   5.939 -31.121  1.00  0.00    -0.024 A 
HETATM   20  C   UNL     1      -0.961   6.871 -30.033  1.00  0.00     0.018 A 
HETATM   21  C   UNL     1      -0.127   6.243 -29.109  1.00  0.00     0.138 A 
HETATM   22  C   UNL     1      -1.367   8.177 -29.692  1.00  0.00     0.017 A 
HETATM   23  N   UNL     1       0.371   6.739 -27.965  1.00  0.00    -0.242 NA
HETATM   24  N   UNL     1       0.107   4.971 -29.536  1.00  0.00    -0.350 N 
HETATM   25  C   UNL     1      -0.040   7.994 -27.701  1.00  0.00     0.119 A 
HETATM   26  C   UNL     1      -0.889   8.738 -28.504  1.00  0.00     0.020 A 
HETATM   27  H   UNL     1       0.643   4.298 -29.007  1.00  0.00     0.166 HD
HETATM   28  C   UNL     1      -0.520   4.769 -30.736  1.00  0.00     0.098 A 
ENDBRANCH   5  19
TORSDOF 3
ENDMDL
MODEL 8
REMARK VINA RESULT:      -8.6      3.316      6.428
REMARK  3 active torsions:
REMARK  status: ('A' for Active; 'I' for Inactive)
REMARK    1  A    between atoms: C_6  and  C_7 
REMARK    2  A    between atoms: C_7  and  N_8 
REMARK    3  A    between atoms: C_12  and  C_13 
ROOT
HETATM    1  N   UNL     1      -8.442   1.277 -33.350  1.00  0.00    -0.066 N 
HETATM    2  H   UNL     1      -8.985   1.596 -34.163  1.00  0.00     0.280 HD
HETATM    3  C   UNL     1      -7.095   1.962 -33.417  1.00  0.00     0.236 C 
HETATM    4  C   UNL     1      -6.352   1.529 -34.679  1.00  0.00     0.037 C 
HETATM    5  C   UNL     1      -6.169  -0.002 -34.743  1.00  0.00     0.024 C 
HETATM    6  C   UNL     1      -7.575  -0.610 -34.708  1.00  0.00     0.037 C 
HETATM    7  C   UNL     1      -8.330  -0.227 -33.443  1.00  0.00     0.236 C 
ENDROOT
BRANCH   1   8
HETATM    8  C   UNL     1      -9.237   1.679 -32.125  1.00  0.00     0.293 C 
BRANCH   8   9
HETATM    9  C   UNL     1     -10.493   2.374 -32.464  1.00  0.00     0.061 A 
HETATM   10  N   UNL     1     -11.625   1.762 -32.981  1.00  0.00    -0.308 N 
HETATM   11  C   UNL     1     -12.566   2.772 -33.168  1.00  0.00     0.134 A 
HETATM   12  C   UNL     1     -11.884   0.424 -33.287  1.00  0.00     0.099 A 
HETATM   13  C   UNL     1     -13.834   2.404 -33.698  1.00  0.00     0.057 A 
HETATM   14  N   UNL     1     -12.091   3.944 -32.811  1.00  0.00    -0.241 NA
HETATM   15  C   UNL     1     -14.096   1.114 -34.004  1.00  0.00    -0.057 A 
HETATM   16  C   UNL     1     -15.407   0.671 -34.583  1.00  0.00     0.048 C 
HETATM   17  C   UNL     1     -13.084   0.083 -33.787  1.00  0.00     0.024 A 
HETATM   18  C   UNL     1     -10.809   3.717 -32.410  1.00  0.00     0.146 A 
ENDBRANCH   8   9
ENDBRANCH   1   8
BRANCH   5  19
HETATM   19  C   UNL     1      -5.204  -0.519 -33.683  1.00  0.00    -0.024 A 
HETATM   20  C   UNL     1      -4.593  -1.822 -33.536  1.00  0.00     0.018 A 
HETATM   21  C   UNL     1      -3.820  -1.783 -32.377  1.00  0.00     0.138 A 
HETATM   22  C   UNL     1      -4.582  -3.050 -34.229  1.00  0.00     0.017 A 
HETATM   23  N   UNL     1      -3.107  -2.774 -31.817  1.00  0.00    -0.242 NA
HETATM   24  N   UNL     1      -3.866  -0.520 -31.872  1.00  0.00    -0.350 N 
HETATM   25  C   UNL     1      -3.148  -3.924 -32.516  1.00  0.00     0.119 A 
HETATM   26  C   UNL     1      -3.845  -4.112 -33.699  1.00  0.00     0.020 A 
HETATM   27  H   UNL     1      -3.341  -0.226 -31.060  1.00  0.00     0.166 HD
HETATM   28  C   UNL     1      -4.684   0.255 -32.651  1.00  0.00     0.098 A 
ENDBRANCH   5  19
TORSDOF 3
ENDMDL
MODEL 9
REMARK VINA RESULT:      -8.5      2.205      3.143
REMARK  3 active torsions:
REMARK  status: ('A' for Active; 'I' for Inactive)
REMARK    1  A    between atoms: C_6  and  C_7 
REMARK    2  A    between atoms: C_7  and  N_8 
REMARK    3  A    between atoms: C_12  and  C_13 
ROOT
HETATM    1  N   UNL     1      -8.214   3.443 -32.978  1.00  0.00    -0.066 N 
HETATM    2  H   UNL     1      -8.983   3.868 -32.445  1.00  0.00     0.280 HD
HETATM    3  C   UNL     1      -8.799   2.291 -33.766  1.00  0.00     0.236 C 
HETATM    4  C   UNL     1      -9.349   1.235 -32.811  1.00  0.00     0.037 C 
HETATM    5  C   UNL     1      -8.268   0.715 -31.841  1.00  0.00     0.024 C 
HETATM    6  C   UNL     1      -7.760   1.934 -31.063  1.00  0.00     0.037 C 
HETATM    7  C   UNL     1      -7.170   2.992 -31.984  1.00  0.00     0.236 C 
ENDROOT
BRANCH   1   8
HETATM    8  C   UNL     1      -7.663   4.536 -33.873  1.00  0.00     0.293 C 
BRANCH   8   9
HETATM    9  C   UNL     1      -6.651   5.368 -33.196  1.00  0.00     0.061 A 
HETATM   10  N   UNL     1      -5.328   5.493 -33.593  1.00  0.00    -0.308 N 
HETATM   11  C   UNL     1      -4.723   6.353 -32.680  1.00  0.00     0.134 A 
HETATM   12  C   UNL     1      -4.638   4.927 -34.668  1.00  0.00     0.099 A 
HETATM   13  C   UNL     1      -3.344   6.649 -32.865  1.00  0.00     0.057 A 
HETATM   14  N   UNL     1      -5.572   6.753 -31.760  1.00  0.00    -0.241 NA
HETATM   15  C   UNL     1      -2.664   6.104 -33.897  1.00  0.00    -0.057 A 
HETATM   16  C   UNL     1      -1.204   6.365 -34.130  1.00  0.00     0.048 C 
HETATM   17  C   UNL     1      -3.336   5.210 -34.837  1.00  0.00     0.024 A 
HETATM   18  C   UNL     1      -6.749   6.129 -32.046  1.00  0.00     0.146 A 
ENDBRANCH   8   9
ENDBRANCH   1   8
BRANCH   5  19
HETATM   19  C   UNL     1      -7.196  -0.106 -32.547  1.00  0.00    -0.024 A 
HETATM   20  C   UNL     1      -5.810  -0.327 -32.196  1.00  0.00     0.018 A 
HETATM   21  C   UNL     1      -5.257  -1.126 -33.195  1.00  0.00     0.138 A 
HETATM   22  C   UNL     1      -4.928   0.041 -31.159  1.00  0.00     0.017 A 
HETATM   23  N   UNL     1      -3.988  -1.550 -33.316  1.00  0.00    -0.242 NA
HETATM   24  N   UNL     1      -6.243  -1.463 -34.071  1.00  0.00    -0.350 N 
HETATM   25  C   UNL     1      -3.192  -1.155 -32.305  1.00  0.00     0.119 A 
HETATM   26  C   UNL     1      -3.598  -0.385 -31.227  1.00  0.00     0.020 A 
HETATM   27  H   UNL     1      -6.102  -2.083 -34.856  1.00  0.00     0.166 HD
HETATM   28  C   UNL     1      -7.416  -0.868 -33.689  1.00  0.00     0.098 A 
ENDBRANCH   5  19
TORSDOF 3
ENDMDL
MODEL 10
REMARK VINA RESULT:      -8.5      2.599      4.101
REMARK  3 active torsions:
REMARK  status: ('A' for Active; 'I' for Inactive)
REMARK    1  A    between atoms: C_6  and  C_7 
REMARK    2  A    between atoms: C_7  and  N_8 
REMARK    3  A    between atoms: C_12  and  C_13 
ROOT
HETATM    1  N   UNL     1      -7.229   1.696 -31.757  1.00  0.00    -0.066 N 
HETATM    2  H   UNL     1      -7.971   2.353 -32.029  1.00  0.00     0.280 HD
HETATM    3  C   UNL     1      -6.063   1.923 -32.694  1.00  0.00     0.236 C 
HETATM    4  C   UNL     1      -6.476   1.599 -34.127  1.00  0.00     0.037 C 
HETATM    5  C   UNL     1      -6.989   0.149 -34.266  1.00  0.00     0.024 C 
HETATM    6  C   UNL     1      -8.184   0.019 -33.315  1.00  0.00     0.037 C 
HETATM    7  C   UNL     1      -7.798   0.300 -31.871  1.00  0.00     0.236 C 
ENDROOT
BRANCH   1   8
HETATM    8  C   UNL     1      -6.886   2.017 -30.316  1.00  0.00     0.293 C 
BRANCH   8   9
HETATM    9  C   UNL     1      -6.980   3.458 -30.017  1.00  0.00     0.061 A 
HETATM   10  N   UNL     1      -8.134   4.220 -30.128  1.00  0.00    -0.308 N 
HETATM   11  C   UNL     1      -7.783   5.519 -29.768  1.00  0.00     0.134 A 
HETATM   12  C   UNL     1      -9.431   3.866 -30.505  1.00  0.00     0.099 A 
HETATM   13  C   UNL     1      -8.802   6.511 -29.800  1.00  0.00     0.057 A 
HETATM   14  N   UNL     1      -6.510   5.604 -29.455  1.00  0.00    -0.241 NA
HETATM   15  C   UNL     1     -10.059   6.184 -30.168  1.00  0.00    -0.057 A 
HETATM   16  C   UNL     1     -11.169   7.192 -30.238  1.00  0.00     0.048 C 
HETATM   17  C   UNL     1     -10.389   4.808 -30.533  1.00  0.00     0.024 A 
HETATM   18  C   UNL     1      -5.999   4.354 -29.638  1.00  0.00     0.146 A 
ENDBRANCH   8   9
ENDBRANCH   1   8
BRANCH   5  19
HETATM   19  C   UNL     1      -5.883  -0.881 -34.074  1.00  0.00    -0.024 A 
HETATM   20  C   UNL     1      -5.874  -2.300 -34.354  1.00  0.00     0.018 A 
HETATM   21  C   UNL     1      -4.627  -2.787 -33.963  1.00  0.00     0.138 A 
HETATM   22  C   UNL     1      -6.755  -3.260 -34.892  1.00  0.00     0.017 A 
HETATM   23  N   UNL     1      -4.180  -4.053 -33.992  1.00  0.00    -0.242 NA
HETATM   24  N   UNL     1      -3.867  -1.736 -33.547  1.00  0.00    -0.350 N 
HETATM   25  C   UNL     1      -5.071  -4.924 -34.502  1.00  0.00     0.119 A 
HETATM   26  C   UNL     1      -6.336  -4.592 -34.959  1.00  0.00     0.020 A 
HETATM   27  H   UNL     1      -2.902  -1.827 -33.262  1.00  0.00     0.166 HD
HETATM   28  C   UNL     1      -4.603  -0.583 -33.618  1.00  0.00     0.098 A 
ENDBRANCH   5  19
TORSDOF 3
ENDMDL
