MODEL 1
REMARK VINA RESULT:      -9.9      0.000      0.000
REMARK  5 active torsions:
REMARK  status: ('A' for Active; 'I' for Inactive)
REMARK    1  A    between atoms: C_4  and  C_5 
REMARK    2  A    between atoms: C_5  and  C_6 
REMARK    3  A    between atoms: C_12  and  S_13 
REMARK    4  A    between atoms: S_13  and  C_14 
REMARK    5  A    between atoms: C_14  and  C_15 
ROOT
HETATM    1  C   UNL     1      -5.178   4.702 -33.882  1.00  0.00     0.283 C 
HETATM    2  O   UNL     1      -4.917   3.496 -33.178  1.00  0.00    -0.303 OA
HETATM    3  C   UNL     1      -6.068   3.013 -32.609  1.00  0.00     0.201 A 
HETATM    4  C   UNL     1      -6.510   3.563 -31.418  1.00  0.00     0.144 A 
HETATM    5  N   UNL     1      -7.543   2.977 -30.784  1.00  0.00    -0.142 NA
HETATM    6  N   UNL     1      -8.118   1.876 -31.356  1.00  0.00    -0.122 NA
HETATM    7  C   UNL     1      -7.643   1.394 -32.530  1.00  0.00     0.212 A 
HETATM    8  N   UNL     1      -6.600   1.922 -33.193  1.00  0.00    -0.195 NA
HETATM    9  C   UNL     1      -5.900   4.756 -30.839  1.00  0.00     0.020 A 
HETATM   10  C   UNL     1      -5.499   5.823 -31.677  1.00  0.00     0.023 A 
HETATM   11  N   UNL     1      -5.742   5.811 -33.066  1.00  0.00    -0.259 NA
HETATM   12  C   UNL     1      -5.709   4.867 -29.449  1.00  0.00     0.016 A 
HETATM   13  C   UNL     1      -5.125   6.005 -28.894  1.00  0.00     0.001 A 
HETATM   14  C   UNL     1      -4.743   7.058 -29.718  1.00  0.00     0.002 A 
HETATM   15  C   UNL     1      -4.942   6.973 -31.097  1.00  0.00     0.024 A 
HETATM   16  H   UNL     1      -5.408   6.686 -33.485  1.00  0.00     0.130 HD
ENDROOT
BRANCH   7  17
HETATM   17  S   UNL     1      -8.418  -0.031 -33.250  1.00  0.00    -0.084 SA
BRANCH  17  18
HETATM   18  C   UNL     1      -7.338  -0.260 -34.696  1.00  0.00     0.121 C 
BRANCH  18  19
HETATM   19  C   UNL     1      -6.356  -1.389 -34.486  1.00  0.00    -0.048 A 
HETATM   20  C   UNL     1      -5.121  -1.149 -33.861  1.00  0.00     0.009 A 
HETATM   21  C   UNL     1      -4.215  -2.192 -33.659  1.00  0.00     0.024 A 
HETATM   22  C   UNL     1      -4.533  -3.478 -34.086  1.00  0.00     0.034 A 
HETATM   23 CL   UNL     1      -3.417  -4.764 -33.834  1.00  0.00    -0.084 Cl
HETATM   24  C   UNL     1      -5.749  -3.731 -34.718  1.00  0.00     0.024 A 
HETATM   25  C   UNL     1      -6.657  -2.689 -34.919  1.00  0.00     0.009 A 
ENDBRANCH  18  19
ENDBRANCH  17  18
ENDBRANCH   7  17
BRANCH   1  26
HETATM   26  C   UNL     1      -3.876   5.237 -34.538  1.00  0.00     0.203 C 
HETATM   27  O   UNL     1      -3.765   5.320 -35.767  1.00  0.00    -0.288 OA
BRANCH  26  28
HETATM   28  C   UNL     1      -2.720   5.637 -33.691  1.00  0.00     0.014 A 
HETATM   29  C   UNL     1      -2.296   6.973 -33.753  1.00  0.00     0.015 A 
HETATM   30  C   UNL     1      -1.221   7.408 -32.977  1.00  0.00     0.001 A 
HETATM   31  C   UNL     1      -0.557   6.509 -32.143  1.00  0.00     0.000 A 
HETATM   32  C   UNL     1      -0.964   5.176 -32.090  1.00  0.00     0.001 A 
HETATM   33  C   UNL     1      -2.041   4.735 -32.864  1.00  0.00     0.015 A 
ENDBRANCH  26  28
ENDBRANCH   1  26
TORSDOF 5
ENDMDL
MODEL 2
REMARK VINA RESULT:      -9.8      3.557      8.026
REMARK  5 active torsions:
REMARK  status: ('A' for Active; 'I' for Inactive)
REMARK    1  A    between atoms: C_4  and  C_5 
REMARK    2  A    between atoms: C_5  and  C_6 
REMARK    3  A    between atoms: C_12  and  S_13 
REMARK    4  A    between atoms: S_13  and  C_14 
REMARK    5  A    between atoms: C_14  and  C_15 
ROOT
HETATM    1  C   UNL     1      -5.912   1.411 -31.864  1.00  0.00     0.283 C 
HETATM    2  O   UNL     1      -5.550   1.754 -33.194  1.00  0.00    -0.303 OA
HETATM    3  C   UNL     1      -5.655   3.109 -33.386  1.00  0.00     0.201 A 
HETATM    4  C   UNL     1      -6.902   3.659 -33.628  1.00  0.00     0.144 A 
HETATM    5  N   UNL     1      -6.975   4.956 -33.977  1.00  0.00    -0.142 NA
HETATM    6  N   UNL     1      -5.815   5.675 -34.060  1.00  0.00    -0.122 NA
HETATM    7  C   UNL     1      -4.627   5.078 -33.800  1.00  0.00     0.212 A 
HETATM    8  N   UNL     1      -4.491   3.782 -33.473  1.00  0.00    -0.195 NA
HETATM    9  C   UNL     1      -8.131   2.881 -33.507  1.00  0.00     0.020 A 
HETATM   10  C   UNL     1      -8.275   1.945 -32.455  1.00  0.00     0.023 A 
HETATM   11  N   UNL     1      -7.291   1.789 -31.457  1.00  0.00    -0.259 NA
HETATM   12  C   UNL     1      -9.187   3.051 -34.421  1.00  0.00     0.016 A 
HETATM   13  C   UNL     1     -10.362   2.309 -34.307  1.00  0.00     0.001 A 
HETATM   14  C   UNL     1     -10.506   1.398 -33.266  1.00  0.00     0.002 A 
HETATM   15  C   UNL     1      -9.477   1.229 -32.339  1.00  0.00     0.024 A 
HETATM   16  H   UNL     1      -7.599   1.091 -30.771  1.00  0.00     0.130 HD
ENDROOT
BRANCH   7  17
HETATM   17  S   UNL     1      -3.140   6.042 -33.907  1.00  0.00    -0.084 SA
BRANCH  17  18
HETATM   18  C   UNL     1      -2.008   4.949 -32.994  1.00  0.00     0.121 C 
BRANCH  18  19
HETATM   19  C   UNL     1      -1.259   5.695 -31.916  1.00  0.00    -0.048 A 
HETATM   20  C   UNL     1      -1.748   6.917 -31.427  1.00  0.00     0.009 A 
HETATM   21  C   UNL     1      -1.060   7.605 -30.425  1.00  0.00     0.024 A 
HETATM   22  C   UNL     1       0.121   7.080 -29.910  1.00  0.00     0.034 A 
HETATM   23 CL   UNL     1       0.966   7.927 -28.672  1.00  0.00    -0.084 Cl
HETATM   24  C   UNL     1       0.625   5.873 -30.391  1.00  0.00     0.024 A 
HETATM   25  C   UNL     1      -0.061   5.184 -31.393  1.00  0.00     0.009 A 
ENDBRANCH  18  19
ENDBRANCH  17  18
ENDBRANCH   7  17
BRANCH   1  26
HETATM   26  C   UNL     1      -5.776  -0.121 -31.647  1.00  0.00     0.203 C 
HETATM   27  O   UNL     1      -5.669  -0.600 -30.511  1.00  0.00    -0.288 OA
BRANCH  26  28
HETATM   28  C   UNL     1      -5.748  -1.044 -32.814  1.00  0.00     0.014 A 
HETATM   29  C   UNL     1      -4.526  -1.655 -33.134  1.00  0.00     0.015 A 
HETATM   30  C   UNL     1      -4.440  -2.534 -34.215  1.00  0.00     0.001 A 
HETATM   31  C   UNL     1      -5.570  -2.798 -34.986  1.00  0.00     0.000 A 
HETATM   32  C   UNL     1      -6.784  -2.181 -34.682  1.00  0.00     0.001 A 
HETATM   33  C   UNL     1      -6.876  -1.301 -33.600  1.00  0.00     0.015 A 
ENDBRANCH  26  28
ENDBRANCH   1  26
TORSDOF 5
ENDMDL
MODEL 3
REMARK VINA RESULT:      -9.6      4.110      8.907
REMARK  5 active torsions:
REMARK  status: ('A' for Active; 'I' for Inactive)
REMARK    1  A    between atoms: C_4  and  C_5 
REMARK    2  A    between atoms: C_5  and  C_6 
REMARK    3  A    between atoms: C_12  and  S_13 
REMARK    4  A    between atoms: S_13  and  C_14 
REMARK    5  A    between atoms: C_14  and  C_15 
ROOT
HETATM    1  C   UNL     1      -8.092   1.491 -33.282  1.00  0.00     0.283 C 
HETATM    2  O   UNL     1      -7.395   1.413 -32.047  1.00  0.00    -0.303 OA
HETATM    3  C   UNL     1      -6.142   1.960 -32.167  1.00  0.00     0.201 A 
HETATM    4  C   UNL     1      -5.131   1.206 -32.737  1.00  0.00     0.144 A 
HETATM    5  N   UNL     1      -3.874   1.685 -32.701  1.00  0.00    -0.142 NA
HETATM    6  N   UNL     1      -3.657   2.902 -32.118  1.00  0.00    -0.122 NA
HETATM    7  C   UNL     1      -4.693   3.595 -31.587  1.00  0.00     0.212 A 
HETATM    8  N   UNL     1      -5.963   3.156 -31.571  1.00  0.00    -0.195 NA
HETATM    9  C   UNL     1      -5.388  -0.079 -33.379  1.00  0.00     0.020 A 
HETATM   10  C   UNL     1      -6.548  -0.255 -34.170  1.00  0.00     0.023 A 
HETATM   11  N   UNL     1      -7.441   0.806 -34.430  1.00  0.00    -0.259 NA
HETATM   12  C   UNL     1      -4.492  -1.154 -33.230  1.00  0.00     0.016 A 
HETATM   13  C   UNL     1      -4.737  -2.383 -33.842  1.00  0.00     0.001 A 
HETATM   14  C   UNL     1      -5.871  -2.550 -34.629  1.00  0.00     0.002 A 
HETATM   15  C   UNL     1      -6.762  -1.489 -34.803  1.00  0.00     0.024 A 
HETATM   16  H   UNL     1      -8.194   0.484 -35.048  1.00  0.00     0.130 HD
ENDROOT
BRANCH   7  17
HETATM   17  S   UNL     1      -4.379   5.177 -30.846  1.00  0.00    -0.084 SA
BRANCH  17  18
HETATM   18  C   UNL     1      -2.896   5.657 -31.785  1.00  0.00     0.121 C 
BRANCH  18  19
HETATM   19  C   UNL     1      -1.856   6.299 -30.897  1.00  0.00    -0.048 A 
HETATM   20  C   UNL     1      -2.238   6.956 -29.716  1.00  0.00     0.009 A 
HETATM   21  C   UNL     1      -1.277   7.543 -28.890  1.00  0.00     0.024 A 
HETATM   22  C   UNL     1       0.069   7.483 -29.241  1.00  0.00     0.034 A 
HETATM   23 CL   UNL     1       1.253   8.205 -28.221  1.00  0.00    -0.084 Cl
HETATM   24  C   UNL     1       0.463   6.844 -30.415  1.00  0.00     0.024 A 
HETATM   25  C   UNL     1      -0.496   6.256 -31.242  1.00  0.00     0.009 A 
ENDBRANCH  18  19
ENDBRANCH  17  18
ENDBRANCH   7  17
BRANCH   1  26
HETATM   26  C   UNL     1      -9.515   0.886 -33.138  1.00  0.00     0.203 C 
HETATM   27  O   UNL     1      -9.720  -0.109 -32.433  1.00  0.00    -0.288 OA
BRANCH  26  28
HETATM   28  C   UNL     1     -10.661   1.485 -33.874  1.00  0.00     0.014 A 
HETATM   29  C   UNL     1     -10.458   2.722 -34.505  1.00  0.00     0.015 A 
HETATM   30  C   UNL     1     -11.494   3.329 -35.215  1.00  0.00     0.001 A 
HETATM   31  C   UNL     1     -12.740   2.710 -35.290  1.00  0.00     0.000 A 
HETATM   32  C   UNL     1     -12.953   1.488 -34.652  1.00  0.00     0.001 A 
HETATM   33  C   UNL     1     -11.918   0.874 -33.941  1.00  0.00     0.015 A 
ENDBRANCH  26  28
ENDBRANCH   1  26
TORSDOF 5
ENDMDL
MODEL 4
REMARK VINA RESULT:      -9.1      2.911      4.573
REMARK  5 active torsions:
REMARK  status: ('A' for Active; 'I' for Inactive)
REMARK    1  A    between atoms: C_4  and  C_5 
REMARK    2  A    between atoms: C_5  and  C_6 
REMARK    3  A    between atoms: C_12  and  S_13 
REMARK    4  A    between atoms: S_13  and  C_14 
REMARK    5  A    between atoms: C_14  and  C_15 
ROOT
HETATM    1  C   UNL     1      -4.464   6.581 -29.788  1.00  0.00     0.283 C 
HETATM    2  O   UNL     1      -4.407   6.415 -31.197  1.00  0.00    -0.303 OA
HETATM    3  C   UNL     1      -4.005   5.142 -31.516  1.00  0.00     0.201 A 
HETATM    4  C   UNL     1      -2.657   4.831 -31.467  1.00  0.00     0.144 A 
HETATM    5  N   UNL     1      -2.257   3.636 -31.938  1.00  0.00    -0.142 NA
HETATM    6  N   UNL     1      -3.202   2.778 -32.426  1.00  0.00    -0.122 NA
HETATM    7  C   UNL     1      -4.508   3.140 -32.435  1.00  0.00     0.212 A 
HETATM    8  N   UNL     1      -4.962   4.328 -32.003  1.00  0.00    -0.195 NA
HETATM    9  C   UNL     1      -1.667   5.751 -30.916  1.00  0.00     0.020 A 
HETATM   10  C   UNL     1      -1.971   6.509 -29.760  1.00  0.00     0.023 A 
HETATM   11  N   UNL     1      -3.187   6.348 -29.063  1.00  0.00    -0.259 NA
HETATM   12  C   UNL     1      -0.402   5.895 -31.515  1.00  0.00     0.016 A 
HETATM   13  C   UNL     1       0.545   6.773 -30.991  1.00  0.00     0.001 A 
HETATM   14  C   UNL     1       0.249   7.508 -29.848  1.00  0.00     0.002 A 
HETATM   15  C   UNL     1      -0.994   7.365 -29.229  1.00  0.00     0.024 A 
HETATM   16  H   UNL     1      -3.199   6.959 -28.239  1.00  0.00     0.130 HD
ENDROOT
BRANCH   7  17
HETATM   17  S   UNL     1      -5.711   1.998 -33.067  1.00  0.00    -0.084 SA
BRANCH  17  18
HETATM   18  C   UNL     1      -5.115   0.470 -32.281  1.00  0.00     0.121 C 
BRANCH  18  19
HETATM   19  C   UNL     1      -5.430  -0.748 -33.118  1.00  0.00    -0.048 A 
HETATM   20  C   UNL     1      -4.400  -1.602 -33.545  1.00  0.00     0.009 A 
HETATM   21  C   UNL     1      -4.690  -2.732 -34.313  1.00  0.00     0.024 A 
HETATM   22  C   UNL     1      -6.008  -3.012 -34.663  1.00  0.00     0.034 A 
HETATM   23 CL   UNL     1      -6.365  -4.408 -35.606  1.00  0.00    -0.084 Cl
HETATM   24  C   UNL     1      -7.040  -2.170 -34.255  1.00  0.00     0.024 A 
HETATM   25  C   UNL     1      -6.752  -1.039 -33.487  1.00  0.00     0.009 A 
ENDBRANCH  18  19
ENDBRANCH  17  18
ENDBRANCH   7  17
BRANCH   1  26
HETATM   26  C   UNL     1      -4.935   8.017 -29.431  1.00  0.00     0.203 C 
HETATM   27  O   UNL     1      -6.128   8.268 -29.226  1.00  0.00    -0.288 OA
BRANCH  26  28
HETATM   28  C   UNL     1      -3.950   9.130 -29.356  1.00  0.00     0.014 A 
HETATM   29  C   UNL     1      -3.605   9.612 -28.084  1.00  0.00     0.015 A 
HETATM   30  C   UNL     1      -2.683  10.651 -27.951  1.00  0.00     0.001 A 
HETATM   31  C   UNL     1      -2.110  11.220 -29.086  1.00  0.00     0.000 A 
HETATM   32  C   UNL     1      -2.461  10.756 -30.354  1.00  0.00     0.001 A 
HETATM   33  C   UNL     1      -3.383   9.715 -30.493  1.00  0.00     0.015 A 
ENDBRANCH  26  28
ENDBRANCH   1  26
TORSDOF 5
ENDMDL
MODEL 5
REMARK VINA RESULT:      -9.1      1.897      2.598
REMARK  5 active torsions:
REMARK  status: ('A' for Active; 'I' for Inactive)
REMARK    1  A    between atoms: C_4  and  C_5 
REMARK    2  A    between atoms: C_5  and  C_6 
REMARK    3  A    between atoms: C_12  and  S_13 
REMARK    4  A    between atoms: S_13  and  C_14 
REMARK    5  A    between atoms: C_14  and  C_15 
ROOT
HETATM    1  C   UNL     1      -3.600   6.578 -32.235  1.00  0.00     0.283 C 
HETATM    2  O   UNL     1      -3.561   5.284 -31.652  1.00  0.00    -0.303 OA
HETATM    3  C   UNL     1      -4.808   4.711 -31.669  1.00  0.00     0.201 A 
HETATM    4  C   UNL     1      -5.727   5.075 -30.700  1.00  0.00     0.144 A 
HETATM    5  N   UNL     1      -6.884   4.392 -30.625  1.00  0.00    -0.142 NA
HETATM    6  N   UNL     1      -7.104   3.382 -31.519  1.00  0.00    -0.122 NA
HETATM    7  C   UNL     1      -6.167   3.084 -32.451  1.00  0.00     0.212 A 
HETATM    8  N   UNL     1      -4.984   3.713 -32.557  1.00  0.00    -0.195 NA
HETATM    9  C   UNL     1      -5.485   6.175 -29.772  1.00  0.00     0.020 A 
HETATM   10  C   UNL     1      -4.855   7.358 -30.226  1.00  0.00     0.023 A 
HETATM   11  N   UNL     1      -4.518   7.549 -31.583  1.00  0.00    -0.259 NA
HETATM   12  C   UNL     1      -5.875   6.081 -28.423  1.00  0.00     0.016 A 
HETATM   13  C   UNL     1      -5.643   7.131 -27.535  1.00  0.00     0.001 A 
HETATM   14  C   UNL     1      -5.035   8.297 -27.986  1.00  0.00     0.002 A 
HETATM   15  C   UNL     1      -4.658   8.415 -29.325  1.00  0.00     0.024 A 
HETATM   16  H   UNL     1      -4.105   8.479 -31.711  1.00  0.00     0.130 HD
ENDROOT
BRANCH   7  17
HETATM   17  S   UNL     1      -6.488   1.773 -33.604  1.00  0.00    -0.084 SA
BRANCH  17  18
HETATM   18  C   UNL     1      -5.199   0.597 -33.087  1.00  0.00     0.121 C 
BRANCH  18  19
HETATM   19  C   UNL     1      -5.431  -0.778 -33.668  1.00  0.00    -0.048 A 
HETATM   20  C   UNL     1      -6.716  -1.167 -34.080  1.00  0.00     0.009 A 
HETATM   21  C   UNL     1      -6.930  -2.435 -34.624  1.00  0.00     0.024 A 
HETATM   22  C   UNL     1      -5.866  -3.323 -34.754  1.00  0.00     0.034 A 
HETATM   23 CL   UNL     1      -6.132  -4.884 -35.428  1.00  0.00    -0.084 Cl
HETATM   24  C   UNL     1      -4.587  -2.956 -34.340  1.00  0.00     0.024 A 
HETATM   25  C   UNL     1      -4.370  -1.688 -33.796  1.00  0.00     0.009 A 
ENDBRANCH  18  19
ENDBRANCH  17  18
ENDBRANCH   7  17
BRANCH   1  26
HETATM   26  C   UNL     1      -2.184   7.216 -32.229  1.00  0.00     0.203 C 
HETATM   27  O   UNL     1      -1.878   8.106 -33.032  1.00  0.00    -0.288 OA
BRANCH  26  28
HETATM   28  C   UNL     1      -1.154   6.744 -31.263  1.00  0.00     0.014 A 
HETATM   29  C   UNL     1      -1.135   7.334 -29.990  1.00  0.00     0.015 A 
HETATM   30  C   UNL     1      -0.196   6.928 -29.040  1.00  0.00     0.001 A 
HETATM   31  C   UNL     1       0.734   5.940 -29.361  1.00  0.00     0.000 A 
HETATM   32  C   UNL     1       0.729   5.362 -30.631  1.00  0.00     0.001 A 
HETATM   33  C   UNL     1      -0.210   5.764 -31.585  1.00  0.00     0.015 A 
ENDBRANCH  26  28
ENDBRANCH   1  26
TORSDOF 5
ENDMDL
MODEL 6
REMARK VINA RESULT:      -9.0      4.712      7.254
REMARK  5 active torsions:
REMARK  status: ('A' for Active; 'I' for Inactive)
REMARK    1  A    between atoms: C_4  and  C_5 
REMARK    2  A    between atoms: C_5  and  C_6 
REMARK    3  A    between atoms: C_12  and  S_13 
REMARK    4  A    between atoms: S_13  and  C_14 
REMARK    5  A    between atoms: C_14  and  C_15 
ROOT
HETATM    1  C   UNL     1      -5.304   1.543 -31.455  1.00  0.00     0.283 C 
HETATM    2  O   UNL     1      -5.967   1.971 -32.636  1.00  0.00    -0.303 OA
HETATM    3  C   UNL     1      -7.252   1.488 -32.668  1.00  0.00     0.201 A 
HETATM    4  C   UNL     1      -7.469   0.181 -33.070  1.00  0.00     0.144 A 
HETATM    5  N   UNL     1      -8.736  -0.231 -33.256  1.00  0.00    -0.142 NA
HETATM    6  N   UNL     1      -9.751   0.655 -33.022  1.00  0.00    -0.122 NA
HETATM    7  C   UNL     1      -9.470   1.917 -32.620  1.00  0.00     0.212 A 
HETATM    8  N   UNL     1      -8.225   2.392 -32.443  1.00  0.00    -0.195 NA
HETATM    9  C   UNL     1      -6.372  -0.757 -33.287  1.00  0.00     0.020 A 
HETATM   10  C   UNL     1      -5.260  -0.760 -32.412  1.00  0.00     0.023 A 
HETATM   11  N   UNL     1      -5.206   0.070 -31.273  1.00  0.00    -0.259 NA
HETATM   12  C   UNL     1      -6.405  -1.672 -34.356  1.00  0.00     0.016 A 
HETATM   13  C   UNL     1      -5.358  -2.568 -34.566  1.00  0.00     0.001 A 
HETATM   14  C   UNL     1      -4.272  -2.578 -33.698  1.00  0.00     0.002 A 
HETATM   15  C   UNL     1      -4.230  -1.691 -32.621  1.00  0.00     0.024 A 
HETATM   16  H   UNL     1      -4.338  -0.107 -30.755  1.00  0.00     0.130 HD
ENDROOT
BRANCH   7  17
HETATM   17  S   UNL     1     -10.811   3.040 -32.315  1.00  0.00    -0.084 SA
BRANCH  17  18
HETATM   18  C   UNL     1     -11.997   2.431 -33.553  1.00  0.00     0.121 C 
BRANCH  18  19
HETATM   19  C   UNL     1     -13.423   2.552 -33.067  1.00  0.00    -0.048 A 
HETATM   20  C   UNL     1     -13.837   3.692 -32.359  1.00  0.00     0.009 A 
HETATM   21  C   UNL     1     -15.156   3.809 -31.916  1.00  0.00     0.024 A 
HETATM   22  C   UNL     1     -16.067   2.788 -32.172  1.00  0.00     0.034 A 
HETATM   23 CL   UNL     1     -17.693   2.935 -31.628  1.00  0.00    -0.084 Cl
HETATM   24  C   UNL     1     -15.669   1.646 -32.864  1.00  0.00     0.024 A 
HETATM   25  C   UNL     1     -14.350   1.527 -33.309  1.00  0.00     0.009 A 
ENDBRANCH  18  19
ENDBRANCH  17  18
ENDBRANCH   7  17
BRANCH   1  26
HETATM   26  C   UNL     1      -3.857   2.104 -31.416  1.00  0.00     0.203 C 
HETATM   27  O   UNL     1      -2.893   1.374 -31.156  1.00  0.00    -0.288 OA
BRANCH  26  28
HETATM   28  C   UNL     1      -3.607   3.550 -31.666  1.00  0.00     0.014 A 
HETATM   29  C   UNL     1      -2.684   3.890 -32.666  1.00  0.00     0.015 A 
HETATM   30  C   UNL     1      -2.414   5.229 -32.950  1.00  0.00     0.001 A 
HETATM   31  C   UNL     1      -3.055   6.234 -32.229  1.00  0.00     0.000 A 
HETATM   32  C   UNL     1      -3.962   5.902 -31.222  1.00  0.00     0.001 A 
HETATM   33  C   UNL     1      -4.238   4.562 -30.935  1.00  0.00     0.015 A 
ENDBRANCH  26  28
ENDBRANCH   1  26
TORSDOF 5
ENDMDL
MODEL 7
REMARK VINA RESULT:      -8.8      4.412      8.745
REMARK  5 active torsions:
REMARK  status: ('A' for Active; 'I' for Inactive)
REMARK    1  A    between atoms: C_4  and  C_5 
REMARK    2  A    between atoms: C_5  and  C_6 
REMARK    3  A    between atoms: C_12  and  S_13 
REMARK    4  A    between atoms: S_13  and  C_14 
REMARK    5  A    between atoms: C_14  and  C_15 
ROOT
HETATM    1  C   UNL     1      -3.392   0.555 -31.418  1.00  0.00     0.283 C 
HETATM    2  O   UNL     1      -3.451   1.584 -32.395  1.00  0.00    -0.303 OA
HETATM    3  C   UNL     1      -3.578   2.811 -31.795  1.00  0.00     0.201 A 
HETATM    4  C   UNL     1      -4.826   3.217 -31.353  1.00  0.00     0.144 A 
HETATM    5  N   UNL     1      -4.972   4.482 -30.918  1.00  0.00    -0.142 NA
HETATM    6  N   UNL     1      -3.878   5.301 -30.916  1.00  0.00    -0.122 NA
HETATM    7  C   UNL     1      -2.682   4.838 -31.352  1.00  0.00     0.212 A 
HETATM    8  N   UNL     1      -2.482   3.595 -31.821  1.00  0.00    -0.195 NA
HETATM    9  C   UNL     1      -5.975   2.318 -31.338  1.00  0.00     0.020 A 
HETATM   10  C   UNL     1      -5.809   0.964 -30.959  1.00  0.00     0.023 A 
HETATM   11  N   UNL     1      -4.568   0.462 -30.513  1.00  0.00    -0.259 NA
HETATM   12  C   UNL     1      -7.257   2.778 -31.689  1.00  0.00     0.016 A 
HETATM   13  C   UNL     1      -8.356   1.920 -31.675  1.00  0.00     0.001 A 
HETATM   14  C   UNL     1      -8.193   0.594 -31.291  1.00  0.00     0.002 A 
HETATM   15  C   UNL     1      -6.932   0.124 -30.922  1.00  0.00     0.024 A 
HETATM   16  H   UNL     1      -4.666  -0.526 -30.255  1.00  0.00     0.130 HD
ENDROOT
BRANCH   7  17
HETATM   17  S   UNL     1      -1.279   5.925 -31.327  1.00  0.00    -0.084 SA
BRANCH  17  18
HETATM   18  C   UNL     1      -1.871   7.150 -30.119  1.00  0.00     0.121 C 
BRANCH  18  19
HETATM   19  C   UNL     1      -0.838   7.426 -29.052  1.00  0.00    -0.048 A 
HETATM   20  C   UNL     1      -0.692   8.719 -28.522  1.00  0.00     0.009 A 
HETATM   21  C   UNL     1       0.258   8.974 -27.531  1.00  0.00     0.024 A 
HETATM   22  C   UNL     1       1.070   7.943 -27.067  1.00  0.00     0.034 A 
HETATM   23 CL   UNL     1       2.238   8.259 -25.842  1.00  0.00    -0.084 Cl
HETATM   24  C   UNL     1       0.945   6.657 -27.589  1.00  0.00     0.024 A 
HETATM   25  C   UNL     1      -0.004   6.400 -28.581  1.00  0.00     0.009 A 
ENDBRANCH  18  19
ENDBRANCH  17  18
ENDBRANCH   7  17
BRANCH   1  26
HETATM   26  C   UNL     1      -3.231  -0.830 -32.100  1.00  0.00     0.203 C 
HETATM   27  O   UNL     1      -2.261  -1.557 -31.856  1.00  0.00    -0.288 OA
BRANCH  26  28
HETATM   28  C   UNL     1      -4.241  -1.299 -33.088  1.00  0.00     0.014 A 
HETATM   29  C   UNL     1      -5.092  -0.340 -33.658  1.00  0.00     0.015 A 
HETATM   30  C   UNL     1      -6.055  -0.720 -34.594  1.00  0.00     0.001 A 
HETATM   31  C   UNL     1      -6.179  -2.059 -34.958  1.00  0.00     0.000 A 
HETATM   32  C   UNL     1      -5.345  -3.019 -34.383  1.00  0.00     0.001 A 
HETATM   33  C   UNL     1      -4.379  -2.645 -33.446  1.00  0.00     0.015 A 
ENDBRANCH  26  28
ENDBRANCH   1  26
TORSDOF 5
ENDMDL
MODEL 8
REMARK VINA RESULT:      -8.8      4.220      7.148
REMARK  5 active torsions:
REMARK  status: ('A' for Active; 'I' for Inactive)
REMARK    1  A    between atoms: C_4  and  C_5 
REMARK    2  A    between atoms: C_5  and  C_6 
REMARK    3  A    between atoms: C_12  and  S_13 
REMARK    4  A    between atoms: S_13  and  C_14 
REMARK    5  A    between atoms: C_14  and  C_15 
ROOT
HETATM    1  C   UNL     1      -7.113   1.701 -32.489  1.00  0.00     0.283 C 
HETATM    2  O   UNL     1      -7.584   2.528 -31.434  1.00  0.00    -0.303 OA
HETATM    3  C   UNL     1      -7.917   3.771 -31.910  1.00  0.00     0.201 A 
HETATM    4  C   UNL     1      -6.912   4.698 -32.131  1.00  0.00     0.144 A 
HETATM    5  N   UNL     1      -7.259   5.961 -32.438  1.00  0.00    -0.142 NA
HETATM    6  N   UNL     1      -8.588   6.266 -32.534  1.00  0.00    -0.122 NA
HETATM    7  C   UNL     1      -9.522   5.309 -32.316  1.00  0.00     0.212 A 
HETATM    8  N   UNL     1      -9.235   4.040 -31.981  1.00  0.00    -0.195 NA
HETATM    9  C   UNL     1      -5.498   4.344 -32.050  1.00  0.00     0.020 A 
HETATM   10  C   UNL     1      -5.049   3.101 -32.556  1.00  0.00     0.023 A 
HETATM   11  N   UNL     1      -5.919   2.208 -33.217  1.00  0.00    -0.259 NA
HETATM   12  C   UNL     1      -4.563   5.228 -31.480  1.00  0.00     0.016 A 
HETATM   13  C   UNL     1      -3.213   4.892 -31.401  1.00  0.00     0.001 A 
HETATM   14  C   UNL     1      -2.772   3.675 -31.910  1.00  0.00     0.002 A 
HETATM   15  C   UNL     1      -3.682   2.793 -32.496  1.00  0.00     0.024 A 
HETATM   16  H   UNL     1      -5.396   1.385 -33.536  1.00  0.00     0.130 HD
ENDROOT
BRANCH   7  17
HETATM   17  S   UNL     1     -11.239   5.737 -32.459  1.00  0.00    -0.084 SA
BRANCH  17  18
HETATM   18  C   UNL     1     -11.955   4.461 -31.377  1.00  0.00     0.121 C 
BRANCH  18  19
HETATM   19  C   UNL     1     -12.810   3.486 -32.153  1.00  0.00    -0.048 A 
HETATM   20  C   UNL     1     -14.094   3.147 -31.696  1.00  0.00     0.009 A 
HETATM   21  C   UNL     1     -14.888   2.252 -32.416  1.00  0.00     0.024 A 
HETATM   22  C   UNL     1     -14.403   1.686 -33.592  1.00  0.00     0.034 A 
HETATM   23 CL   UNL     1     -15.384   0.586 -34.481  1.00  0.00    -0.084 Cl
HETATM   24  C   UNL     1     -13.127   2.004 -34.053  1.00  0.00     0.024 A 
HETATM   25  C   UNL     1     -12.331   2.900 -33.335  1.00  0.00     0.009 A 
ENDBRANCH  18  19
ENDBRANCH  17  18
ENDBRANCH   7  17
BRANCH   1  26
HETATM   26  C   UNL     1      -6.753   0.290 -31.950  1.00  0.00     0.203 C 
HETATM   27  O   UNL     1      -6.882   0.010 -30.752  1.00  0.00    -0.288 OA
BRANCH  26  28
HETATM   28  C   UNL     1      -6.217  -0.749 -32.870  1.00  0.00     0.014 A 
HETATM   29  C   UNL     1      -7.107  -1.331 -33.786  1.00  0.00     0.015 A 
HETATM   30  C   UNL     1      -6.661  -2.307 -34.678  1.00  0.00     0.001 A 
HETATM   31  C   UNL     1      -5.328  -2.713 -34.653  1.00  0.00     0.000 A 
HETATM   32  C   UNL     1      -4.443  -2.149 -33.735  1.00  0.00     0.001 A 
HETATM   33  C   UNL     1      -4.884  -1.170 -32.840  1.00  0.00     0.015 A 
ENDBRANCH  26  28
ENDBRANCH   1  26
TORSDOF 5
ENDMDL
MODEL 9
REMARK VINA RESULT:      -8.7      4.152      8.569
REMARK  5 active torsions:
REMARK  status: ('A' for Active; 'I' for Inactive)
REMARK    1  A    between atoms: C_4  and  C_5 
REMARK    2  A    between atoms: C_5  and  C_6 
REMARK    3  A    between atoms: C_12  and  S_13 
REMARK    4  A    between atoms: S_13  and  C_14 
REMARK    5  A    between atoms: C_14  and  C_15 
ROOT
HETATM    1  C   UNL     1      -6.141   1.795 -30.985  1.00  0.00     0.283 C 
HETATM    2  O   UNL     1      -5.348   2.229 -32.081  1.00  0.00    -0.303 OA
HETATM    3  C   UNL     1      -5.114   3.579 -32.000  1.00  0.00     0.201 A 
HETATM    4  C   UNL     1      -6.098   4.458 -32.418  1.00  0.00     0.144 A 
HETATM    5  N   UNL     1      -5.801   5.768 -32.490  1.00  0.00    -0.142 NA
HETATM    6  N   UNL     1      -4.545   6.172 -32.130  1.00  0.00    -0.122 NA
HETATM    7  C   UNL     1      -3.631   5.261 -31.719  1.00  0.00     0.212 A 
HETATM    8  N   UNL     1      -3.863   3.939 -31.652  1.00  0.00    -0.195 NA
HETATM    9  C   UNL     1      -7.441   4.009 -32.772  1.00  0.00     0.020 A 
HETATM   10  C   UNL     1      -8.071   2.995 -32.012  1.00  0.00     0.023 A 
HETATM   11  N   UNL     1      -7.471   2.447 -30.858  1.00  0.00    -0.259 NA
HETATM   12  C   UNL     1      -8.130   4.577 -33.860  1.00  0.00     0.016 A 
HETATM   13  C   UNL     1      -9.413   4.149 -34.199  1.00  0.00     0.001 A 
HETATM   14  C   UNL     1     -10.035   3.161 -33.444  1.00  0.00     0.002 A 
HETATM   15  C   UNL     1      -9.374   2.600 -32.350  1.00  0.00     0.024 A 
HETATM   16  H   UNL     1      -8.100   1.756 -30.434  1.00  0.00     0.130 HD
ENDROOT
BRANCH   7  17
HETATM   17  S   UNL     1      -2.013   5.820 -31.249  1.00  0.00    -0.084 SA
BRANCH  17  18
HETATM   18  C   UNL     1      -2.474   7.038 -29.980  1.00  0.00     0.121 C 
BRANCH  18  19
HETATM   19  C   UNL     1      -1.352   7.271 -28.995  1.00  0.00    -0.048 A 
HETATM   20  C   UNL     1      -1.580   7.142 -27.615  1.00  0.00     0.009 A 
HETATM   21  C   UNL     1      -0.542   7.349 -26.704  1.00  0.00     0.024 A 
HETATM   22  C   UNL     1       0.726   7.692 -27.164  1.00  0.00     0.034 A 
HETATM   23 CL   UNL     1       2.005   7.945 -26.040  1.00  0.00    -0.084 Cl
HETATM   24  C   UNL     1       0.966   7.834 -28.529  1.00  0.00     0.024 A 
HETATM   25  C   UNL     1      -0.070   7.627 -29.442  1.00  0.00     0.009 A 
ENDBRANCH  18  19
ENDBRANCH  17  18
ENDBRANCH   7  17
BRANCH   1  26
HETATM   26  C   UNL     1      -6.390   0.265 -31.071  1.00  0.00     0.203 C 
HETATM   27  O   UNL     1      -6.617  -0.406 -30.057  1.00  0.00    -0.288 OA
BRANCH  26  28
HETATM   28  C   UNL     1      -6.333  -0.430 -32.386  1.00  0.00     0.014 A 
HETATM   29  C   UNL     1      -5.159  -1.130 -32.704  1.00  0.00     0.015 A 
HETATM   30  C   UNL     1      -5.049  -1.805 -33.921  1.00  0.00     0.001 A 
HETATM   31  C   UNL     1      -6.106  -1.776 -34.829  1.00  0.00     0.000 A 
HETATM   32  C   UNL     1      -7.269  -1.068 -34.524  1.00  0.00     0.001 A 
HETATM   33  C   UNL     1      -7.385  -0.391 -33.307  1.00  0.00     0.015 A 
ENDBRANCH  26  28
ENDBRANCH   1  26
TORSDOF 5
ENDMDL
MODEL 10
REMARK VINA RESULT:      -8.7      2.761      4.921
REMARK  5 active torsions:
REMARK  status: ('A' for Active; 'I' for Inactive)
REMARK    1  A    between atoms: C_4  and  C_5 
REMARK    2  A    between atoms: C_5  and  C_6 
REMARK    3  A    between atoms: C_12  and  S_13 
REMARK    4  A    between atoms: S_13  and  C_14 
REMARK    5  A    between atoms: C_14  and  C_15 
ROOT
HETATM    1  C   UNL     1      -4.411   6.757 -30.286  1.00  0.00     0.283 C 
HETATM    2  O   UNL     1      -4.242   6.372 -31.643  1.00  0.00    -0.303 OA
HETATM    3  C   UNL     1      -3.930   5.038 -31.728  1.00  0.00     0.201 A 
HETATM    4  C   UNL     1      -2.626   4.637 -31.496  1.00  0.00     0.144 A 
HETATM    5  N   UNL     1      -2.295   3.356 -31.742  1.00  0.00    -0.142 NA
HETATM    6  N   UNL     1      -3.266   2.507 -32.194  1.00  0.00    -0.122 NA
HETATM    7  C   UNL     1      -4.527   2.961 -32.391  1.00  0.00     0.212 A 
HETATM    8  N   UNL     1      -4.909   4.233 -32.188  1.00  0.00    -0.195 NA
HETATM    9  C   UNL     1      -1.610   5.552 -30.986  1.00  0.00     0.020 A 
HETATM   10  C   UNL     1      -1.948   6.500 -29.991  1.00  0.00     0.023 A 
HETATM   11  N   UNL     1      -3.232   6.542 -29.407  1.00  0.00    -0.259 NA
HETATM   12  C   UNL     1      -0.288   5.505 -31.465  1.00  0.00     0.016 A 
HETATM   13  C   UNL     1       0.683   6.379 -30.980  1.00  0.00     0.001 A 
HETATM   14  C   UNL     1       0.352   7.302 -29.994  1.00  0.00     0.002 A 
HETATM   15  C   UNL     1      -0.950   7.352 -29.493  1.00  0.00     0.024 A 
HETATM   16  H   UNL     1      -3.262   7.273 -28.687  1.00  0.00     0.130 HD
ENDROOT
BRANCH   7  17
HETATM   17  S   UNL     1      -5.767   1.831 -32.970  1.00  0.00    -0.084 SA
BRANCH  17  18
HETATM   18  C   UNL     1      -5.134   0.291 -32.236  1.00  0.00     0.121 C 
BRANCH  18  19
HETATM   19  C   UNL     1      -5.446  -0.909 -33.099  1.00  0.00    -0.048 A 
HETATM   20  C   UNL     1      -4.428  -1.804 -33.465  1.00  0.00     0.009 A 
HETATM   21  C   UNL     1      -4.717  -2.918 -34.257  1.00  0.00     0.024 A 
HETATM   22  C   UNL     1      -6.020  -3.140 -34.692  1.00  0.00     0.034 A 
HETATM   23 CL   UNL     1      -6.375  -4.515 -35.665  1.00  0.00    -0.084 Cl
HETATM   24  C   UNL     1      -7.040  -2.255 -34.346  1.00  0.00     0.024 A 
HETATM   25  C   UNL     1      -6.753  -1.142 -33.554  1.00  0.00     0.009 A 
ENDBRANCH  18  19
ENDBRANCH  17  18
ENDBRANCH   7  17
BRANCH   1  26
HETATM   26  C   UNL     1      -4.780   8.263 -30.195  1.00  0.00     0.203 C 
HETATM   27  O   UNL     1      -4.488   9.050 -31.102  1.00  0.00    -0.288 OA
BRANCH  26  28
HETATM   28  C   UNL     1      -5.474   8.791 -28.989  1.00  0.00     0.014 A 
HETATM   29  C   UNL     1      -6.877   8.823 -29.005  1.00  0.00     0.015 A 
HETATM   30  C   UNL     1      -7.583   9.303 -27.901  1.00  0.00     0.001 A 
HETATM   31  C   UNL     1      -6.892   9.763 -26.781  1.00  0.00     0.000 A 
HETATM   32  C   UNL     1      -5.497   9.748 -26.767  1.00  0.00     0.001 A 
HETATM   33  C   UNL     1      -4.785   9.267 -27.869  1.00  0.00     0.015 A 
ENDBRANCH  26  28
ENDBRANCH   1  26
TORSDOF 5
ENDMDL
