MODEL 1
REMARK VINA RESULT:      -8.7      0.000      0.000
REMARK  5 active torsions:
REMARK  status: ('A' for Active; 'I' for Inactive)
REMARK    1  A    between atoms: O_2  and  C_3 
REMARK    2  A    between atoms: C_7  and  C_8 
REMARK    3  A    between atoms: C_8  and  N_9 
REMARK       I    between atoms: N_9  and  C_10 
REMARK    4  A    between atoms: C_10  and  C_11 
REMARK    5  A    between atoms: C_13  and  C_14 
ROOT
HETATM    1  N   UNL     1      -8.050   1.759 -33.700  1.00  0.00    -0.353 N 
HETATM    2  C   UNL     1      -6.698   1.946 -33.876  1.00  0.00     0.251 C 
HETATM    3  O   UNL     1      -6.213   2.974 -34.335  1.00  0.00    -0.268 OA
HETATM    4  H   UNL     1      -8.412   0.880 -33.361  1.00  0.00     0.163 HD
ENDROOT
BRANCH   2   5
HETATM    5  C   UNL     1      -5.813   0.805 -33.515  1.00  0.00     0.032 A 
HETATM    6  C   UNL     1      -6.108  -0.455 -34.056  1.00  0.00     0.029 A 
HETATM    7  C   UNL     1      -5.306  -1.567 -33.763  1.00  0.00    -0.023 A 
HETATM    8  C   UNL     1      -4.199  -1.395 -32.921  1.00  0.00     0.012 A 
HETATM    9  C   UNL     1      -3.892  -0.138 -32.391  1.00  0.00     0.002 A 
HETATM   10  C   UNL     1      -4.695   0.963 -32.688  1.00  0.00     0.017 A 
BRANCH   7  11
HETATM   11  C   UNL     1      -5.637  -2.868 -34.322  1.00  0.00    -0.002 A 
HETATM   12  C   UNL     1      -4.765  -3.936 -34.395  1.00  0.00     0.153 A 
HETATM   13  O   UNL     1      -5.360  -5.010 -34.977  1.00  0.00    -0.334 OA
HETATM   14  C   UNL     1      -6.624  -4.635 -35.292  1.00  0.00     0.142 A 
HETATM   15  C   UNL     1      -6.845  -3.331 -34.918  1.00  0.00     0.038 A 
ENDBRANCH   7  11
ENDBRANCH   2   5
BRANCH   1  16
HETATM   16  C   UNL     1      -8.993   2.815 -33.991  1.00  0.00     0.161 C 
BRANCH  16  17
HETATM   17  C   UNL     1     -10.379   2.266 -34.207  1.00  0.00    -0.037 A 
HETATM   18  C   UNL     1     -10.776   1.059 -33.618  1.00  0.00     0.054 A 
HETATM   19  C   UNL     1     -12.073   0.575 -33.802  1.00  0.00     0.150 A 
HETATM   20  C   UNL     1     -13.002   1.276 -34.573  1.00  0.00     0.106 A 
HETATM   21  F   UNL     1     -12.386  -0.587 -33.211  1.00  0.00    -0.203 F 
HETATM   22  C   UNL     1     -12.602   2.477 -35.170  1.00  0.00     0.040 A 
HETATM   23  C   UNL     1     -11.307   2.970 -34.985  1.00  0.00     0.012 A 
BRANCH  20  24
HETATM   24  O   UNL     1     -14.298   0.928 -34.833  1.00  0.00    -0.353 OA
HETATM   25  C   UNL     1     -15.242   1.124 -33.788  1.00  0.00     0.210 C 
ENDBRANCH  20  24
ENDBRANCH  16  17
ENDBRANCH   1  16
TORSDOF 5
ENDMDL
MODEL 2
REMARK VINA RESULT:      -8.4      4.515      7.475
REMARK  5 active torsions:
REMARK  status: ('A' for Active; 'I' for Inactive)
REMARK    1  A    between atoms: O_2  and  C_3 
REMARK    2  A    between atoms: C_7  and  C_8 
REMARK    3  A    between atoms: C_8  and  N_9 
REMARK       I    between atoms: N_9  and  C_10 
REMARK    4  A    between atoms: C_10  and  C_11 
REMARK    5  A    between atoms: C_13  and  C_14 
ROOT
HETATM    1  N   UNL     1      -6.103   3.658 -34.238  1.00  0.00    -0.353 N 
HETATM    2  C   UNL     1      -6.206   2.656 -33.301  1.00  0.00     0.251 C 
HETATM    3  O   UNL     1      -6.196   2.858 -32.093  1.00  0.00    -0.268 OA
HETATM    4  H   UNL     1      -6.069   3.446 -35.224  1.00  0.00     0.163 HD
ENDROOT
BRANCH   2   5
HETATM    5  C   UNL     1      -6.294   1.263 -33.819  1.00  0.00     0.032 A 
HETATM    6  C   UNL     1      -5.404   0.311 -33.302  1.00  0.00     0.029 A 
HETATM    7  C   UNL     1      -5.443  -1.020 -33.741  1.00  0.00    -0.023 A 
HETATM    8  C   UNL     1      -6.394  -1.383 -34.705  1.00  0.00     0.012 A 
HETATM    9  C   UNL     1      -7.293  -0.440 -35.212  1.00  0.00     0.002 A 
HETATM   10  C   UNL     1      -7.247   0.882 -34.770  1.00  0.00     0.017 A 
BRANCH   7  11
HETATM   11  C   UNL     1      -4.502  -1.990 -33.204  1.00  0.00    -0.002 A 
HETATM   12  C   UNL     1      -4.264  -3.237 -33.748  1.00  0.00     0.153 A 
HETATM   13  O   UNL     1      -3.341  -3.917 -33.018  1.00  0.00    -0.334 OA
HETATM   14  C   UNL     1      -2.984  -3.110 -31.988  1.00  0.00     0.142 A 
HETATM   15  C   UNL     1      -3.669  -1.920 -32.052  1.00  0.00     0.038 A 
ENDBRANCH   7  11
ENDBRANCH   2   5
BRANCH   1  16
HETATM   16  C   UNL     1      -6.043   5.047 -33.841  1.00  0.00     0.161 C 
BRANCH  16  17
HETATM   17  C   UNL     1      -4.617   5.514 -33.703  1.00  0.00    -0.037 A 
HETATM   18  C   UNL     1      -3.633   5.106 -34.611  1.00  0.00     0.054 A 
HETATM   19  C   UNL     1      -2.321   5.568 -34.488  1.00  0.00     0.150 A 
HETATM   20  C   UNL     1      -1.958   6.445 -33.464  1.00  0.00     0.106 A 
HETATM   21  F   UNL     1      -1.429   5.136 -35.391  1.00  0.00    -0.203 F 
HETATM   22  C   UNL     1      -2.939   6.846 -32.551  1.00  0.00     0.040 A 
HETATM   23  C   UNL     1      -4.256   6.391 -32.671  1.00  0.00     0.012 A 
BRANCH  20  24
HETATM   24  O   UNL     1      -0.722   6.980 -33.228  1.00  0.00    -0.353 OA
HETATM   25  C   UNL     1      -0.252   6.952 -31.885  1.00  0.00     0.210 C 
ENDBRANCH  20  24
ENDBRANCH  16  17
ENDBRANCH   1  16
TORSDOF 5
ENDMDL
MODEL 3
REMARK VINA RESULT:      -8.2      4.405      7.480
REMARK  5 active torsions:
REMARK  status: ('A' for Active; 'I' for Inactive)
REMARK    1  A    between atoms: O_2  and  C_3 
REMARK    2  A    between atoms: C_7  and  C_8 
REMARK    3  A    between atoms: C_8  and  N_9 
REMARK       I    between atoms: N_9  and  C_10 
REMARK    4  A    between atoms: C_10  and  C_11 
REMARK    5  A    between atoms: C_13  and  C_14 
ROOT
HETATM    1  N   UNL     1      -3.869   1.611 -32.358  1.00  0.00    -0.353 N 
HETATM    2  C   UNL     1      -5.162   1.199 -32.130  1.00  0.00     0.251 C 
HETATM    3  O   UNL     1      -5.753   1.385 -31.073  1.00  0.00    -0.268 OA
HETATM    4  H   UNL     1      -3.402   1.398 -33.228  1.00  0.00     0.163 HD
ENDROOT
BRANCH   2   5
HETATM    5  C   UNL     1      -5.833   0.461 -33.235  1.00  0.00     0.032 A 
HETATM    6  C   UNL     1      -5.538  -0.901 -33.391  1.00  0.00     0.029 A 
HETATM    7  C   UNL     1      -6.145  -1.655 -34.405  1.00  0.00    -0.023 A 
HETATM    8  C   UNL     1      -7.058  -1.021 -35.259  1.00  0.00     0.012 A 
HETATM    9  C   UNL     1      -7.367   0.332 -35.098  1.00  0.00     0.002 A 
HETATM   10  C   UNL     1      -6.758   1.075 -34.086  1.00  0.00     0.017 A 
BRANCH   7  11
HETATM   11  C   UNL     1      -5.814  -3.063 -34.561  1.00  0.00    -0.002 A 
HETATM   12  C   UNL     1      -6.666  -4.016 -35.084  1.00  0.00     0.153 A 
HETATM   13  O   UNL     1      -6.078  -5.241 -35.091  1.00  0.00    -0.334 OA
HETATM   14  C   UNL     1      -4.839  -5.084 -34.561  1.00  0.00     0.142 A 
HETATM   15  C   UNL     1      -4.628  -3.771 -34.215  1.00  0.00     0.038 A 
ENDBRANCH   7  11
ENDBRANCH   2   5
BRANCH   1  16
HETATM   16  C   UNL     1      -3.139   2.362 -31.362  1.00  0.00     0.161 C 
BRANCH  16  17
HETATM   17  C   UNL     1      -2.757   3.725 -31.877  1.00  0.00    -0.037 A 
HETATM   18  C   UNL     1      -3.290   4.220 -33.074  1.00  0.00     0.054 A 
HETATM   19  C   UNL     1      -2.950   5.496 -33.526  1.00  0.00     0.150 A 
HETATM   20  C   UNL     1      -2.076   6.309 -32.801  1.00  0.00     0.106 A 
HETATM   21  F   UNL     1      -3.496   5.906 -34.680  1.00  0.00    -0.203 F 
HETATM   22  C   UNL     1      -1.536   5.811 -31.611  1.00  0.00     0.040 A 
HETATM   23  C   UNL     1      -1.876   4.536 -31.149  1.00  0.00     0.012 A 
BRANCH  20  24
HETATM   24  O   UNL     1      -1.661   7.573 -33.118  1.00  0.00    -0.353 OA
HETATM   25  C   UNL     1      -1.885   8.588 -32.148  1.00  0.00     0.210 C 
ENDBRANCH  20  24
ENDBRANCH  16  17
ENDBRANCH   1  16
TORSDOF 5
ENDMDL
MODEL 4
REMARK VINA RESULT:      -8.1      4.959      8.415
REMARK  5 active torsions:
REMARK  status: ('A' for Active; 'I' for Inactive)
REMARK    1  A    between atoms: O_2  and  C_3 
REMARK    2  A    between atoms: C_7  and  C_8 
REMARK    3  A    between atoms: C_8  and  N_9 
REMARK       I    between atoms: N_9  and  C_10 
REMARK    4  A    between atoms: C_10  and  C_11 
REMARK    5  A    between atoms: C_13  and  C_14 
ROOT
HETATM    1  N   UNL     1      -5.048   2.454 -32.893  1.00  0.00    -0.353 N 
HETATM    2  C   UNL     1      -4.206   2.893 -31.897  1.00  0.00     0.251 C 
HETATM    3  O   UNL     1      -4.341   2.589 -30.718  1.00  0.00    -0.268 OA
HETATM    4  H   UNL     1      -4.930   2.764 -33.847  1.00  0.00     0.163 HD
ENDROOT
BRANCH   2   5
HETATM    5  C   UNL     1      -3.109   3.812 -32.306  1.00  0.00     0.032 A 
HETATM    6  C   UNL     1      -2.334   4.402 -31.297  1.00  0.00     0.029 A 
HETATM    7  C   UNL     1      -1.279   5.268 -31.616  1.00  0.00    -0.023 A 
HETATM    8  C   UNL     1      -1.011   5.531 -32.967  1.00  0.00     0.012 A 
HETATM    9  C   UNL     1      -1.771   4.934 -33.976  1.00  0.00     0.002 A 
HETATM   10  C   UNL     1      -2.819   4.072 -33.649  1.00  0.00     0.017 A 
BRANCH   7  11
HETATM   11  C   UNL     1      -0.496   5.881 -30.556  1.00  0.00    -0.002 A 
HETATM   12  C   UNL     1       0.284   5.186 -29.653  1.00  0.00     0.153 A 
HETATM   13  O   UNL     1       0.885   6.033 -28.777  1.00  0.00    -0.334 OA
HETATM   14  C   UNL     1       0.486   7.286 -29.107  1.00  0.00     0.142 A 
HETATM   15  C   UNL     1      -0.364   7.250 -30.187  1.00  0.00     0.038 A 
ENDBRANCH   7  11
ENDBRANCH   2   5
BRANCH   1  16
HETATM   16  C   UNL     1      -6.126   1.535 -32.608  1.00  0.00     0.161 C 
BRANCH  16  17
HETATM   17  C   UNL     1      -5.915   0.214 -33.300  1.00  0.00    -0.037 A 
HETATM   18  C   UNL     1      -4.854  -0.627 -32.943  1.00  0.00     0.054 A 
HETATM   19  C   UNL     1      -4.685  -1.862 -33.572  1.00  0.00     0.150 A 
HETATM   20  C   UNL     1      -5.566  -2.289 -34.568  1.00  0.00     0.106 A 
HETATM   21  F   UNL     1      -3.647  -2.616 -33.182  1.00  0.00    -0.203 F 
HETATM   22  C   UNL     1      -6.621  -1.446 -34.932  1.00  0.00     0.040 A 
HETATM   23  C   UNL     1      -6.798  -0.210 -34.302  1.00  0.00     0.012 A 
BRANCH  20  24
HETATM   24  O   UNL     1      -5.527  -3.467 -35.262  1.00  0.00    -0.353 OA
HETATM   25  C   UNL     1      -6.530  -4.429 -34.957  1.00  0.00     0.210 C 
ENDBRANCH  20  24
ENDBRANCH  16  17
ENDBRANCH   1  16
TORSDOF 5
ENDMDL
MODEL 5
REMARK VINA RESULT:      -8.0      4.764      8.644
REMARK  5 active torsions:
REMARK  status: ('A' for Active; 'I' for Inactive)
REMARK    1  A    between atoms: O_2  and  C_3 
REMARK    2  A    between atoms: C_7  and  C_8 
REMARK    3  A    between atoms: C_8  and  N_9 
REMARK       I    between atoms: N_9  and  C_10 
REMARK    4  A    between atoms: C_10  and  C_11 
REMARK    5  A    between atoms: C_13  and  C_14 
ROOT
HETATM    1  N   UNL     1      -4.950   2.361 -32.987  1.00  0.00    -0.353 N 
HETATM    2  C   UNL     1      -4.143   2.828 -31.975  1.00  0.00     0.251 C 
HETATM    3  O   UNL     1      -4.289   2.518 -30.798  1.00  0.00    -0.268 OA
HETATM    4  H   UNL     1      -4.825   2.676 -33.938  1.00  0.00     0.163 HD
ENDROOT
BRANCH   2   5
HETATM    5  C   UNL     1      -3.072   3.787 -32.362  1.00  0.00     0.032 A 
HETATM    6  C   UNL     1      -2.298   4.357 -31.341  1.00  0.00     0.029 A 
HETATM    7  C   UNL     1      -1.267   5.258 -31.641  1.00  0.00    -0.023 A 
HETATM    8  C   UNL     1      -1.022   5.577 -32.984  1.00  0.00     0.012 A 
HETATM    9  C   UNL     1      -1.781   5.000 -34.006  1.00  0.00     0.002 A 
HETATM   10  C   UNL     1      -2.805   4.103 -33.699  1.00  0.00     0.017 A 
BRANCH   7  11
HETATM   11  C   UNL     1      -0.484   5.850 -30.568  1.00  0.00    -0.002 A 
HETATM   12  C   UNL     1       0.277   5.135 -29.665  1.00  0.00     0.153 A 
HETATM   13  O   UNL     1       0.883   5.964 -28.776  1.00  0.00    -0.334 OA
HETATM   14  C   UNL     1       0.506   7.227 -29.098  1.00  0.00     0.142 A 
HETATM   15  C   UNL     1      -0.336   7.213 -30.185  1.00  0.00     0.038 A 
ENDBRANCH   7  11
ENDBRANCH   2   5
BRANCH   1  16
HETATM   16  C   UNL     1      -5.999   1.403 -32.722  1.00  0.00     0.161 C 
BRANCH  16  17
HETATM   17  C   UNL     1      -5.614   0.026 -33.195  1.00  0.00    -0.037 A 
HETATM   18  C   UNL     1      -6.553  -0.817 -33.803  1.00  0.00     0.054 A 
HETATM   19  C   UNL     1      -6.177  -2.081 -34.263  1.00  0.00     0.150 A 
HETATM   20  C   UNL     1      -4.863  -2.535 -34.130  1.00  0.00     0.106 A 
HETATM   21  F   UNL     1      -7.126  -2.836 -34.834  1.00  0.00    -0.203 F 
HETATM   22  C   UNL     1      -3.927  -1.697 -33.514  1.00  0.00     0.040 A 
HETATM   23  C   UNL     1      -4.296  -0.428 -33.056  1.00  0.00     0.012 A 
BRANCH  20  24
HETATM   24  O   UNL     1      -4.355  -3.738 -34.536  1.00  0.00    -0.353 OA
HETATM   25  C   UNL     1      -3.632  -4.493 -33.571  1.00  0.00     0.210 C 
ENDBRANCH  20  24
ENDBRANCH  16  17
ENDBRANCH   1  16
TORSDOF 5
ENDMDL
MODEL 6
REMARK VINA RESULT:      -7.9      3.842      7.731
REMARK  5 active torsions:
REMARK  status: ('A' for Active; 'I' for Inactive)
REMARK    1  A    between atoms: O_2  and  C_3 
REMARK    2  A    between atoms: C_7  and  C_8 
REMARK    3  A    between atoms: C_8  and  N_9 
REMARK       I    between atoms: N_9  and  C_10 
REMARK    4  A    between atoms: C_10  and  C_11 
REMARK    5  A    between atoms: C_13  and  C_14 
ROOT
HETATM    1  N   UNL     1      -6.320   1.603 -33.698  1.00  0.00    -0.353 N 
HETATM    2  C   UNL     1      -6.705   2.183 -32.512  1.00  0.00     0.251 C 
HETATM    3  O   UNL     1      -7.748   1.904 -31.932  1.00  0.00    -0.268 OA
HETATM    4  H   UNL     1      -5.474   1.893 -34.167  1.00  0.00     0.163 HD
ENDROOT
BRANCH   2   5
HETATM    5  C   UNL     1      -5.802   3.227 -31.953  1.00  0.00     0.032 A 
HETATM    6  C   UNL     1      -4.831   3.779 -32.800  1.00  0.00     0.029 A 
HETATM    7  C   UNL     1      -3.958   4.773 -32.338  1.00  0.00    -0.023 A 
HETATM    8  C   UNL     1      -4.077   5.210 -31.011  1.00  0.00     0.012 A 
HETATM    9  C   UNL     1      -5.054   4.673 -30.168  1.00  0.00     0.002 A 
HETATM   10  C   UNL     1      -5.920   3.684 -30.636  1.00  0.00     0.017 A 
BRANCH   7  11
HETATM   11  C   UNL     1      -2.946   5.323 -33.227  1.00  0.00    -0.002 A 
HETATM   12  C   UNL     1      -2.723   6.672 -33.423  1.00  0.00     0.153 A 
HETATM   13  O   UNL     1      -1.721   6.872 -34.319  1.00  0.00    -0.334 OA
HETATM   14  C   UNL     1      -1.297   5.646 -34.714  1.00  0.00     0.142 A 
HETATM   15  C   UNL     1      -2.017   4.662 -34.080  1.00  0.00     0.038 A 
ENDBRANCH   7  11
ENDBRANCH   2   5
BRANCH   1  16
HETATM   16  C   UNL     1      -7.110   0.558 -34.308  1.00  0.00     0.161 C 
BRANCH  16  17
HETATM   17  C   UNL     1      -6.374  -0.757 -34.303  1.00  0.00    -0.037 A 
HETATM   18  C   UNL     1      -6.990  -1.930 -34.757  1.00  0.00     0.054 A 
HETATM   19  C   UNL     1      -6.289  -3.137 -34.774  1.00  0.00     0.150 A 
HETATM   20  C   UNL     1      -4.963  -3.207 -34.340  1.00  0.00     0.106 A 
HETATM   21  F   UNL     1      -6.939  -4.221 -35.220  1.00  0.00    -0.203 F 
HETATM   22  C   UNL     1      -4.351  -2.038 -33.877  1.00  0.00     0.040 A 
HETATM   23  C   UNL     1      -5.046  -0.824 -33.863  1.00  0.00     0.012 A 
BRANCH  20  24
HETATM   24  O   UNL     1      -4.157  -4.311 -34.306  1.00  0.00    -0.353 OA
HETATM   25  C   UNL     1      -3.386  -4.512 -33.128  1.00  0.00     0.210 C 
ENDBRANCH  20  24
ENDBRANCH  16  17
ENDBRANCH   1  16
TORSDOF 5
ENDMDL
MODEL 7
REMARK VINA RESULT:      -7.8      5.486      7.919
REMARK  5 active torsions:
REMARK  status: ('A' for Active; 'I' for Inactive)
REMARK    1  A    between atoms: O_2  and  C_3 
REMARK    2  A    between atoms: C_7  and  C_8 
REMARK    3  A    between atoms: C_8  and  N_9 
REMARK       I    between atoms: N_9  and  C_10 
REMARK    4  A    between atoms: C_10  and  C_11 
REMARK    5  A    between atoms: C_13  and  C_14 
ROOT
HETATM    1  N   UNL     1      -3.906   2.345 -32.506  1.00  0.00    -0.353 N 
HETATM    2  C   UNL     1      -4.827   1.341 -32.699  1.00  0.00     0.251 C 
HETATM    3  O   UNL     1      -6.018   1.548 -32.903  1.00  0.00    -0.268 OA
HETATM    4  H   UNL     1      -2.942   2.132 -32.297  1.00  0.00     0.163 HD
ENDROOT
BRANCH   2   5
HETATM    5  C   UNL     1      -4.321  -0.057 -32.613  1.00  0.00     0.032 A 
HETATM    6  C   UNL     1      -4.961  -1.038 -33.383  1.00  0.00     0.029 A 
HETATM    7  C   UNL     1      -4.525  -2.370 -33.354  1.00  0.00    -0.023 A 
HETATM    8  C   UNL     1      -3.432  -2.702 -32.542  1.00  0.00     0.012 A 
HETATM    9  C   UNL     1      -2.781  -1.725 -31.784  1.00  0.00     0.002 A 
HETATM   10  C   UNL     1      -3.221  -0.401 -31.819  1.00  0.00     0.017 A 
BRANCH   7  11
HETATM   11  C   UNL     1      -5.211  -3.376 -34.149  1.00  0.00    -0.002 A 
HETATM   12  C   UNL     1      -4.722  -4.642 -34.405  1.00  0.00     0.153 A 
HETATM   13  O   UNL     1      -5.584  -5.347 -35.184  1.00  0.00    -0.334 OA
HETATM   14  C   UNL     1      -6.636  -4.531 -35.442  1.00  0.00     0.142 A 
HETATM   15  C   UNL     1      -6.457  -3.310 -34.836  1.00  0.00     0.038 A 
ENDBRANCH   7  11
ENDBRANCH   2   5
BRANCH   1  16
HETATM   16  C   UNL     1      -4.288   3.735 -32.600  1.00  0.00     0.161 C 
BRANCH  16  17
HETATM   17  C   UNL     1      -3.292   4.624 -31.903  1.00  0.00    -0.037 A 
HETATM   18  C   UNL     1      -1.915   4.435 -32.071  1.00  0.00     0.054 A 
HETATM   19  C   UNL     1      -1.001   5.283 -31.442  1.00  0.00     0.150 A 
HETATM   20  C   UNL     1      -1.434   6.336 -30.634  1.00  0.00     0.106 A 
HETATM   21  F   UNL     1       0.303   5.044 -31.645  1.00  0.00    -0.203 F 
HETATM   22  C   UNL     1      -2.809   6.520 -30.458  1.00  0.00     0.040 A 
HETATM   23  C   UNL     1      -3.730   5.677 -31.089  1.00  0.00     0.012 A 
BRANCH  20  24
HETATM   24  O   UNL     1      -0.659   7.243 -29.965  1.00  0.00    -0.353 OA
HETATM   25  C   UNL     1       0.223   6.732 -28.972  1.00  0.00     0.210 C 
ENDBRANCH  20  24
ENDBRANCH  16  17
ENDBRANCH   1  16
TORSDOF 5
ENDMDL
MODEL 8
REMARK VINA RESULT:      -7.6      2.329      7.778
REMARK  5 active torsions:
REMARK  status: ('A' for Active; 'I' for Inactive)
REMARK    1  A    between atoms: O_2  and  C_3 
REMARK    2  A    between atoms: C_7  and  C_8 
REMARK    3  A    between atoms: C_8  and  N_9 
REMARK       I    between atoms: N_9  and  C_10 
REMARK    4  A    between atoms: C_10  and  C_11 
REMARK    5  A    between atoms: C_13  and  C_14 
ROOT
HETATM    1  N   UNL     1      -7.095   1.772 -33.371  1.00  0.00    -0.353 N 
HETATM    2  C   UNL     1      -8.277   1.893 -32.676  1.00  0.00     0.251 C 
HETATM    3  O   UNL     1      -8.439   1.460 -31.542  1.00  0.00    -0.268 OA
HETATM    4  H   UNL     1      -7.016   2.102 -34.322  1.00  0.00     0.163 HD
ENDROOT
BRANCH   2   5
HETATM    5  C   UNL     1      -9.404   2.558 -33.386  1.00  0.00     0.032 A 
HETATM    6  C   UNL     1     -10.676   1.974 -33.293  1.00  0.00     0.029 A 
HETATM    7  C   UNL     1     -11.781   2.557 -33.929  1.00  0.00    -0.023 A 
HETATM    8  C   UNL     1     -11.591   3.740 -34.657  1.00  0.00     0.012 A 
HETATM    9  C   UNL     1     -10.328   4.334 -34.739  1.00  0.00     0.002 A 
HETATM   10  C   UNL     1      -9.234   3.747 -34.103  1.00  0.00     0.017 A 
BRANCH   7  11
HETATM   11  C   UNL     1     -13.089   1.929 -33.834  1.00  0.00    -0.002 A 
HETATM   12  C   UNL     1     -14.083   2.314 -32.957  1.00  0.00     0.153 A 
HETATM   13  O   UNL     1     -15.185   1.532 -33.098  1.00  0.00    -0.334 OA
HETATM   14  C   UNL     1     -14.902   0.626 -34.066  1.00  0.00     0.142 A 
HETATM   15  C   UNL     1     -13.629   0.821 -34.548  1.00  0.00     0.038 A 
ENDBRANCH   7  11
ENDBRANCH   2   5
BRANCH   1  16
HETATM   16  C   UNL     1      -5.931   1.170 -32.763  1.00  0.00     0.161 C 
BRANCH  16  17
HETATM   17  C   UNL     1      -5.674  -0.207 -33.317  1.00  0.00    -0.037 A 
HETATM   18  C   UNL     1      -4.599  -0.980 -32.861  1.00  0.00     0.054 A 
HETATM   19  C   UNL     1      -4.388  -2.265 -33.363  1.00  0.00     0.150 A 
HETATM   20  C   UNL     1      -5.238  -2.811 -34.327  1.00  0.00     0.106 A 
HETATM   21  F   UNL     1      -3.340  -2.950 -32.883  1.00  0.00    -0.203 F 
HETATM   22  C   UNL     1      -6.305  -2.036 -34.791  1.00  0.00     0.040 A 
HETATM   23  C   UNL     1      -6.526  -0.749 -34.289  1.00  0.00     0.012 A 
BRANCH  20  24
HETATM   24  O   UNL     1      -5.156  -4.050 -34.901  1.00  0.00    -0.353 OA
HETATM   25  C   UNL     1      -6.362  -4.607 -35.409  1.00  0.00     0.210 C 
ENDBRANCH  20  24
ENDBRANCH  16  17
ENDBRANCH   1  16
TORSDOF 5
ENDMDL
MODEL 9
REMARK VINA RESULT:      -7.6      4.488      7.700
REMARK  5 active torsions:
REMARK  status: ('A' for Active; 'I' for Inactive)
REMARK    1  A    between atoms: O_2  and  C_3 
REMARK    2  A    between atoms: C_7  and  C_8 
REMARK    3  A    between atoms: C_8  and  N_9 
REMARK       I    between atoms: N_9  and  C_10 
REMARK    4  A    between atoms: C_10  and  C_11 
REMARK    5  A    between atoms: C_13  and  C_14 
ROOT
HETATM    1  N   UNL     1      -5.928   2.823 -31.969  1.00  0.00    -0.353 N 
HETATM    2  C   UNL     1      -6.345   2.705 -33.275  1.00  0.00     0.251 C 
HETATM    3  O   UNL     1      -6.695   3.659 -33.960  1.00  0.00    -0.268 OA
HETATM    4  H   UNL     1      -5.690   2.007 -31.425  1.00  0.00     0.163 HD
ENDROOT
BRANCH   2   5
HETATM    5  C   UNL     1      -6.396   1.328 -33.839  1.00  0.00     0.032 A 
HETATM    6  C   UNL     1      -5.508   0.373 -33.324  1.00  0.00     0.029 A 
HETATM    7  C   UNL     1      -5.514  -0.944 -33.805  1.00  0.00    -0.023 A 
HETATM    8  C   UNL     1      -6.429  -1.289 -34.809  1.00  0.00     0.012 A 
HETATM    9  C   UNL     1      -7.325  -0.344 -35.315  1.00  0.00     0.002 A 
HETATM   10  C   UNL     1      -7.313   0.965 -34.831  1.00  0.00     0.017 A 
BRANCH   7  11
HETATM   11  C   UNL     1      -4.575  -1.917 -33.269  1.00  0.00    -0.002 A 
HETATM   12  C   UNL     1      -4.324  -3.155 -33.827  1.00  0.00     0.153 A 
HETATM   13  O   UNL     1      -3.408  -3.841 -33.095  1.00  0.00    -0.334 OA
HETATM   14  C   UNL     1      -3.068  -3.047 -32.049  1.00  0.00     0.142 A 
HETATM   15  C   UNL     1      -3.757  -1.859 -32.105  1.00  0.00     0.038 A 
ENDBRANCH   7  11
ENDBRANCH   2   5
BRANCH   1  16
HETATM   16  C   UNL     1      -5.813   4.118 -31.337  1.00  0.00     0.161 C 
BRANCH  16  17
HETATM   17  C   UNL     1      -4.382   4.585 -31.303  1.00  0.00    -0.037 A 
HETATM   18  C   UNL     1      -4.038   5.816 -30.731  1.00  0.00     0.054 A 
HETATM   19  C   UNL     1      -2.704   6.226 -30.681  1.00  0.00     0.150 A 
HETATM   20  C   UNL     1      -1.684   5.424 -31.197  1.00  0.00     0.106 A 
HETATM   21  F   UNL     1      -2.446   7.416 -30.120  1.00  0.00    -0.203 F 
HETATM   22  C   UNL     1      -2.028   4.199 -31.777  1.00  0.00     0.040 A 
HETATM   23  C   UNL     1      -3.361   3.780 -31.826  1.00  0.00     0.012 A 
BRANCH  20  24
HETATM   24  O   UNL     1      -0.343   5.693 -31.211  1.00  0.00    -0.353 OA
HETATM   25  C   UNL     1       0.387   5.399 -30.026  1.00  0.00     0.210 C 
ENDBRANCH  20  24
ENDBRANCH  16  17
ENDBRANCH   1  16
TORSDOF 5
ENDMDL
MODEL 10
REMARK VINA RESULT:      -7.4      5.621      8.605
REMARK  5 active torsions:
REMARK  status: ('A' for Active; 'I' for Inactive)
REMARK    1  A    between atoms: O_2  and  C_3 
REMARK    2  A    between atoms: C_7  and  C_8 
REMARK    3  A    between atoms: C_8  and  N_9 
REMARK       I    between atoms: N_9  and  C_10 
REMARK    4  A    between atoms: C_10  and  C_11 
REMARK    5  A    between atoms: C_13  and  C_14 
ROOT
HETATM    1  N   UNL     1      -3.322   3.523 -32.791  1.00  0.00    -0.353 N 
HETATM    2  C   UNL     1      -4.688   3.359 -32.742  1.00  0.00     0.251 C 
HETATM    3  O   UNL     1      -5.484   4.226 -33.084  1.00  0.00    -0.268 OA
HETATM    4  H   UNL     1      -2.701   2.801 -32.458  1.00  0.00     0.163 HD
ENDROOT
BRANCH   2   5
HETATM    5  C   UNL     1      -5.187   2.063 -32.207  1.00  0.00     0.032 A 
HETATM    6  C   UNL     1      -5.248   0.969 -33.082  1.00  0.00     0.029 A 
HETATM    7  C   UNL     1      -5.699  -0.282 -32.637  1.00  0.00    -0.023 A 
HETATM    8  C   UNL     1      -6.083  -0.419 -31.296  1.00  0.00     0.012 A 
HETATM    9  C   UNL     1      -6.009   0.664 -30.416  1.00  0.00     0.002 A 
HETATM   10  C   UNL     1      -5.559   1.905 -30.868  1.00  0.00     0.017 A 
BRANCH   7  11
HETATM   11  C   UNL     1      -5.770  -1.401 -33.563  1.00  0.00    -0.002 A 
HETATM   12  C   UNL     1      -6.936  -1.883 -34.124  1.00  0.00     0.153 A 
HETATM   13  O   UNL     1      -6.682  -2.939 -34.939  1.00  0.00    -0.334 OA
HETATM   14  C   UNL     1      -5.343  -3.151 -34.901  1.00  0.00     0.142 A 
HETATM   15  C   UNL     1      -4.737  -2.239 -34.070  1.00  0.00     0.038 A 
ENDBRANCH   7  11
ENDBRANCH   2   5
BRANCH   1  16
HETATM   16  C   UNL     1      -2.735   4.732 -33.322  1.00  0.00     0.161 C 
BRANCH  16  17
HETATM   17  C   UNL     1      -2.071   5.539 -32.237  1.00  0.00    -0.037 A 
HETATM   18  C   UNL     1      -0.738   5.952 -32.357  1.00  0.00     0.054 A 
HETATM   19  C   UNL     1      -0.143   6.723 -31.358  1.00  0.00     0.150 A 
HETATM   20  C   UNL     1      -0.856   7.103 -30.219  1.00  0.00     0.106 A 
HETATM   21  F   UNL     1       1.137   7.082 -31.536  1.00  0.00    -0.203 F 
HETATM   22  C   UNL     1      -2.184   6.683 -30.094  1.00  0.00     0.040 A 
HETATM   23  C   UNL     1      -2.789   5.915 -31.093  1.00  0.00     0.012 A 
BRANCH  20  24
HETATM   24  O   UNL     1      -0.406   7.856 -29.170  1.00  0.00    -0.353 OA
HETATM   25  C   UNL     1      -1.357   8.205 -28.171  1.00  0.00     0.210 C 
ENDBRANCH  20  24
ENDBRANCH  16  17
ENDBRANCH   1  16
TORSDOF 5
ENDMDL
