MODEL 1
REMARK VINA RESULT:      -8.1      0.000      0.000
REMARK  5 active torsions:
REMARK  status: ('A' for Active; 'I' for Inactive)
REMARK    1  A    between atoms: C_4  and  N_5 
REMARK       I    between atoms: N_5  and  C_6 
REMARK       I    between atoms: C_6  and  N_7 
REMARK    2  A    between atoms: N_7  and  C_8 
REMARK    3  A    between atoms: C_8  and  C_9 
REMARK    4  A    between atoms: C_9  and  N_10 
REMARK    5  A    between atoms: C_9  and  C_14 
ROOT
HETATM    1  N   UNL     1      -3.712  -0.624 -32.501  1.00  0.00    -0.307 N 
HETATM    2  C   UNL     1      -3.722   0.170 -31.409  1.00  0.00     0.320 C 
HETATM    3  N   UNL     1      -4.861   0.230 -30.678  1.00  0.00    -0.340 N 
HETATM    4  O   UNL     1      -2.714   0.773 -31.044  1.00  0.00    -0.247 OA
HETATM    5  H   UNL     1      -2.784  -0.843 -32.864  1.00  0.00     0.170 HD
HETATM    6  H   UNL     1      -5.475  -0.574 -30.759  1.00  0.00     0.164 HD
ENDROOT
BRANCH   1   7
HETATM    7  C   UNL     1      -4.742  -1.128 -33.340  1.00  0.00     0.066 A 
HETATM    8  C   UNL     1      -5.736  -0.328 -33.917  1.00  0.00     0.038 A 
HETATM    9  C   UNL     1      -6.714  -0.889 -34.746  1.00  0.00    -0.059 A 
HETATM   10  C   UNL     1      -7.762  -0.025 -35.385  1.00  0.00     0.048 C 
HETATM   11  C   UNL     1      -6.652  -2.254 -35.036  1.00  0.00     0.020 A 
HETATM   12  C   UNL     1      -5.633  -3.056 -34.499  1.00  0.00    -0.005 A 
HETATM   13  C   UNL     1      -4.662  -2.497 -33.641  1.00  0.00     0.093 A 
HETATM   14  C   UNL     1      -5.542  -4.420 -34.806  1.00  0.00     0.015 A 
HETATM   15  N   UNL     1      -3.659  -3.243 -33.118  1.00  0.00    -0.258 NA
HETATM   16  C   UNL     1      -3.604  -4.556 -33.441  1.00  0.00     0.117 A 
HETATM   17  C   UNL     1      -4.512  -5.183 -34.270  1.00  0.00     0.020 A 
ENDBRANCH   1   7
BRANCH   3  18
HETATM   18  C   UNL     1      -5.157   1.241 -29.668  1.00  0.00     0.164 C 
BRANCH  18  19
HETATM   19  C   UNL     1      -5.777   2.587 -30.163  1.00  0.00     0.261 C 
BRANCH  19  20
HETATM   20  N   UNL     1      -4.876   3.298 -31.172  1.00  0.00    -0.067 N 
HETATM   21  H   UNL     1      -3.970   2.787 -31.126  1.00  0.00     0.280 HD
HETATM   22  C   UNL     1      -5.290   3.199 -32.607  1.00  0.00     0.270 C 
HETATM   23  C   UNL     1      -4.565   4.710 -30.781  1.00  0.00     0.270 C 
ENDBRANCH  19  20
BRANCH  19  24
HETATM   24  C   UNL     1      -7.171   2.386 -30.675  1.00  0.00     0.085 A 
HETATM   25  O   UNL     1      -7.434   1.158 -31.214  1.00  0.00    -0.325 OA
HETATM   26  C   UNL     1      -8.732   1.164 -31.611  1.00  0.00     0.142 A 
HETATM   27  C   UNL     1      -9.316   2.374 -31.327  1.00  0.00     0.027 A 
HETATM   28  C   UNL     1      -8.312   3.167 -30.718  1.00  0.00     0.037 A 
ENDBRANCH  19  24
ENDBRANCH  18  19
ENDBRANCH   3  18
TORSDOF 5
ENDMDL
MODEL 2
REMARK VINA RESULT:      -8.1      2.090      3.646
REMARK  5 active torsions:
REMARK  status: ('A' for Active; 'I' for Inactive)
REMARK    1  A    between atoms: C_4  and  N_5 
REMARK       I    between atoms: N_5  and  C_6 
REMARK       I    between atoms: C_6  and  N_7 
REMARK    2  A    between atoms: N_7  and  C_8 
REMARK    3  A    between atoms: C_8  and  C_9 
REMARK    4  A    between atoms: C_9  and  N_10 
REMARK    5  A    between atoms: C_9  and  C_14 
ROOT
HETATM    1  N   UNL     1      -3.688  -0.912 -32.037  1.00  0.00    -0.307 N 
HETATM    2  C   UNL     1      -3.260   0.250 -31.498  1.00  0.00     0.320 C 
HETATM    3  N   UNL     1      -4.090   1.319 -31.553  1.00  0.00    -0.340 N 
HETATM    4  O   UNL     1      -2.178   0.329 -30.917  1.00  0.00    -0.247 OA
HETATM    5  H   UNL     1      -3.161  -1.737 -31.751  1.00  0.00     0.170 HD
HETATM    6  H   UNL     1      -5.077   1.101 -31.635  1.00  0.00     0.164 HD
ENDROOT
BRANCH   1   7
HETATM    7  C   UNL     1      -4.656  -1.218 -33.030  1.00  0.00     0.066 A 
HETATM    8  C   UNL     1      -5.523  -0.272 -33.590  1.00  0.00     0.038 A 
HETATM    9  C   UNL     1      -6.444  -0.641 -34.577  1.00  0.00    -0.059 A 
HETATM   10  C   UNL     1      -7.353   0.381 -35.195  1.00  0.00     0.048 C 
HETATM   11  C   UNL     1      -6.451  -1.960 -35.037  1.00  0.00     0.020 A 
HETATM   12  C   UNL     1      -5.555  -2.906 -34.514  1.00  0.00    -0.005 A 
HETATM   13  C   UNL     1      -4.643  -2.542 -33.500  1.00  0.00     0.093 A 
HETATM   14  C   UNL     1      -5.530  -4.224 -34.988  1.00  0.00     0.015 A 
HETATM   15  N   UNL     1      -3.758  -3.430 -32.985  1.00  0.00    -0.258 NA
HETATM   16  C   UNL     1      -3.764  -4.692 -33.472  1.00  0.00     0.117 A 
HETATM   17  C   UNL     1      -4.620  -5.132 -34.460  1.00  0.00     0.020 A 
ENDBRANCH   1   7
BRANCH   3  18
HETATM   18  C   UNL     1      -3.694   2.702 -31.306  1.00  0.00     0.164 C 
BRANCH  18  19
HETATM   19  C   UNL     1      -3.533   3.632 -32.551  1.00  0.00     0.261 C 
BRANCH  19  20
HETATM   20  N   UNL     1      -4.828   4.371 -32.889  1.00  0.00    -0.067 N 
HETATM   21  H   UNL     1      -4.518   5.255 -33.344  1.00  0.00     0.280 HD
HETATM   22  C   UNL     1      -5.712   3.716 -33.904  1.00  0.00     0.270 C 
HETATM   23  C   UNL     1      -5.595   4.789 -31.672  1.00  0.00     0.270 C 
ENDBRANCH  19  20
BRANCH  19  24
HETATM   24  C   UNL     1      -2.365   4.558 -32.388  1.00  0.00     0.085 A 
HETATM   25  O   UNL     1      -1.527   4.279 -31.346  1.00  0.00    -0.325 OA
HETATM   26  C   UNL     1      -0.540   5.209 -31.365  1.00  0.00     0.142 A 
HETATM   27  C   UNL     1      -0.720   6.081 -32.412  1.00  0.00     0.027 A 
HETATM   28  C   UNL     1      -1.897   5.662 -33.079  1.00  0.00     0.037 A 
ENDBRANCH  19  24
ENDBRANCH  18  19
ENDBRANCH   3  18
TORSDOF 5
ENDMDL
MODEL 3
REMARK VINA RESULT:      -7.9      2.898      5.550
REMARK  5 active torsions:
REMARK  status: ('A' for Active; 'I' for Inactive)
REMARK    1  A    between atoms: C_4  and  N_5 
REMARK       I    between atoms: N_5  and  C_6 
REMARK       I    between atoms: C_6  and  N_7 
REMARK    2  A    between atoms: N_7  and  C_8 
REMARK    3  A    between atoms: C_8  and  C_9 
REMARK    4  A    between atoms: C_9  and  N_10 
REMARK    5  A    between atoms: C_9  and  C_14 
ROOT
HETATM    1  N   UNL     1      -5.757   1.802 -30.936  1.00  0.00    -0.307 N 
HETATM    2  C   UNL     1      -5.253   3.047 -30.792  1.00  0.00     0.320 C 
HETATM    3  N   UNL     1      -4.552   3.571 -31.826  1.00  0.00    -0.340 N 
HETATM    4  O   UNL     1      -5.473   3.716 -29.784  1.00  0.00    -0.247 OA
HETATM    5  H   UNL     1      -6.481   1.552 -30.262  1.00  0.00     0.170 HD
HETATM    6  H   UNL     1      -4.765   3.185 -32.739  1.00  0.00     0.164 HD
ENDROOT
BRANCH   1   7
HETATM    7  C   UNL     1      -5.400   0.704 -31.763  1.00  0.00     0.066 A 
HETATM    8  C   UNL     1      -4.403  -0.224 -31.437  1.00  0.00     0.038 A 
HETATM    9  C   UNL     1      -4.113  -1.292 -32.294  1.00  0.00    -0.059 A 
HETATM   10  C   UNL     1      -3.063  -2.301 -31.929  1.00  0.00     0.048 C 
HETATM   11  C   UNL     1      -4.869  -1.451 -33.457  1.00  0.00     0.020 A 
HETATM   12  C   UNL     1      -5.901  -0.552 -33.771  1.00  0.00    -0.005 A 
HETATM   13  C   UNL     1      -6.178   0.541 -32.921  1.00  0.00     0.093 A 
HETATM   14  C   UNL     1      -6.687  -0.718 -34.918  1.00  0.00     0.015 A 
HETATM   15  N   UNL     1      -7.175   1.418 -33.191  1.00  0.00    -0.258 NA
HETATM   16  C   UNL     1      -7.914   1.221 -34.307  1.00  0.00     0.117 A 
HETATM   17  C   UNL     1      -7.711   0.181 -35.191  1.00  0.00     0.020 A 
ENDBRANCH   1   7
BRANCH   3  18
HETATM   18  C   UNL     1      -3.692   4.748 -31.745  1.00  0.00     0.164 C 
BRANCH  18  19
HETATM   19  C   UNL     1      -2.375   4.730 -32.586  1.00  0.00     0.261 C 
BRANCH  19  20
HETATM   20  N   UNL     1      -2.546   5.422 -33.938  1.00  0.00    -0.067 N 
HETATM   21  H   UNL     1      -2.477   6.438 -33.727  1.00  0.00     0.280 HD
HETATM   22  C   UNL     1      -1.466   5.173 -34.945  1.00  0.00     0.270 C 
HETATM   23  C   UNL     1      -3.909   5.221 -34.526  1.00  0.00     0.270 C 
ENDBRANCH  19  20
BRANCH  19  24
HETATM   24  C   UNL     1      -1.222   5.278 -31.800  1.00  0.00     0.085 A 
HETATM   25  O   UNL     1      -0.656   4.419 -30.900  1.00  0.00    -0.325 OA
HETATM   26  C   UNL     1       0.363   5.083 -30.298  1.00  0.00     0.142 A 
HETATM   27  C   UNL     1       0.472   6.356 -30.802  1.00  0.00     0.027 A 
HETATM   28  C   UNL     1      -0.549   6.486 -31.776  1.00  0.00     0.037 A 
ENDBRANCH  19  24
ENDBRANCH  18  19
ENDBRANCH   3  18
TORSDOF 5
ENDMDL
MODEL 4
REMARK VINA RESULT:      -7.8      2.064      6.233
REMARK  5 active torsions:
REMARK  status: ('A' for Active; 'I' for Inactive)
REMARK    1  A    between atoms: C_4  and  N_5 
REMARK       I    between atoms: N_5  and  C_6 
REMARK       I    between atoms: C_6  and  N_7 
REMARK    2  A    between atoms: N_7  and  C_8 
REMARK    3  A    between atoms: C_8  and  C_9 
REMARK    4  A    between atoms: C_9  and  N_10 
REMARK    5  A    between atoms: C_9  and  C_14 
ROOT
HETATM    1  N   UNL     1      -3.914   1.919 -31.533  1.00  0.00    -0.307 N 
HETATM    2  C   UNL     1      -3.739   0.581 -31.586  1.00  0.00     0.320 C 
HETATM    3  N   UNL     1      -3.742  -0.012 -32.804  1.00  0.00    -0.340 N 
HETATM    4  O   UNL     1      -3.520  -0.079 -30.571  1.00  0.00    -0.247 OA
HETATM    5  H   UNL     1      -3.649   2.352 -30.647  1.00  0.00     0.170 HD
HETATM    6  H   UNL     1      -3.495   0.590 -33.583  1.00  0.00     0.164 HD
ENDROOT
BRANCH   1   7
HETATM    7  C   UNL     1      -4.513   2.852 -32.420  1.00  0.00     0.066 A 
HETATM    8  C   UNL     1      -5.884   2.884 -32.705  1.00  0.00     0.038 A 
HETATM    9  C   UNL     1      -6.410   3.841 -33.580  1.00  0.00    -0.059 A 
HETATM   10  C   UNL     1      -7.884   3.891 -33.863  1.00  0.00     0.048 C 
HETATM   11  C   UNL     1      -5.556   4.802 -34.125  1.00  0.00     0.020 A 
HETATM   12  C   UNL     1      -4.188   4.806 -33.810  1.00  0.00    -0.005 A 
HETATM   13  C   UNL     1      -3.650   3.826 -32.949  1.00  0.00     0.093 A 
HETATM   14  C   UNL     1      -3.325   5.783 -34.325  1.00  0.00     0.015 A 
HETATM   15  N   UNL     1      -2.337   3.812 -32.616  1.00  0.00    -0.258 NA
HETATM   16  C   UNL     1      -1.537   4.773 -33.132  1.00  0.00     0.117 A 
HETATM   17  C   UNL     1      -1.979   5.768 -33.981  1.00  0.00     0.020 A 
ENDBRANCH   1   7
BRANCH   3  18
HETATM   18  C   UNL     1      -3.873  -1.446 -33.039  1.00  0.00     0.164 C 
BRANCH  18  19
HETATM   19  C   UNL     1      -4.839  -1.899 -34.180  1.00  0.00     0.261 C 
BRANCH  19  20
HETATM   20  N   UNL     1      -5.112  -3.402 -34.142  1.00  0.00    -0.067 N 
HETATM   21  H   UNL     1      -5.672  -3.548 -33.277  1.00  0.00     0.280 HD
HETATM   22  C   UNL     1      -5.971  -3.942 -35.242  1.00  0.00     0.270 C 
HETATM   23  C   UNL     1      -3.867  -4.215 -33.960  1.00  0.00     0.270 C 
ENDBRANCH  19  20
BRANCH  19  24
HETATM   24  C   UNL     1      -6.098  -1.084 -34.180  1.00  0.00     0.085 A 
HETATM   25  O   UNL     1      -6.723  -0.957 -32.972  1.00  0.00    -0.325 OA
HETATM   26  C   UNL     1      -7.824  -0.189 -33.169  1.00  0.00     0.142 A 
HETATM   27  C   UNL     1      -7.915   0.193 -34.485  1.00  0.00     0.027 A 
HETATM   28  C   UNL     1      -6.799  -0.380 -35.143  1.00  0.00     0.037 A 
ENDBRANCH  19  24
ENDBRANCH  18  19
ENDBRANCH   3  18
TORSDOF 5
ENDMDL
MODEL 5
REMARK VINA RESULT:      -7.7      1.937      2.772
REMARK  5 active torsions:
REMARK  status: ('A' for Active; 'I' for Inactive)
REMARK    1  A    between atoms: C_4  and  N_5 
REMARK       I    between atoms: N_5  and  C_6 
REMARK       I    between atoms: C_6  and  N_7 
REMARK    2  A    between atoms: N_7  and  C_8 
REMARK    3  A    between atoms: C_8  and  C_9 
REMARK    4  A    between atoms: C_9  and  N_10 
REMARK    5  A    between atoms: C_9  and  C_14 
ROOT
HETATM    1  N   UNL     1      -4.325  -0.367 -31.291  1.00  0.00    -0.307 N 
HETATM    2  C   UNL     1      -3.433   0.638 -31.160  1.00  0.00     0.320 C 
HETATM    3  N   UNL     1      -3.873   1.906 -31.346  1.00  0.00    -0.340 N 
HETATM    4  O   UNL     1      -2.270   0.425 -30.821  1.00  0.00    -0.247 OA
HETATM    5  H   UNL     1      -4.027  -1.260 -30.896  1.00  0.00     0.170 HD
HETATM    6  H   UNL     1      -4.866   2.050 -31.192  1.00  0.00     0.164 HD
ENDROOT
BRANCH   1   7
HETATM    7  C   UNL     1      -5.560  -0.480 -31.982  1.00  0.00     0.066 A 
HETATM    8  C   UNL     1      -6.694   0.285 -31.679  1.00  0.00     0.038 A 
HETATM    9  C   UNL     1      -7.877   0.131 -32.411  1.00  0.00    -0.059 A 
HETATM   10  C   UNL     1      -9.082   0.972 -32.102  1.00  0.00     0.048 C 
HETATM   11  C   UNL     1      -7.895  -0.758 -33.488  1.00  0.00     0.020 A 
HETATM   12  C   UNL     1      -6.751  -1.496 -33.828  1.00  0.00    -0.005 A 
HETATM   13  C   UNL     1      -5.565  -1.362 -33.075  1.00  0.00     0.093 A 
HETATM   14  C   UNL     1      -6.746  -2.368 -34.925  1.00  0.00     0.015 A 
HETATM   15  N   UNL     1      -4.441  -2.052 -33.387  1.00  0.00    -0.258 NA
HETATM   16  C   UNL     1      -4.477  -2.882 -34.454  1.00  0.00     0.117 A 
HETATM   17  C   UNL     1      -5.592  -3.072 -35.244  1.00  0.00     0.020 A 
ENDBRANCH   1   7
BRANCH   3  18
HETATM   18  C   UNL     1      -3.017   3.071 -31.544  1.00  0.00     0.164 C 
BRANCH  18  19
HETATM   19  C   UNL     1      -3.721   4.431 -31.857  1.00  0.00     0.261 C 
BRANCH  19  20
HETATM   20  N   UNL     1      -2.860   5.336 -32.736  1.00  0.00    -0.067 N 
HETATM   21  H   UNL     1      -3.106   5.070 -33.712  1.00  0.00     0.280 HD
HETATM   22  C   UNL     1      -3.157   6.801 -32.660  1.00  0.00     0.270 C 
HETATM   23  C   UNL     1      -1.394   5.059 -32.598  1.00  0.00     0.270 C 
ENDBRANCH  19  20
BRANCH  19  24
HETATM   24  C   UNL     1      -5.093   4.214 -32.421  1.00  0.00     0.085 A 
HETATM   25  O   UNL     1      -5.157   3.444 -33.548  1.00  0.00    -0.325 OA
HETATM   26  C   UNL     1      -6.464   3.356 -33.900  1.00  0.00     0.142 A 
HETATM   27  C   UNL     1      -7.250   4.048 -33.010  1.00  0.00     0.027 A 
HETATM   28  C   UNL     1      -6.368   4.602 -32.050  1.00  0.00     0.037 A 
ENDBRANCH  19  24
ENDBRANCH  18  19
ENDBRANCH   3  18
TORSDOF 5
ENDMDL
MODEL 6
REMARK VINA RESULT:      -7.6      2.493      4.322
REMARK  5 active torsions:
REMARK  status: ('A' for Active; 'I' for Inactive)
REMARK    1  A    between atoms: C_4  and  N_5 
REMARK       I    between atoms: N_5  and  C_6 
REMARK       I    between atoms: C_6  and  N_7 
REMARK    2  A    between atoms: N_7  and  C_8 
REMARK    3  A    between atoms: C_8  and  C_9 
REMARK    4  A    between atoms: C_9  and  N_10 
REMARK    5  A    between atoms: C_9  and  C_14 
ROOT
HETATM    1  N   UNL     1      -4.630  -0.007 -31.262  1.00  0.00    -0.307 N 
HETATM    2  C   UNL     1      -3.656   0.922 -31.370  1.00  0.00     0.320 C 
HETATM    3  N   UNL     1      -3.958   2.090 -31.988  1.00  0.00    -0.340 N 
HETATM    4  O   UNL     1      -2.544   0.750 -30.872  1.00  0.00    -0.247 OA
HETATM    5  H   UNL     1      -4.447  -0.743 -30.579  1.00  0.00     0.170 HD
HETATM    6  H   UNL     1      -4.940   2.345 -31.983  1.00  0.00     0.164 HD
ENDROOT
BRANCH   1   7
HETATM    7  C   UNL     1      -5.821  -0.250 -31.996  1.00  0.00     0.066 A 
HETATM    8  C   UNL     1      -7.016   0.452 -31.795  1.00  0.00     0.038 A 
HETATM    9  C   UNL     1      -8.150   0.169 -32.565  1.00  0.00    -0.059 A 
HETATM   10  C   UNL     1      -9.421   0.942 -32.366  1.00  0.00     0.048 C 
HETATM   11  C   UNL     1      -8.058  -0.788 -33.578  1.00  0.00     0.020 A 
HETATM   12  C   UNL     1      -6.852  -1.465 -33.818  1.00  0.00    -0.005 A 
HETATM   13  C   UNL     1      -5.715  -1.200 -33.025  1.00  0.00     0.093 A 
HETATM   14  C   UNL     1      -6.737  -2.405 -34.850  1.00  0.00     0.015 A 
HETATM   15  N   UNL     1      -4.533  -1.829 -33.240  1.00  0.00    -0.258 NA
HETATM   16  C   UNL     1      -4.463  -2.727 -34.249  1.00  0.00     0.117 A 
HETATM   17  C   UNL     1      -5.525  -3.046 -35.071  1.00  0.00     0.020 A 
ENDBRANCH   1   7
BRANCH   3  18
HETATM   18  C   UNL     1      -2.982   3.066 -32.462  1.00  0.00     0.164 C 
BRANCH  18  19
HETATM   19  C   UNL     1      -3.537   4.386 -33.086  1.00  0.00     0.261 C 
BRANCH  19  20
HETATM   20  N   UNL     1      -4.874   4.797 -32.470  1.00  0.00    -0.067 N 
HETATM   21  H   UNL     1      -5.294   3.907 -32.131  1.00  0.00     0.280 HD
HETATM   22  C   UNL     1      -4.796   5.664 -31.252  1.00  0.00     0.270 C 
HETATM   23  C   UNL     1      -5.837   5.343 -33.479  1.00  0.00     0.270 C 
ENDBRANCH  19  20
BRANCH  19  24
HETATM   24  C   UNL     1      -2.515   5.482 -33.032  1.00  0.00     0.085 A 
HETATM   25  O   UNL     1      -2.738   6.543 -33.864  1.00  0.00    -0.325 OA
HETATM   26  C   UNL     1      -1.724   7.424 -33.670  1.00  0.00     0.142 A 
HETATM   27  C   UNL     1      -0.854   6.955 -32.716  1.00  0.00     0.027 A 
HETATM   28  C   UNL     1      -1.363   5.700 -32.298  1.00  0.00     0.037 A 
ENDBRANCH  19  24
ENDBRANCH  18  19
ENDBRANCH   3  18
TORSDOF 5
ENDMDL
MODEL 7
REMARK VINA RESULT:      -7.5      2.362      4.882
REMARK  5 active torsions:
REMARK  status: ('A' for Active; 'I' for Inactive)
REMARK    1  A    between atoms: C_4  and  N_5 
REMARK       I    between atoms: N_5  and  C_6 
REMARK       I    between atoms: C_6  and  N_7 
REMARK    2  A    between atoms: N_7  and  C_8 
REMARK    3  A    between atoms: C_8  and  C_9 
REMARK    4  A    between atoms: C_9  and  N_10 
REMARK    5  A    between atoms: C_9  and  C_14 
ROOT
HETATM    1  N   UNL     1      -4.237  -0.419 -31.574  1.00  0.00    -0.307 N 
HETATM    2  C   UNL     1      -3.468   0.686 -31.464  1.00  0.00     0.320 C 
HETATM    3  N   UNL     1      -3.860   1.801 -32.127  1.00  0.00    -0.340 N 
HETATM    4  O   UNL     1      -2.477   0.709 -30.736  1.00  0.00    -0.247 OA
HETATM    5  H   UNL     1      -4.059  -1.137 -30.871  1.00  0.00     0.170 HD
HETATM    6  H   UNL     1      -4.851   1.859 -32.335  1.00  0.00     0.164 HD
ENDROOT
BRANCH   1   7
HETATM    7  C   UNL     1      -5.171  -0.854 -32.552  1.00  0.00     0.066 A 
HETATM    8  C   UNL     1      -4.894  -1.836 -33.510  1.00  0.00     0.038 A 
HETATM    9  C   UNL     1      -5.867  -2.227 -34.436  1.00  0.00    -0.059 A 
HETATM   10  C   UNL     1      -5.576  -3.300 -35.445  1.00  0.00     0.048 C 
HETATM   11  C   UNL     1      -7.142  -1.661 -34.357  1.00  0.00     0.020 A 
HETATM   12  C   UNL     1      -7.443  -0.708 -33.372  1.00  0.00    -0.005 A 
HETATM   13  C   UNL     1      -6.455  -0.293 -32.453  1.00  0.00     0.093 A 
HETATM   14  C   UNL     1      -8.726  -0.155 -33.262  1.00  0.00     0.015 A 
HETATM   15  N   UNL     1      -6.720   0.615 -31.483  1.00  0.00    -0.258 NA
HETATM   16  C   UNL     1      -7.971   1.123 -31.409  1.00  0.00     0.117 A 
HETATM   17  C   UNL     1      -8.996   0.774 -32.265  1.00  0.00     0.020 A 
ENDBRANCH   1   7
BRANCH   3  18
HETATM   18  C   UNL     1      -3.021   2.969 -32.372  1.00  0.00     0.164 C 
BRANCH  18  19
HETATM   19  C   UNL     1      -3.640   4.128 -33.219  1.00  0.00     0.261 C 
BRANCH  19  20
HETATM   20  N   UNL     1      -5.033   4.520 -32.728  1.00  0.00    -0.067 N 
HETATM   21  H   UNL     1      -5.438   3.639 -32.348  1.00  0.00     0.280 HD
HETATM   22  C   UNL     1      -5.078   5.479 -31.579  1.00  0.00     0.270 C 
HETATM   23  C   UNL     1      -5.945   4.941 -33.838  1.00  0.00     0.270 C 
ENDBRANCH  19  20
BRANCH  19  24
HETATM   24  C   UNL     1      -2.706   5.298 -33.300  1.00  0.00     0.085 A 
HETATM   25  O   UNL     1      -1.746   5.359 -32.330  1.00  0.00    -0.325 OA
HETATM   26  C   UNL     1      -1.002   6.469 -32.571  1.00  0.00     0.142 A 
HETATM   27  C   UNL     1      -1.459   7.120 -33.690  1.00  0.00     0.027 A 
HETATM   28  C   UNL     1      -2.559   6.366 -34.168  1.00  0.00     0.037 A 
ENDBRANCH  19  24
ENDBRANCH  18  19
ENDBRANCH   3  18
TORSDOF 5
ENDMDL
MODEL 8
REMARK VINA RESULT:      -7.5      2.048      3.960
REMARK  5 active torsions:
REMARK  status: ('A' for Active; 'I' for Inactive)
REMARK    1  A    between atoms: C_4  and  N_5 
REMARK       I    between atoms: N_5  and  C_6 
REMARK       I    between atoms: C_6  and  N_7 
REMARK    2  A    between atoms: N_7  and  C_8 
REMARK    3  A    between atoms: C_8  and  C_9 
REMARK    4  A    between atoms: C_9  and  N_10 
REMARK    5  A    between atoms: C_9  and  C_14 
ROOT
HETATM    1  N   UNL     1      -6.282  -0.699 -34.662  1.00  0.00    -0.307 N 
HETATM    2  C   UNL     1      -7.019   0.432 -34.642  1.00  0.00     0.320 C 
HETATM    3  N   UNL     1      -6.486   1.526 -34.047  1.00  0.00    -0.340 N 
HETATM    4  O   UNL     1      -8.114   0.496 -35.200  1.00  0.00    -0.247 OA
HETATM    5  H   UNL     1      -6.596  -1.404 -35.330  1.00  0.00     0.170 HD
HETATM    6  H   UNL     1      -5.473   1.549 -34.002  1.00  0.00     0.164 HD
ENDROOT
BRANCH   1   7
HETATM    7  C   UNL     1      -5.218  -1.175 -33.850  1.00  0.00     0.066 A 
HETATM    8  C   UNL     1      -4.530  -0.380 -32.925  1.00  0.00     0.038 A 
HETATM    9  C   UNL     1      -3.499  -0.918 -32.147  1.00  0.00    -0.059 A 
HETATM   10  C   UNL     1      -2.782  -0.070 -31.137  1.00  0.00     0.048 C 
HETATM   11  C   UNL     1      -3.201  -2.277 -32.266  1.00  0.00     0.020 A 
HETATM   12  C   UNL     1      -3.915  -3.093 -33.157  1.00  0.00    -0.005 A 
HETATM   13  C   UNL     1      -4.937  -2.546 -33.963  1.00  0.00     0.093 A 
HETATM   14  C   UNL     1      -3.647  -4.464 -33.264  1.00  0.00     0.015 A 
HETATM   15  N   UNL     1      -5.652  -3.311 -34.823  1.00  0.00    -0.258 NA
HETATM   16  C   UNL     1      -5.365  -4.631 -34.894  1.00  0.00     0.117 A 
HETATM   17  C   UNL     1      -4.383  -5.247 -34.145  1.00  0.00     0.020 A 
ENDBRANCH   1   7
BRANCH   3  18
HETATM   18  C   UNL     1      -7.233   2.721 -33.664  1.00  0.00     0.164 C 
BRANCH  18  19
HETATM   19  C   UNL     1      -6.852   3.398 -32.309  1.00  0.00     0.261 C 
BRANCH  19  20
HETATM   20  N   UNL     1      -7.586   2.771 -31.125  1.00  0.00    -0.067 N 
HETATM   21  H   UNL     1      -6.923   2.064 -30.746  1.00  0.00     0.280 HD
HETATM   22  C   UNL     1      -7.867   3.680 -29.969  1.00  0.00     0.270 C 
HETATM   23  C   UNL     1      -8.805   2.004 -31.536  1.00  0.00     0.270 C 
ENDBRANCH  19  20
BRANCH  19  24
HETATM   24  C   UNL     1      -5.365   3.427 -32.117  1.00  0.00     0.085 A 
HETATM   25  O   UNL     1      -4.630   3.754 -33.221  1.00  0.00    -0.325 OA
HETATM   26  C   UNL     1      -3.324   3.736 -32.853  1.00  0.00     0.142 A 
HETATM   27  C   UNL     1      -3.203   3.412 -31.524  1.00  0.00     0.027 A 
HETATM   28  C   UNL     1      -4.521   3.215 -31.042  1.00  0.00     0.037 A 
ENDBRANCH  19  24
ENDBRANCH  18  19
ENDBRANCH   3  18
TORSDOF 5
ENDMDL
MODEL 9
REMARK VINA RESULT:      -7.4      2.791      4.203
REMARK  5 active torsions:
REMARK  status: ('A' for Active; 'I' for Inactive)
REMARK    1  A    between atoms: C_4  and  N_5 
REMARK       I    between atoms: N_5  and  C_6 
REMARK       I    between atoms: C_6  and  N_7 
REMARK    2  A    between atoms: N_7  and  C_8 
REMARK    3  A    between atoms: C_8  and  C_9 
REMARK    4  A    between atoms: C_9  and  N_10 
REMARK    5  A    between atoms: C_9  and  C_14 
ROOT
HETATM    1  N   UNL     1      -6.223  -0.429 -34.714  1.00  0.00    -0.307 N 
HETATM    2  C   UNL     1      -7.517  -0.105 -34.503  1.00  0.00     0.320 C 
HETATM    3  N   UNL     1      -7.901   0.189 -33.238  1.00  0.00    -0.340 N 
HETATM    4  O   UNL     1      -8.317  -0.015 -35.434  1.00  0.00    -0.247 OA
HETATM    5  H   UNL     1      -5.923  -0.386 -35.688  1.00  0.00     0.170 HD
HETATM    6  H   UNL     1      -7.163   0.515 -32.623  1.00  0.00     0.164 HD
ENDROOT
BRANCH   1   7
HETATM    7  C   UNL     1      -5.205  -0.943 -33.868  1.00  0.00     0.066 A 
HETATM    8  C   UNL     1      -4.529  -0.177 -32.910  1.00  0.00     0.038 A 
HETATM    9  C   UNL     1      -3.544  -0.753 -32.099  1.00  0.00    -0.059 A 
HETATM   10  C   UNL     1      -2.840   0.064 -31.055  1.00  0.00     0.048 C 
HETATM   11  C   UNL     1      -3.283  -2.119 -32.220  1.00  0.00     0.020 A 
HETATM   12  C   UNL     1      -3.987  -2.906 -33.145  1.00  0.00    -0.005 A 
HETATM   13  C   UNL     1      -4.962  -2.322 -33.982  1.00  0.00     0.093 A 
HETATM   14  C   UNL     1      -3.756  -4.283 -33.255  1.00  0.00     0.015 A 
HETATM   15  N   UNL     1      -5.667  -3.057 -34.876  1.00  0.00    -0.258 NA
HETATM   16  C   UNL     1      -5.416  -4.384 -34.949  1.00  0.00     0.117 A 
HETATM   17  C   UNL     1      -4.482  -5.036 -34.170  1.00  0.00     0.020 A 
ENDBRANCH   1   7
BRANCH   3  18
HETATM   18  C   UNL     1      -9.283   0.259 -32.775  1.00  0.00     0.164 C 
BRANCH  18  19
HETATM   19  C   UNL     1      -9.892   1.681 -32.556  1.00  0.00     0.261 C 
BRANCH  19  20
HETATM   20  N   UNL     1      -8.849   2.786 -32.720  1.00  0.00    -0.067 N 
HETATM   21  H   UNL     1      -7.944   2.282 -32.828  1.00  0.00     0.280 HD
HETATM   22  C   UNL     1      -8.964   3.620 -33.958  1.00  0.00     0.270 C 
HETATM   23  C   UNL     1      -8.699   3.632 -31.494  1.00  0.00     0.270 C 
ENDBRANCH  19  20
BRANCH  19  24
HETATM   24  C   UNL     1     -11.098   1.893 -33.422  1.00  0.00     0.085 A 
HETATM   25  O   UNL     1     -12.024   2.776 -32.944  1.00  0.00    -0.325 OA
HETATM   26  C   UNL     1     -13.026   2.840 -33.857  1.00  0.00     0.142 A 
HETATM   27  C   UNL     1     -12.756   2.020 -34.925  1.00  0.00     0.027 A 
HETATM   28  C   UNL     1     -11.509   1.408 -34.651  1.00  0.00     0.037 A 
ENDBRANCH  19  24
ENDBRANCH  18  19
ENDBRANCH   3  18
TORSDOF 5
ENDMDL
MODEL 10
REMARK VINA RESULT:      -7.4      1.587      2.720
REMARK  5 active torsions:
REMARK  status: ('A' for Active; 'I' for Inactive)
REMARK    1  A    between atoms: C_4  and  N_5 
REMARK       I    between atoms: N_5  and  C_6 
REMARK       I    between atoms: C_6  and  N_7 
REMARK    2  A    between atoms: N_7  and  C_8 
REMARK    3  A    between atoms: C_8  and  C_9 
REMARK    4  A    between atoms: C_9  and  N_10 
REMARK    5  A    between atoms: C_9  and  C_14 
ROOT
HETATM    1  N   UNL     1      -3.743  -0.449 -32.239  1.00  0.00    -0.307 N 
HETATM    2  C   UNL     1      -3.694   0.682 -31.503  1.00  0.00     0.320 C 
HETATM    3  N   UNL     1      -4.865   1.288 -31.193  1.00  0.00    -0.340 N 
HETATM    4  O   UNL     1      -2.630   1.121 -31.068  1.00  0.00    -0.247 OA
HETATM    5  H   UNL     1      -2.887  -1.005 -32.229  1.00  0.00     0.170 HD
HETATM    6  H   UNL     1      -5.682   0.686 -31.193  1.00  0.00     0.164 HD
ENDROOT
BRANCH   1   7
HETATM    7  C   UNL     1      -4.706  -0.976 -33.140  1.00  0.00     0.066 A 
HETATM    8  C   UNL     1      -5.690  -0.202 -33.767  1.00  0.00     0.038 A 
HETATM    9  C   UNL     1      -6.600  -0.785 -34.656  1.00  0.00    -0.059 A 
HETATM   10  C   UNL     1      -7.636   0.052 -35.348  1.00  0.00     0.048 C 
HETATM   11  C   UNL     1      -6.480  -2.145 -34.952  1.00  0.00     0.020 A 
HETATM   12  C   UNL     1      -5.469  -2.920 -34.363  1.00  0.00    -0.005 A 
HETATM   13  C   UNL     1      -4.566  -2.340 -33.446  1.00  0.00     0.093 A 
HETATM   14  C   UNL     1      -5.318  -4.278 -34.675  1.00  0.00     0.015 A 
HETATM   15  N   UNL     1      -3.572  -3.060 -32.872  1.00  0.00    -0.258 NA
HETATM   16  C   UNL     1      -3.458  -4.367 -33.201  1.00  0.00     0.117 A 
HETATM   17  C   UNL     1      -4.297  -5.014 -34.086  1.00  0.00     0.020 A 
ENDBRANCH   1   7
BRANCH   3  18
HETATM   18  C   UNL     1      -4.996   2.649 -30.682  1.00  0.00     0.164 C 
BRANCH  18  19
HETATM   19  C   UNL     1      -5.876   3.642 -31.508  1.00  0.00     0.261 C 
BRANCH  19  20
HETATM   20  N   UNL     1      -6.715   4.550 -30.610  1.00  0.00    -0.067 N 
HETATM   21  H   UNL     1      -6.021   5.135 -30.101  1.00  0.00     0.280 HD
HETATM   22  C   UNL     1      -7.595   5.536 -31.314  1.00  0.00     0.270 C 
HETATM   23  C   UNL     1      -7.462   3.796 -29.554  1.00  0.00     0.270 C 
ENDBRANCH  19  20
BRANCH  19  24
HETATM   24  C   UNL     1      -5.046   4.410 -32.492  1.00  0.00     0.085 A 
HETATM   25  O   UNL     1      -5.364   4.225 -33.808  1.00  0.00    -0.325 OA
HETATM   26  C   UNL     1      -4.521   4.999 -34.537  1.00  0.00     0.142 A 
HETATM   27  C   UNL     1      -3.668   5.690 -33.712  1.00  0.00     0.027 A 
HETATM   28  C   UNL     1      -4.006   5.316 -32.388  1.00  0.00     0.037 A 
ENDBRANCH  19  24
ENDBRANCH  18  19
ENDBRANCH   3  18
TORSDOF 5
ENDMDL
