MODEL 1
REMARK VINA RESULT:      -8.9      0.000      0.000
REMARK  7 active torsions:
REMARK  status: ('A' for Active; 'I' for Inactive)
REMARK    1  A    between atoms: C_7  and  C_8 
REMARK    2  A    between atoms: C_8  and  C_9 
REMARK    3  A    between atoms: C_9  and  C_10 
REMARK    4  A    between atoms: C_10  and  O_11 
REMARK    5  A    between atoms: C_13  and  C_14 
REMARK    6  A    between atoms: C_21  and  C_22 
REMARK       I    between atoms: C_22  and  N_23 
REMARK    7  A    between atoms: N_23  and  C_24 
ROOT
HETATM    1  C   UNL     1      -8.250   4.337 -30.070  1.00  0.00     0.070 C 
HETATM    2  C   UNL     1      -7.494   4.028 -31.338  1.00  0.00     0.037 C 
HETATM    3  N   UNL     1      -6.285   4.698 -31.490  1.00  0.00    -0.192 N 
HETATM    4  C   UNL     1      -5.594   4.720 -32.646  1.00  0.00     0.726 A 
HETATM    5  N   UNL     1      -6.012   3.945 -33.693  1.00  0.00    -0.083 N 
HETATM    6  N   UNL     1      -5.245   4.143 -34.787  1.00  0.00    -0.140 NA
HETATM    7  C   UNL     1      -4.356   5.028 -34.313  1.00  0.00     0.166 A 
HETATM    8  N   UNL     1      -4.541   5.407 -33.003  1.00  0.00    -0.046 NA
HETATM    9  C   UNL     1      -7.181   3.060 -33.646  1.00  0.00     0.202 C 
HETATM   10  C   UNL     1      -7.942   3.220 -32.332  1.00  0.00     0.062 C 
HETATM   11  H   UNL     1      -6.013   5.357 -30.763  1.00  0.00     0.184 HD
ENDROOT
BRANCH  10  12
HETATM   12  C   UNL     1      -9.248   2.509 -32.308  1.00  0.00     0.256 C 
HETATM   13  N   UNL     1     -10.169   3.020 -33.197  1.00  0.00    -0.323 N 
HETATM   14  H   UNL     1      -9.880   3.815 -33.751  1.00  0.00     0.169 HD
HETATM   15  O   UNL     1      -9.406   1.597 -31.508  1.00  0.00    -0.267 OA
BRANCH  13  16
HETATM   16  C   UNL     1     -11.471   2.538 -33.446  1.00  0.00     0.035 A 
HETATM   17  C   UNL     1     -12.624   3.059 -32.853  1.00  0.00     0.031 A 
HETATM   18  C   UNL     1     -13.881   2.514 -33.140  1.00  0.00     0.026 A 
HETATM   19  C   UNL     1     -13.988   1.440 -34.019  1.00  0.00     0.034 A 
HETATM   20 CL   UNL     1     -15.530   0.762 -34.361  1.00  0.00    -0.084 Cl
HETATM   21  C   UNL     1     -12.849   0.911 -34.619  1.00  0.00     0.026 A 
HETATM   22  C   UNL     1     -11.596   1.464 -34.338  1.00  0.00     0.031 A 
ENDBRANCH  13  16
ENDBRANCH  10  12
BRANCH   9  23
HETATM   23  C   UNL     1      -6.761   1.613 -33.901  1.00  0.00    -0.028 A 
HETATM   24  C   UNL     1      -5.790   0.970 -33.111  1.00  0.00     0.012 A 
HETATM   25  C   UNL     1      -5.427  -0.352 -33.371  1.00  0.00     0.043 A 
HETATM   26  C   UNL     1      -6.036  -1.040 -34.414  1.00  0.00     0.116 A 
HETATM   27  F   UNL     1      -5.684  -2.307 -34.663  1.00  0.00    -0.206 F 
HETATM   28  C   UNL     1      -7.005  -0.432 -35.201  1.00  0.00     0.043 A 
HETATM   29  C   UNL     1      -7.371   0.890 -34.945  1.00  0.00     0.012 A 
ENDBRANCH   9  23
BRANCH   7  30
HETATM   30  C   UNL     1      -3.239   5.555 -35.138  1.00  0.00     0.085 C 
BRANCH  30  31
HETATM   31  C   UNL     1      -1.860   5.195 -34.587  1.00  0.00     0.034 C 
BRANCH  31  32
HETATM   32  C   UNL     1      -1.130   6.390 -33.988  1.00  0.00     0.164 C 
BRANCH  32  33
HETATM   33  O   UNL     1      -1.782   7.594 -34.376  1.00  0.00    -0.401 OA
HETATM   34  H   UNL     1      -2.737   7.410 -34.416  1.00  0.00     0.209 HD
ENDBRANCH  32  33
ENDBRANCH  31  32
ENDBRANCH  30  31
ENDBRANCH   7  30
TORSDOF 7
ENDMDL
MODEL 2
REMARK VINA RESULT:      -8.8      3.547      8.056
REMARK  7 active torsions:
REMARK  status: ('A' for Active; 'I' for Inactive)
REMARK    1  A    between atoms: C_7  and  C_8 
REMARK    2  A    between atoms: C_8  and  C_9 
REMARK    3  A    between atoms: C_9  and  C_10 
REMARK    4  A    between atoms: C_10  and  O_11 
REMARK    5  A    between atoms: C_13  and  C_14 
REMARK    6  A    between atoms: C_21  and  C_22 
REMARK       I    between atoms: C_22  and  N_23 
REMARK    7  A    between atoms: N_23  and  C_24 
ROOT
HETATM    1  C   UNL     1      -9.052   5.631 -34.402  1.00  0.00     0.070 C 
HETATM    2  C   UNL     1      -9.402   4.191 -34.120  1.00  0.00     0.037 C 
HETATM    3  N   UNL     1     -10.620   3.761 -34.633  1.00  0.00    -0.192 N 
HETATM    4  C   UNL     1     -11.193   2.591 -34.291  1.00  0.00     0.726 A 
HETATM    5  N   UNL     1     -10.501   1.708 -33.509  1.00  0.00    -0.083 N 
HETATM    6  N   UNL     1     -11.251   0.625 -33.211  1.00  0.00    -0.140 NA
HETATM    7  C   UNL     1     -12.377   0.907 -33.882  1.00  0.00     0.166 A 
HETATM    8  N   UNL     1     -12.378   2.107 -34.555  1.00  0.00    -0.046 NA
HETATM    9  C   UNL     1      -9.141   1.941 -33.010  1.00  0.00     0.202 C 
HETATM   10  C   UNL     1      -8.657   3.346 -33.363  1.00  0.00     0.062 C 
HETATM   11  H   UNL     1     -11.192   4.442 -35.130  1.00  0.00     0.184 HD
ENDROOT
BRANCH  10  12
HETATM   12  C   UNL     1      -7.374   3.717 -32.708  1.00  0.00     0.256 C 
HETATM   13  N   UNL     1      -6.284   3.632 -33.547  1.00  0.00    -0.323 N 
HETATM   14  H   UNL     1      -6.456   3.318 -34.493  1.00  0.00     0.169 HD
HETATM   15  O   UNL     1      -7.385   4.015 -31.521  1.00  0.00    -0.267 OA
BRANCH  13  16
HETATM   16  C   UNL     1      -4.947   3.961 -33.243  1.00  0.00     0.035 A 
HETATM   17  C   UNL     1      -4.117   3.187 -32.429  1.00  0.00     0.031 A 
HETATM   18  C   UNL     1      -2.804   3.592 -32.160  1.00  0.00     0.026 A 
HETATM   19  C   UNL     1      -2.319   4.778 -32.702  1.00  0.00     0.034 A 
HETATM   20 CL   UNL     1      -0.710   5.282 -32.362  1.00  0.00    -0.084 Cl
HETATM   21  C   UNL     1      -3.132   5.560 -33.517  1.00  0.00     0.026 A 
HETATM   22  C   UNL     1      -4.441   5.148 -33.791  1.00  0.00     0.031 A 
ENDBRANCH  13  16
ENDBRANCH  10  12
BRANCH   9  23
HETATM   23  C   UNL     1      -8.195   0.855 -33.522  1.00  0.00    -0.028 A 
HETATM   24  C   UNL     1      -7.488   0.012 -32.645  1.00  0.00     0.012 A 
HETATM   25  C   UNL     1      -6.630  -0.969 -33.145  1.00  0.00     0.043 A 
HETATM   26  C   UNL     1      -6.480  -1.117 -34.518  1.00  0.00     0.116 A 
HETATM   27  F   UNL     1      -5.653  -2.057 -34.994  1.00  0.00    -0.206 F 
HETATM   28  C   UNL     1      -7.174  -0.304 -35.404  1.00  0.00     0.043 A 
HETATM   29  C   UNL     1      -8.034   0.678 -34.909  1.00  0.00     0.012 A 
ENDBRANCH   9  23
BRANCH   7  30
HETATM   30  C   UNL     1     -13.540  -0.017 -33.911  1.00  0.00     0.085 C 
BRANCH  30  31
HETATM   31  C   UNL     1     -14.851   0.676 -34.274  1.00  0.00     0.034 C 
BRANCH  31  32
HETATM   32  C   UNL     1     -15.421   1.506 -33.130  1.00  0.00     0.164 C 
BRANCH  32  33
HETATM   33  O   UNL     1     -16.752   1.902 -33.444  1.00  0.00    -0.401 OA
HETATM   34  H   UNL     1     -17.354   1.353 -32.912  1.00  0.00     0.209 HD
ENDBRANCH  32  33
ENDBRANCH  31  32
ENDBRANCH  30  31
ENDBRANCH   7  30
TORSDOF 7
ENDMDL
MODEL 3
REMARK VINA RESULT:      -8.4      4.545      6.339
REMARK  7 active torsions:
REMARK  status: ('A' for Active; 'I' for Inactive)
REMARK    1  A    between atoms: C_7  and  C_8 
REMARK    2  A    between atoms: C_8  and  C_9 
REMARK    3  A    between atoms: C_9  and  C_10 
REMARK    4  A    between atoms: C_10  and  O_11 
REMARK    5  A    between atoms: C_13  and  C_14 
REMARK    6  A    between atoms: C_21  and  C_22 
REMARK       I    between atoms: C_22  and  N_23 
REMARK    7  A    between atoms: N_23  and  C_24 
ROOT
HETATM    1  C   UNL     1      -5.845   0.966 -29.673  1.00  0.00     0.070 C 
HETATM    2  C   UNL     1      -5.669   2.363 -30.217  1.00  0.00     0.037 C 
HETATM    3  N   UNL     1      -5.487   3.357 -29.261  1.00  0.00    -0.192 N 
HETATM    4  C   UNL     1      -5.540   4.672 -29.546  1.00  0.00     0.726 A 
HETATM    5  N   UNL     1      -5.645   5.074 -30.849  1.00  0.00    -0.083 N 
HETATM    6  N   UNL     1      -5.753   6.417 -30.941  1.00  0.00    -0.140 NA
HETATM    7  C   UNL     1      -5.670   6.764 -29.649  1.00  0.00     0.166 A 
HETATM    8  N   UNL     1      -5.541   5.719 -28.764  1.00  0.00    -0.046 NA
HETATM    9  C   UNL     1      -5.692   4.155 -31.992  1.00  0.00     0.202 C 
HETATM   10  C   UNL     1      -5.747   2.701 -31.529  1.00  0.00     0.062 C 
HETATM   11  H   UNL     1      -5.511   3.082 -28.282  1.00  0.00     0.184 HD
ENDROOT
BRANCH  10  12
HETATM   12  C   UNL     1      -6.008   1.733 -32.629  1.00  0.00     0.256 C 
HETATM   13  N   UNL     1      -5.570   0.456 -32.352  1.00  0.00    -0.323 N 
HETATM   14  H   UNL     1      -5.112   0.310 -31.462  1.00  0.00     0.169 HD
HETATM   15  O   UNL     1      -6.528   2.140 -33.658  1.00  0.00    -0.267 OA
BRANCH  13  16
HETATM   16  C   UNL     1      -5.711  -0.688 -33.165  1.00  0.00     0.035 A 
HETATM   17  C   UNL     1      -6.937  -1.168 -33.632  1.00  0.00     0.031 A 
HETATM   18  C   UNL     1      -6.996  -2.322 -34.422  1.00  0.00     0.026 A 
HETATM   19  C   UNL     1      -5.826  -3.004 -34.742  1.00  0.00     0.034 A 
HETATM   20 CL   UNL     1      -5.899  -4.429 -35.702  1.00  0.00    -0.084 Cl
HETATM   21  C   UNL     1      -4.597  -2.538 -34.286  1.00  0.00     0.026 A 
HETATM   22  C   UNL     1      -4.540  -1.379 -33.505  1.00  0.00     0.031 A 
ENDBRANCH  13  16
ENDBRANCH  10  12
BRANCH   9  23
HETATM   23  C   UNL     1      -4.518   4.419 -32.935  1.00  0.00    -0.028 A 
HETATM   24  C   UNL     1      -4.699   5.012 -34.199  1.00  0.00     0.012 A 
HETATM   25  C   UNL     1      -3.607   5.239 -35.036  1.00  0.00     0.043 A 
HETATM   26  C   UNL     1      -2.331   4.882 -34.616  1.00  0.00     0.116 A 
HETATM   27  F   UNL     1      -1.285   5.098 -35.423  1.00  0.00    -0.206 F 
HETATM   28  C   UNL     1      -2.125   4.306 -33.369  1.00  0.00     0.043 A 
HETATM   29  C   UNL     1      -3.215   4.078 -32.528  1.00  0.00     0.012 A 
ENDBRANCH   9  23
BRANCH   7  30
HETATM   30  C   UNL     1      -5.700   8.181 -29.202  1.00  0.00     0.085 C 
BRANCH  30  31
HETATM   31  C   UNL     1      -6.126   8.343 -27.744  1.00  0.00     0.034 C 
BRANCH  31  32
HETATM   32  C   UNL     1      -4.949   8.354 -26.778  1.00  0.00     0.164 C 
BRANCH  32  33
HETATM   33  O   UNL     1      -4.937   7.146 -26.025  1.00  0.00    -0.401 OA
HETATM   34  H   UNL     1      -5.835   6.775 -26.053  1.00  0.00     0.209 HD
ENDBRANCH  32  33
ENDBRANCH  31  32
ENDBRANCH  30  31
ENDBRANCH   7  30
TORSDOF 7
ENDMDL
MODEL 4
REMARK VINA RESULT:      -8.4      1.878      2.360
REMARK  7 active torsions:
REMARK  status: ('A' for Active; 'I' for Inactive)
REMARK    1  A    between atoms: C_7  and  C_8 
REMARK    2  A    between atoms: C_8  and  C_9 
REMARK    3  A    between atoms: C_9  and  C_10 
REMARK    4  A    between atoms: C_10  and  O_11 
REMARK    5  A    between atoms: C_13  and  C_14 
REMARK    6  A    between atoms: C_21  and  C_22 
REMARK       I    between atoms: C_22  and  N_23 
REMARK    7  A    between atoms: N_23  and  C_24 
ROOT
HETATM    1  C   UNL     1      -7.303   3.571 -29.285  1.00  0.00     0.070 C 
HETATM    2  C   UNL     1      -6.236   3.251 -30.302  1.00  0.00     0.037 C 
HETATM    3  N   UNL     1      -5.052   3.970 -30.171  1.00  0.00    -0.192 N 
HETATM    4  C   UNL     1      -4.089   3.981 -31.112  1.00  0.00     0.726 A 
HETATM    5  N   UNL     1      -4.196   3.151 -32.194  1.00  0.00    -0.083 N 
HETATM    6  N   UNL     1      -3.180   3.344 -33.063  1.00  0.00    -0.140 NA
HETATM    7  C   UNL     1      -2.475   4.284 -32.419  1.00  0.00     0.166 A 
HETATM    8  N   UNL     1      -3.004   4.702 -31.219  1.00  0.00    -0.046 NA
HETATM    9  C   UNL     1      -5.307   2.216 -32.406  1.00  0.00     0.202 C 
HETATM   10  C   UNL     1      -6.385   2.389 -31.339  1.00  0.00     0.062 C 
HETATM   11  H   UNL     1      -5.000   4.666 -29.430  1.00  0.00     0.184 HD
ENDROOT
BRANCH  10  12
HETATM   12  C   UNL     1      -7.628   1.620 -31.616  1.00  0.00     0.256 C 
HETATM   13  N   UNL     1      -8.570   2.335 -32.324  1.00  0.00    -0.323 N 
HETATM   14  H   UNL     1      -8.337   3.290 -32.563  1.00  0.00     0.169 HD
HETATM   15  O   UNL     1      -7.726   0.482 -31.177  1.00  0.00    -0.267 OA
BRANCH  13  16
HETATM   16  C   UNL     1      -9.823   1.876 -32.780  1.00  0.00     0.035 A 
HETATM   17  C   UNL     1     -10.129   0.531 -33.000  1.00  0.00     0.031 A 
HETATM   18  C   UNL     1     -11.393   0.156 -33.471  1.00  0.00     0.026 A 
HETATM   19  C   UNL     1     -12.354   1.128 -33.730  1.00  0.00     0.034 A 
HETATM   20 CL   UNL     1     -13.902   0.669 -34.321  1.00  0.00    -0.084 Cl
HETATM   21  C   UNL     1     -12.065   2.473 -33.515  1.00  0.00     0.026 A 
HETATM   22  C   UNL     1     -10.805   2.843 -33.035  1.00  0.00     0.031 A 
ENDBRANCH  13  16
ENDBRANCH  10  12
BRANCH   9  23
HETATM   23  C   UNL     1      -4.786   0.781 -32.477  1.00  0.00    -0.028 A 
HETATM   24  C   UNL     1      -3.926   0.252 -31.496  1.00  0.00     0.012 A 
HETATM   25  C   UNL     1      -3.467  -1.062 -31.591  1.00  0.00     0.043 A 
HETATM   26  C   UNL     1      -3.867  -1.855 -32.660  1.00  0.00     0.116 A 
HETATM   27  F   UNL     1      -3.421  -3.114 -32.750  1.00  0.00    -0.206 F 
HETATM   28  C   UNL     1      -4.722  -1.360 -33.636  1.00  0.00     0.043 A 
HETATM   29  C   UNL     1      -5.185  -0.047 -33.544  1.00  0.00     0.012 A 
ENDBRANCH   9  23
BRANCH   7  30
HETATM   30  C   UNL     1      -1.201   4.831 -32.955  1.00  0.00     0.085 C 
BRANCH  30  31
HETATM   31  C   UNL     1      -1.366   5.534 -34.301  1.00  0.00     0.034 C 
BRANCH  31  32
HETATM   32  C   UNL     1      -2.251   6.771 -34.221  1.00  0.00     0.164 C 
BRANCH  32  33
HETATM   33  O   UNL     1      -1.490   7.873 -33.739  1.00  0.00    -0.401 OA
HETATM   34  H   UNL     1      -2.109   8.497 -33.322  1.00  0.00     0.209 HD
ENDBRANCH  32  33
ENDBRANCH  31  32
ENDBRANCH  30  31
ENDBRANCH   7  30
TORSDOF 7
ENDMDL
MODEL 5
REMARK VINA RESULT:      -7.8      3.952      6.161
REMARK  7 active torsions:
REMARK  status: ('A' for Active; 'I' for Inactive)
REMARK    1  A    between atoms: C_7  and  C_8 
REMARK    2  A    between atoms: C_8  and  C_9 
REMARK    3  A    between atoms: C_9  and  C_10 
REMARK    4  A    between atoms: C_10  and  O_11 
REMARK    5  A    between atoms: C_13  and  C_14 
REMARK    6  A    between atoms: C_21  and  C_22 
REMARK       I    between atoms: C_22  and  N_23 
REMARK    7  A    between atoms: N_23  and  C_24 
ROOT
HETATM    1  C   UNL     1      -3.227   1.967 -31.198  1.00  0.00     0.070 C 
HETATM    2  C   UNL     1      -4.553   2.622 -30.899  1.00  0.00     0.037 C 
HETATM    3  N   UNL     1      -4.480   3.932 -30.438  1.00  0.00    -0.192 N 
HETATM    4  C   UNL     1      -5.533   4.587 -29.912  1.00  0.00     0.726 A 
HETATM    5  N   UNL     1      -6.771   4.006 -29.944  1.00  0.00    -0.083 N 
HETATM    6  N   UNL     1      -7.689   4.772 -29.314  1.00  0.00    -0.140 NA
HETATM    7  C   UNL     1      -6.936   5.823 -28.958  1.00  0.00     0.166 A 
HETATM    8  N   UNL     1      -5.607   5.743 -29.305  1.00  0.00    -0.046 NA
HETATM    9  C   UNL     1      -7.048   2.692 -30.535  1.00  0.00     0.202 C 
HETATM   10  C   UNL     1      -5.759   2.006 -30.983  1.00  0.00     0.062 C 
HETATM   11  H   UNL     1      -3.557   4.340 -30.311  1.00  0.00     0.184 HD
ENDROOT
BRANCH  10  12
HETATM   12  C   UNL     1      -5.949   0.590 -31.396  1.00  0.00     0.256 C 
HETATM   13  N   UNL     1      -5.691   0.368 -32.732  1.00  0.00    -0.323 N 
HETATM   14  H   UNL     1      -5.422   1.169 -33.287  1.00  0.00     0.169 HD
HETATM   15  O   UNL     1      -6.342  -0.217 -30.565  1.00  0.00    -0.267 OA
BRANCH  13  16
HETATM   16  C   UNL     1      -5.733  -0.866 -33.414  1.00  0.00     0.035 A 
HETATM   17  C   UNL     1      -4.603  -1.624 -33.729  1.00  0.00     0.031 A 
HETATM   18  C   UNL     1      -4.727  -2.832 -34.424  1.00  0.00     0.026 A 
HETATM   19  C   UNL     1      -5.985  -3.283 -34.814  1.00  0.00     0.034 A 
HETATM   20 CL   UNL     1      -6.136  -4.762 -35.679  1.00  0.00    -0.084 Cl
HETATM   21  C   UNL     1      -7.121  -2.541 -34.506  1.00  0.00     0.026 A 
HETATM   22  C   UNL     1      -6.994  -1.339 -33.802  1.00  0.00     0.031 A 
ENDBRANCH  13  16
ENDBRANCH  10  12
BRANCH   9  23
HETATM   23  C   UNL     1      -8.060   2.825 -31.673  1.00  0.00    -0.028 A 
HETATM   24  C   UNL     1      -9.303   2.164 -31.643  1.00  0.00     0.012 A 
HETATM   25  C   UNL     1     -10.204   2.305 -32.699  1.00  0.00     0.043 A 
HETATM   26  C   UNL     1      -9.873   3.109 -33.783  1.00  0.00     0.116 A 
HETATM   27  F   UNL     1     -10.739   3.239 -34.796  1.00  0.00    -0.206 F 
HETATM   28  C   UNL     1      -8.658   3.779 -33.832  1.00  0.00     0.043 A 
HETATM   29  C   UNL     1      -7.754   3.642 -32.778  1.00  0.00     0.012 A 
ENDBRANCH   9  23
BRANCH   7  30
HETATM   30  C   UNL     1      -7.499   7.000 -28.247  1.00  0.00     0.085 C 
BRANCH  30  31
HETATM   31  C   UNL     1      -6.437   8.014 -27.827  1.00  0.00     0.034 C 
BRANCH  31  32
HETATM   32  C   UNL     1      -6.345   9.205 -28.772  1.00  0.00     0.164 C 
BRANCH  32  33
HETATM   33  O   UNL     1      -5.518   8.872 -29.882  1.00  0.00    -0.401 OA
HETATM   34  H   UNL     1      -5.920   9.266 -30.676  1.00  0.00     0.209 HD
ENDBRANCH  32  33
ENDBRANCH  31  32
ENDBRANCH  30  31
ENDBRANCH   7  30
TORSDOF 7
ENDMDL
MODEL 6
REMARK VINA RESULT:      -7.8      2.022      2.364
REMARK  7 active torsions:
REMARK  status: ('A' for Active; 'I' for Inactive)
REMARK    1  A    between atoms: C_7  and  C_8 
REMARK    2  A    between atoms: C_8  and  C_9 
REMARK    3  A    between atoms: C_9  and  C_10 
REMARK    4  A    between atoms: C_10  and  O_11 
REMARK    5  A    between atoms: C_13  and  C_14 
REMARK    6  A    between atoms: C_21  and  C_22 
REMARK       I    between atoms: C_22  and  N_23 
REMARK    7  A    between atoms: N_23  and  C_24 
ROOT
HETATM    1  C   UNL     1      -8.663   7.109 -32.192  1.00  0.00     0.070 C 
HETATM    2  C   UNL     1      -7.517   6.238 -32.643  1.00  0.00     0.037 C 
HETATM    3  N   UNL     1      -6.251   6.680 -32.276  1.00  0.00    -0.192 N 
HETATM    4  C   UNL     1      -5.115   6.160 -32.777  1.00  0.00     0.726 A 
HETATM    5  N   UNL     1      -5.179   5.057 -33.584  1.00  0.00    -0.083 N 
HETATM    6  N   UNL     1      -3.956   4.716 -34.047  1.00  0.00    -0.140 NA
HETATM    7  C   UNL     1      -3.194   5.640 -33.445  1.00  0.00     0.166 A 
HETATM    8  N   UNL     1      -3.871   6.545 -32.660  1.00  0.00    -0.046 NA
HETATM    9  C   UNL     1      -6.426   4.373 -33.944  1.00  0.00     0.202 C 
HETATM   10  C   UNL     1      -7.642   5.129 -33.416  1.00  0.00     0.062 C 
HETATM   11  H   UNL     1      -6.185   7.557 -31.763  1.00  0.00     0.184 HD
ENDROOT
BRANCH  10  12
HETATM   12  C   UNL     1      -8.938   4.605 -33.923  1.00  0.00     0.256 C 
HETATM   13  N   UNL     1      -9.519   3.673 -33.089  1.00  0.00    -0.323 N 
HETATM   14  H   UNL     1      -9.013   3.433 -32.247  1.00  0.00     0.169 HD
HETATM   15  O   UNL     1      -9.344   4.993 -35.010  1.00  0.00    -0.267 OA
BRANCH  13  16
HETATM   16  C   UNL     1     -10.762   3.031 -33.264  1.00  0.00     0.035 A 
HETATM   17  C   UNL     1     -11.997   3.652 -33.064  1.00  0.00     0.031 A 
HETATM   18  C   UNL     1     -13.190   2.940 -33.242  1.00  0.00     0.026 A 
HETATM   19  C   UNL     1     -13.149   1.600 -33.615  1.00  0.00     0.034 A 
HETATM   20 CL   UNL     1     -14.613   0.722 -33.822  1.00  0.00    -0.084 Cl
HETATM   21  C   UNL     1     -11.926   0.967 -33.820  1.00  0.00     0.026 A 
HETATM   22  C   UNL     1     -10.737   1.684 -33.651  1.00  0.00     0.031 A 
ENDBRANCH  13  16
ENDBRANCH  10  12
BRANCH   9  23
HETATM   23  C   UNL     1      -6.392   2.922 -33.466  1.00  0.00    -0.028 A 
HETATM   24  C   UNL     1      -6.547   1.842 -34.355  1.00  0.00     0.012 A 
HETATM   25  C   UNL     1      -6.513   0.528 -33.886  1.00  0.00     0.043 A 
HETATM   26  C   UNL     1      -6.318   0.286 -32.532  1.00  0.00     0.116 A 
HETATM   27  F   UNL     1      -6.289  -0.976 -32.085  1.00  0.00    -0.206 F 
HETATM   28  C   UNL     1      -6.152   1.333 -31.635  1.00  0.00     0.043 A 
HETATM   29  C   UNL     1      -6.184   2.649 -32.100  1.00  0.00     0.012 A 
ENDBRANCH   9  23
BRANCH   7  30
HETATM   30  C   UNL     1      -1.717   5.680 -33.603  1.00  0.00     0.085 C 
BRANCH  30  31
HETATM   31  C   UNL     1      -0.998   6.279 -32.397  1.00  0.00     0.034 C 
BRANCH  31  32
HETATM   32  C   UNL     1      -0.252   5.238 -31.572  1.00  0.00     0.164 C 
BRANCH  32  33
HETATM   33  O   UNL     1      -1.185   4.446 -30.844  1.00  0.00    -0.401 OA
HETATM   34  H   UNL     1      -1.730   3.968 -31.492  1.00  0.00     0.209 HD
ENDBRANCH  32  33
ENDBRANCH  31  32
ENDBRANCH  30  31
ENDBRANCH   7  30
TORSDOF 7
ENDMDL
MODEL 7
REMARK VINA RESULT:      -7.7      2.575      3.184
REMARK  7 active torsions:
REMARK  status: ('A' for Active; 'I' for Inactive)
REMARK    1  A    between atoms: C_7  and  C_8 
REMARK    2  A    between atoms: C_8  and  C_9 
REMARK    3  A    between atoms: C_9  and  C_10 
REMARK    4  A    between atoms: C_10  and  O_11 
REMARK    5  A    between atoms: C_13  and  C_14 
REMARK    6  A    between atoms: C_21  and  C_22 
REMARK       I    between atoms: C_22  and  N_23 
REMARK    7  A    between atoms: N_23  and  C_24 
ROOT
HETATM    1  C   UNL     1      -7.400   6.489 -30.993  1.00  0.00     0.070 C 
HETATM    2  C   UNL     1      -6.192   5.672 -31.383  1.00  0.00     0.037 C 
HETATM    3  N   UNL     1      -4.991   6.071 -30.807  1.00  0.00    -0.192 N 
HETATM    4  C   UNL     1      -3.792   5.609 -31.210  1.00  0.00     0.726 A 
HETATM    5  N   UNL     1      -3.735   4.603 -32.134  1.00  0.00    -0.083 N 
HETATM    6  N   UNL     1      -2.458   4.315 -32.468  1.00  0.00    -0.140 NA
HETATM    7  C   UNL     1      -1.793   5.167 -31.674  1.00  0.00     0.166 A 
HETATM    8  N   UNL     1      -2.580   5.979 -30.890  1.00  0.00    -0.046 NA
HETATM    9  C   UNL     1      -4.914   3.964 -32.728  1.00  0.00     0.202 C 
HETATM   10  C   UNL     1      -6.200   4.657 -32.283  1.00  0.00     0.062 C 
HETATM   11  H   UNL     1      -5.005   6.885 -30.197  1.00  0.00     0.184 HD
ENDROOT
BRANCH  10  12
HETATM   12  C   UNL     1      -7.411   4.192 -33.011  1.00  0.00     0.256 C 
HETATM   13  N   UNL     1      -8.115   3.215 -32.340  1.00  0.00    -0.323 N 
HETATM   14  H   UNL     1      -7.740   2.907 -31.452  1.00  0.00     0.169 HD
HETATM   15  O   UNL     1      -7.651   4.663 -34.114  1.00  0.00    -0.267 OA
BRANCH  13  16
HETATM   16  C   UNL     1      -9.324   2.609 -32.740  1.00  0.00     0.035 A 
HETATM   17  C   UNL     1     -10.516   3.306 -32.950  1.00  0.00     0.031 A 
HETATM   18  C   UNL     1     -11.680   2.628 -33.330  1.00  0.00     0.026 A 
HETATM   19  C   UNL     1     -11.656   1.246 -33.496  1.00  0.00     0.034 A 
HETATM   20 CL   UNL     1     -13.089   0.412 -33.951  1.00  0.00    -0.084 Cl
HETATM   21  C   UNL     1     -10.476   0.537 -33.293  1.00  0.00     0.026 A 
HETATM   22  C   UNL     1      -9.312   1.219 -32.922  1.00  0.00     0.031 A 
ENDBRANCH  13  16
ENDBRANCH  10  12
BRANCH   9  23
HETATM   23  C   UNL     1      -4.922   2.468 -32.412  1.00  0.00    -0.028 A 
HETATM   24  C   UNL     1      -4.676   1.981 -31.115  1.00  0.00     0.012 A 
HETATM   25  C   UNL     1      -4.688   0.609 -30.860  1.00  0.00     0.043 A 
HETATM   26  C   UNL     1      -4.954  -0.280 -31.894  1.00  0.00     0.116 A 
HETATM   27  F   UNL     1      -4.962  -1.596 -31.646  1.00  0.00    -0.206 F 
HETATM   28  C   UNL     1      -5.211   0.175 -33.180  1.00  0.00     0.043 A 
HETATM   29  C   UNL     1      -5.200   1.546 -33.440  1.00  0.00     0.012 A 
ENDBRANCH   9  23
BRANCH   7  30
HETATM   30  C   UNL     1      -0.309   5.223 -31.632  1.00  0.00     0.085 C 
BRANCH  30  31
HETATM   31  C   UNL     1       0.229   6.113 -30.514  1.00  0.00     0.034 C 
BRANCH  31  32
HETATM   32  C   UNL     1       0.589   5.334 -29.255  1.00  0.00     0.164 C 
BRANCH  32  33
HETATM   33  O   UNL     1       0.872   3.980 -29.595  1.00  0.00    -0.401 OA
HETATM   34  H   UNL     1       1.376   3.987 -30.428  1.00  0.00     0.209 HD
ENDBRANCH  32  33
ENDBRANCH  31  32
ENDBRANCH  30  31
ENDBRANCH   7  30
TORSDOF 7
ENDMDL
MODEL 8
REMARK VINA RESULT:      -7.6      4.311      7.101
REMARK  7 active torsions:
REMARK  status: ('A' for Active; 'I' for Inactive)
REMARK    1  A    between atoms: C_7  and  C_8 
REMARK    2  A    between atoms: C_8  and  C_9 
REMARK    3  A    between atoms: C_9  and  C_10 
REMARK    4  A    between atoms: C_10  and  O_11 
REMARK    5  A    between atoms: C_13  and  C_14 
REMARK    6  A    between atoms: C_21  and  C_22 
REMARK       I    between atoms: C_22  and  N_23 
REMARK    7  A    between atoms: N_23  and  C_24 
ROOT
HETATM    1  C   UNL     1     -10.884  -0.049 -33.086  1.00  0.00     0.070 C 
HETATM    2  C   UNL     1     -10.180   1.272 -33.277  1.00  0.00     0.037 C 
HETATM    3  N   UNL     1     -10.993   2.331 -33.667  1.00  0.00    -0.192 N 
HETATM    4  C   UNL     1     -10.509   3.511 -34.099  1.00  0.00     0.726 A 
HETATM    5  N   UNL     1      -9.164   3.751 -34.033  1.00  0.00    -0.083 N 
HETATM    6  N   UNL     1      -8.854   4.952 -34.568  1.00  0.00    -0.140 NA
HETATM    7  C   UNL     1     -10.072   5.399 -34.905  1.00  0.00     0.166 A 
HETATM    8  N   UNL     1     -11.112   4.540 -34.634  1.00  0.00    -0.046 NA
HETATM    9  C   UNL     1      -8.184   2.798 -33.502  1.00  0.00     0.202 C 
HETATM   10  C   UNL     1      -8.841   1.462 -33.164  1.00  0.00     0.062 C 
HETATM   11  H   UNL     1     -11.980   2.139 -33.820  1.00  0.00     0.184 HD
ENDROOT
BRANCH  10  12
HETATM   12  C   UNL     1      -7.869   0.389 -32.821  1.00  0.00     0.256 C 
HETATM   13  N   UNL     1      -7.342  -0.248 -33.924  1.00  0.00    -0.323 N 
HETATM   14  H   UNL     1      -7.670   0.057 -34.831  1.00  0.00     0.169 HD
HETATM   15  O   UNL     1      -7.659   0.141 -31.641  1.00  0.00    -0.267 OA
BRANCH  13  16
HETATM   16  C   UNL     1      -6.367  -1.267 -33.934  1.00  0.00     0.035 A 
HETATM   17  C   UNL     1      -5.099  -1.142 -33.360  1.00  0.00     0.031 A 
HETATM   18  C   UNL     1      -4.180  -2.195 -33.427  1.00  0.00     0.026 A 
HETATM   19  C   UNL     1      -4.525  -3.378 -34.076  1.00  0.00     0.034 A 
HETATM   20 CL   UNL     1      -3.391  -4.667 -34.169  1.00  0.00    -0.084 Cl
HETATM   21  C   UNL     1      -5.784  -3.519 -34.650  1.00  0.00     0.026 A 
HETATM   22  C   UNL     1      -6.704  -2.468 -34.573  1.00  0.00     0.031 A 
ENDBRANCH  13  16
ENDBRANCH  10  12
BRANCH   9  23
HETATM   23  C   UNL     1      -7.449   3.403 -32.306  1.00  0.00    -0.028 A 
HETATM   24  C   UNL     1      -8.116   3.727 -31.110  1.00  0.00     0.012 A 
HETATM   25  C   UNL     1      -7.416   4.280 -30.037  1.00  0.00     0.043 A 
HETATM   26  C   UNL     1      -6.049   4.505 -30.150  1.00  0.00     0.116 A 
HETATM   27  F   UNL     1      -5.381   5.038 -29.119  1.00  0.00    -0.206 F 
HETATM   28  C   UNL     1      -5.366   4.184 -31.315  1.00  0.00     0.043 A 
HETATM   29  C   UNL     1      -6.062   3.630 -32.391  1.00  0.00     0.012 A 
ENDBRANCH   9  23
BRANCH   7  30
HETATM   30  C   UNL     1     -10.288   6.736 -35.517  1.00  0.00     0.085 C 
BRANCH  30  31
HETATM   31  C   UNL     1     -11.610   7.380 -35.106  1.00  0.00     0.034 C 
BRANCH  31  32
HETATM   32  C   UNL     1     -12.528   7.662 -36.288  1.00  0.00     0.164 C 
BRANCH  32  33
HETATM   33  O   UNL     1     -13.476   6.608 -36.421  1.00  0.00    -0.401 OA
HETATM   34  H   UNL     1     -14.318   6.923 -36.049  1.00  0.00     0.209 HD
ENDBRANCH  32  33
ENDBRANCH  31  32
ENDBRANCH  30  31
ENDBRANCH   7  30
TORSDOF 7
ENDMDL
MODEL 9
REMARK VINA RESULT:      -7.5      3.972      6.547
REMARK  7 active torsions:
REMARK  status: ('A' for Active; 'I' for Inactive)
REMARK    1  A    between atoms: C_7  and  C_8 
REMARK    2  A    between atoms: C_8  and  C_9 
REMARK    3  A    between atoms: C_9  and  C_10 
REMARK    4  A    between atoms: C_10  and  O_11 
REMARK    5  A    between atoms: C_13  and  C_14 
REMARK    6  A    between atoms: C_21  and  C_22 
REMARK       I    between atoms: C_22  and  N_23 
REMARK    7  A    between atoms: N_23  and  C_24 
ROOT
HETATM    1  C   UNL     1      -3.651   3.258 -31.216  1.00  0.00     0.070 C 
HETATM    2  C   UNL     1      -4.317   2.134 -31.970  1.00  0.00     0.037 C 
HETATM    3  N   UNL     1      -3.799   0.866 -31.731  1.00  0.00    -0.192 N 
HETATM    4  C   UNL     1      -4.113  -0.211 -32.475  1.00  0.00     0.726 A 
HETATM    5  N   UNL     1      -5.085  -0.107 -33.432  1.00  0.00    -0.083 N 
HETATM    6  N   UNL     1      -5.219  -1.260 -34.124  1.00  0.00    -0.140 NA
HETATM    7  C   UNL     1      -4.317  -2.032 -33.501  1.00  0.00     0.166 A 
HETATM    8  N   UNL     1      -3.617  -1.421 -32.486  1.00  0.00    -0.046 NA
HETATM    9  C   UNL     1      -5.839   1.121 -33.708  1.00  0.00     0.202 C 
HETATM   10  C   UNL     1      -5.306   2.292 -32.886  1.00  0.00     0.062 C 
HETATM   11  H   UNL     1      -3.006   0.789 -31.097  1.00  0.00     0.184 HD
ENDROOT
BRANCH  10  12
HETATM   12  C   UNL     1      -5.887   3.606 -33.272  1.00  0.00     0.256 C 
HETATM   13  N   UNL     1      -6.723   4.139 -32.315  1.00  0.00    -0.323 N 
HETATM   14  H   UNL     1      -6.869   3.593 -31.476  1.00  0.00     0.169 HD
HETATM   15  O   UNL     1      -5.621   4.066 -34.374  1.00  0.00    -0.267 OA
BRANCH  13  16
HETATM   16  C   UNL     1      -7.385   5.384 -32.359  1.00  0.00     0.035 A 
HETATM   17  C   UNL     1      -8.709   5.551 -32.771  1.00  0.00     0.031 A 
HETATM   18  C   UNL     1      -9.289   6.825 -32.803  1.00  0.00     0.026 A 
HETATM   19  C   UNL     1      -8.543   7.938 -32.428  1.00  0.00     0.034 A 
HETATM   20 CL   UNL     1      -9.252   9.504 -32.479  1.00  0.00    -0.084 Cl
HETATM   21  C   UNL     1      -7.223   7.788 -32.013  1.00  0.00     0.026 A 
HETATM   22  C   UNL     1      -6.649   6.513 -31.973  1.00  0.00     0.031 A 
ENDBRANCH  13  16
ENDBRANCH  10  12
BRANCH   9  23
HETATM   23  C   UNL     1      -7.333   0.888 -33.483  1.00  0.00    -0.028 A 
HETATM   24  C   UNL     1      -7.847   0.520 -32.226  1.00  0.00     0.012 A 
HETATM   25  C   UNL     1      -9.216   0.312 -32.055  1.00  0.00     0.043 A 
HETATM   26  C   UNL     1     -10.077   0.477 -33.133  1.00  0.00     0.116 A 
HETATM   27  F   UNL     1     -11.390   0.274 -32.966  1.00  0.00    -0.206 F 
HETATM   28  C   UNL     1      -9.596   0.850 -34.381  1.00  0.00     0.043 A 
HETATM   29  C   UNL     1      -8.228   1.059 -34.557  1.00  0.00     0.012 A 
ENDBRANCH   9  23
BRANCH   7  30
HETATM   30  C   UNL     1      -4.094  -3.453 -33.871  1.00  0.00     0.085 C 
BRANCH  30  31
HETATM   31  C   UNL     1      -4.986  -3.924 -35.018  1.00  0.00     0.034 C 
BRANCH  31  32
HETATM   32  C   UNL     1      -6.272  -4.585 -34.539  1.00  0.00     0.164 C 
BRANCH  32  33
HETATM   33  O   UNL     1      -7.052  -4.982 -35.662  1.00  0.00    -0.401 OA
HETATM   34  H   UNL     1      -6.470  -4.971 -36.442  1.00  0.00     0.209 HD
ENDBRANCH  32  33
ENDBRANCH  31  32
ENDBRANCH  30  31
ENDBRANCH   7  30
TORSDOF 7
ENDMDL
MODEL 10
REMARK VINA RESULT:      -7.5      5.594      8.785
REMARK  7 active torsions:
REMARK  status: ('A' for Active; 'I' for Inactive)
REMARK    1  A    between atoms: C_7  and  C_8 
REMARK    2  A    between atoms: C_8  and  C_9 
REMARK    3  A    between atoms: C_9  and  C_10 
REMARK    4  A    between atoms: C_10  and  O_11 
REMARK    5  A    between atoms: C_13  and  C_14 
REMARK    6  A    between atoms: C_21  and  C_22 
REMARK       I    between atoms: C_22  and  N_23 
REMARK    7  A    between atoms: N_23  and  C_24 
ROOT
HETATM    1  C   UNL     1      -7.641   6.137 -30.306  1.00  0.00     0.070 C 
HETATM    2  C   UNL     1      -6.606   5.131 -30.747  1.00  0.00     0.037 C 
HETATM    3  N   UNL     1      -7.106   3.896 -31.145  1.00  0.00    -0.192 N 
HETATM    4  C   UNL     1      -6.327   2.817 -31.350  1.00  0.00     0.726 A 
HETATM    5  N   UNL     1      -4.966   2.951 -31.301  1.00  0.00    -0.083 N 
HETATM    6  N   UNL     1      -4.350   1.760 -31.462  1.00  0.00    -0.140 NA
HETATM    7  C   UNL     1      -5.406   0.953 -31.641  1.00  0.00     0.166 A 
HETATM    8  N   UNL     1      -6.636   1.567 -31.577  1.00  0.00    -0.046 NA
HETATM    9  C   UNL     1      -4.273   4.219 -31.045  1.00  0.00     0.202 C 
HETATM   10  C   UNL     1      -5.264   5.331 -30.710  1.00  0.00     0.062 C 
HETATM   11  H   UNL     1      -8.111   3.751 -31.087  1.00  0.00     0.184 HD
ENDROOT
BRANCH  10  12
HETATM   12  C   UNL     1      -4.617   6.584 -30.237  1.00  0.00     0.256 C 
HETATM   13  N   UNL     1      -3.801   6.402 -29.141  1.00  0.00    -0.323 N 
HETATM   14  H   UNL     1      -3.737   5.465 -28.767  1.00  0.00     0.169 HD
HETATM   15  O   UNL     1      -4.882   7.634 -30.807  1.00  0.00    -0.267 OA
BRANCH  13  16
HETATM   16  C   UNL     1      -3.015   7.377 -28.492  1.00  0.00     0.035 A 
HETATM   17  C   UNL     1      -3.392   8.029 -27.316  1.00  0.00     0.031 A 
HETATM   18  C   UNL     1      -2.562   8.999 -26.742  1.00  0.00     0.026 A 
HETATM   19  C   UNL     1      -1.352   9.324 -27.348  1.00  0.00     0.034 A 
HETATM   20 CL   UNL     1      -0.339  10.525 -26.649  1.00  0.00    -0.084 Cl
HETATM   21  C   UNL     1      -0.961   8.682 -28.519  1.00  0.00     0.026 A 
HETATM   22  C   UNL     1      -1.788   7.707 -29.085  1.00  0.00     0.031 A 
ENDBRANCH  13  16
ENDBRANCH  10  12
BRANCH   9  23
HETATM   23  C   UNL     1      -3.374   4.580 -32.228  1.00  0.00    -0.028 A 
HETATM   24  C   UNL     1      -3.896   4.814 -33.514  1.00  0.00     0.012 A 
HETATM   25  C   UNL     1      -3.048   5.140 -34.573  1.00  0.00     0.043 A 
HETATM   26  C   UNL     1      -1.680   5.240 -34.353  1.00  0.00     0.116 A 
HETATM   27  F   UNL     1      -0.868   5.550 -35.372  1.00  0.00    -0.206 F 
HETATM   28  C   UNL     1      -1.141   5.024 -33.091  1.00  0.00     0.043 A 
HETATM   29  C   UNL     1      -1.986   4.699 -32.029  1.00  0.00     0.012 A 
ENDBRANCH   9  23
BRANCH   7  30
HETATM   30  C   UNL     1      -5.261  -0.501 -31.905  1.00  0.00     0.085 C 
BRANCH  30  31
HETATM   31  C   UNL     1      -4.004  -0.848 -32.700  1.00  0.00     0.034 C 
BRANCH  31  32
HETATM   32  C   UNL     1      -2.907  -1.462 -31.839  1.00  0.00     0.164 C 
BRANCH  32  33
HETATM   33  O   UNL     1      -2.235  -0.437 -31.117  1.00  0.00    -0.401 OA
HETATM   34  H   UNL     1      -1.672  -0.868 -30.451  1.00  0.00     0.209 HD
ENDBRANCH  32  33
ENDBRANCH  31  32
ENDBRANCH  30  31
ENDBRANCH   7  30
TORSDOF 7
ENDMDL
