MODEL 1
REMARK VINA RESULT:      -9.4      0.000      0.000
REMARK  6 active torsions:
REMARK  status: ('A' for Active; 'I' for Inactive)
REMARK    1  A    between atoms: C_2  and  O_3 
REMARK    2  A    between atoms: C_2  and  C_4 
REMARK    3  A    between atoms: C_6  and  N_7 
REMARK       I    between atoms: N_7  and  C_8 
REMARK    4  A    between atoms: C_8  and  C_9 
REMARK    5  A    between atoms: C_12  and  C_13 
REMARK    6  A    between atoms: C_18  and  C_19 
ROOT
HETATM    1  C   UNL     1      -7.246   1.970 -32.324  1.00  0.00     0.096 C 
HETATM    2  C   UNL     1      -6.408   0.925 -32.665  1.00  0.00     0.138 C 
HETATM    3  N   UNL     1      -5.151   1.298 -32.244  1.00  0.00    -0.240 N 
HETATM    4  C   UNL     1      -3.949   0.506 -32.433  1.00  0.00     0.221 C 
HETATM    5  C   UNL     1      -4.305  -0.937 -32.837  1.00  0.00     0.067 C 
HETATM    6  C   UNL     1      -5.436  -0.944 -33.874  1.00  0.00     0.125 C 
HETATM    7  N   UNL     1      -6.610  -0.266 -33.296  1.00  0.00    -0.365 N 
HETATM    8  N   UNL     1      -5.087   2.570 -31.827  1.00  0.00    -0.181 NA
HETATM    9  C   UNL     1      -6.363   2.967 -31.842  1.00  0.00     0.160 C 
HETATM   10  H   UNL     1      -7.410  -0.332 -33.931  1.00  0.00     0.162 HD
ENDROOT
BRANCH   1  11
HETATM   11  C   UNL     1      -8.689   2.089 -32.453  1.00  0.00     0.261 C 
HETATM   12  N   UNL     1      -9.128   2.067 -33.764  1.00  0.00    -0.323 N 
HETATM   13  H   UNL     1      -8.412   1.876 -34.457  1.00  0.00     0.169 HD
HETATM   14  O   UNL     1      -9.397   2.157 -31.456  1.00  0.00    -0.267 OA
BRANCH  12  15
HETATM   15  C   UNL     1     -10.453   2.161 -34.233  1.00  0.00     0.035 A 
HETATM   16  C   UNL     1     -11.419   1.170 -34.043  1.00  0.00     0.039 A 
HETATM   17  C   UNL     1     -12.724   1.319 -34.548  1.00  0.00    -0.028 A 
HETATM   18  C   UNL     1     -13.045   2.483 -35.259  1.00  0.00     0.010 A 
HETATM   19  C   UNL     1     -12.092   3.484 -35.441  1.00  0.00     0.003 A 
HETATM   20  C   UNL     1     -10.805   3.324 -34.927  1.00  0.00     0.029 A 
BRANCH  17  21
HETATM   21  C   UNL     1     -13.738   0.212 -34.350  1.00  0.00     0.147 C 
HETATM   22  C   UNL     1     -15.150   0.755 -34.186  1.00  0.00     0.044 C 
BRANCH  21  23
HETATM   23  O   UNL     1     -13.407  -0.567 -33.202  1.00  0.00    -0.391 OA
HETATM   24  H   UNL     1     -14.247  -0.899 -32.840  1.00  0.00     0.210 HD
ENDBRANCH  21  23
ENDBRANCH  17  21
ENDBRANCH  12  15
ENDBRANCH   1  11
BRANCH   4  25
HETATM   25  C   UNL     1      -3.092   0.484 -31.186  1.00  0.00     0.409 C 
HETATM   26  F   UNL     1      -2.088  -0.413 -31.232  1.00  0.00    -0.169 F 
HETATM   27  F   UNL     1      -2.565   1.698 -30.905  1.00  0.00    -0.169 F 
HETATM   28  F   UNL     1      -3.858   0.139 -30.116  1.00  0.00    -0.169 F 
ENDBRANCH   4  25
BRANCH   6  29
HETATM   29  C   UNL     1      -5.740  -2.358 -34.306  1.00  0.00     0.005 A 
HETATM   30  S   UNL     1      -4.477  -3.514 -34.416  1.00  0.00    -0.104 SA
HETATM   31  C   UNL     1      -5.557  -4.744 -34.907  1.00  0.00     0.050 A 
HETATM   32  C   UNL     1      -6.854  -4.291 -34.988  1.00  0.00     0.008 A 
HETATM   33  C   UNL     1      -6.961  -2.914 -34.646  1.00  0.00     0.017 A 
ENDBRANCH   6  29
TORSDOF 6
ENDMDL
MODEL 2
REMARK VINA RESULT:      -9.2      1.920      2.526
REMARK  6 active torsions:
REMARK  status: ('A' for Active; 'I' for Inactive)
REMARK    1  A    between atoms: C_2  and  O_3 
REMARK    2  A    between atoms: C_2  and  C_4 
REMARK    3  A    between atoms: C_6  and  N_7 
REMARK       I    between atoms: N_7  and  C_8 
REMARK    4  A    between atoms: C_8  and  C_9 
REMARK    5  A    between atoms: C_12  and  C_13 
REMARK    6  A    between atoms: C_18  and  C_19 
ROOT
HETATM    1  C   UNL     1      -8.846   1.117 -32.825  1.00  0.00     0.096 C 
HETATM    2  C   UNL     1      -7.684   0.419 -33.100  1.00  0.00     0.138 C 
HETATM    3  N   UNL     1      -6.650   1.280 -32.803  1.00  0.00    -0.240 N 
HETATM    4  C   UNL     1      -5.242   0.969 -32.978  1.00  0.00     0.221 C 
HETATM    5  C   UNL     1      -5.041  -0.542 -33.195  1.00  0.00     0.067 C 
HETATM    6  C   UNL     1      -6.105  -1.098 -34.151  1.00  0.00     0.125 C 
HETATM    7  N   UNL     1      -7.437  -0.833 -33.579  1.00  0.00    -0.365 N 
HETATM    8  N   UNL     1      -7.059   2.528 -32.536  1.00  0.00    -0.181 NA
HETATM    9  C   UNL     1      -8.391   2.421 -32.515  1.00  0.00     0.160 C 
HETATM   10  H   UNL     1      -8.165  -1.269 -34.151  1.00  0.00     0.162 HD
ENDROOT
BRANCH   1  11
HETATM   11  C   UNL     1     -10.231   0.678 -32.875  1.00  0.00     0.261 C 
HETATM   12  N   UNL     1     -11.118   1.691 -33.186  1.00  0.00    -0.323 N 
HETATM   13  H   UNL     1     -10.694   2.579 -33.432  1.00  0.00     0.169 HD
HETATM   14  O   UNL     1     -10.514  -0.500 -32.692  1.00  0.00    -0.267 OA
BRANCH  12  15
HETATM   15  C   UNL     1     -12.519   1.604 -33.313  1.00  0.00     0.035 A 
HETATM   16  C   UNL     1     -13.416   2.440 -32.643  1.00  0.00     0.039 A 
HETATM   17  C   UNL     1     -14.806   2.293 -32.803  1.00  0.00    -0.028 A 
HETATM   18  C   UNL     1     -15.286   1.281 -33.645  1.00  0.00     0.010 A 
HETATM   19  C   UNL     1     -14.400   0.451 -34.328  1.00  0.00     0.003 A 
HETATM   20  C   UNL     1     -13.023   0.615 -34.165  1.00  0.00     0.029 A 
BRANCH  17  21
HETATM   21  C   UNL     1     -15.750   3.198 -32.040  1.00  0.00     0.147 C 
HETATM   22  C   UNL     1     -17.177   2.669 -32.048  1.00  0.00     0.044 C 
BRANCH  21  23
HETATM   23  O   UNL     1     -15.742   4.511 -32.597  1.00  0.00    -0.391 OA
HETATM   24  H   UNL     1     -15.017   4.534 -33.244  1.00  0.00     0.210 HD
ENDBRANCH  21  23
ENDBRANCH  17  21
ENDBRANCH  12  15
ENDBRANCH   1  11
BRANCH   4  25
HETATM   25  C   UNL     1      -4.418   1.424 -31.793  1.00  0.00     0.409 C 
HETATM   26  F   UNL     1      -4.092   2.731 -31.829  1.00  0.00    -0.169 F 
HETATM   27  F   UNL     1      -5.031   1.170 -30.614  1.00  0.00    -0.169 F 
HETATM   28  F   UNL     1      -3.241   0.742 -31.771  1.00  0.00    -0.169 F 
ENDBRANCH   4  25
BRANCH   6  29
HETATM   29  C   UNL     1      -5.866  -2.567 -34.401  1.00  0.00     0.005 A 
HETATM   30  S   UNL     1      -4.328  -3.255 -34.079  1.00  0.00    -0.104 SA
HETATM   31  C   UNL     1      -4.847  -4.808 -34.566  1.00  0.00     0.050 A 
HETATM   32  C   UNL     1      -6.164  -4.810 -34.969  1.00  0.00     0.008 A 
HETATM   33  C   UNL     1      -6.751  -3.517 -34.878  1.00  0.00     0.017 A 
ENDBRANCH   6  29
TORSDOF 6
ENDMDL
MODEL 3
REMARK VINA RESULT:      -9.1      4.463      7.878
REMARK  6 active torsions:
REMARK  status: ('A' for Active; 'I' for Inactive)
REMARK    1  A    between atoms: C_2  and  O_3 
REMARK    2  A    between atoms: C_2  and  C_4 
REMARK    3  A    between atoms: C_6  and  N_7 
REMARK       I    between atoms: N_7  and  C_8 
REMARK    4  A    between atoms: C_8  and  C_9 
REMARK    5  A    between atoms: C_12  and  C_13 
REMARK    6  A    between atoms: C_18  and  C_19 
ROOT
HETATM    1  C   UNL     1      -7.069   3.549 -33.152  1.00  0.00     0.096 C 
HETATM    2  C   UNL     1      -7.378   2.203 -33.234  1.00  0.00     0.138 C 
HETATM    3  N   UNL     1      -8.705   2.101 -32.881  1.00  0.00    -0.240 N 
HETATM    4  C   UNL     1      -9.442   0.853 -32.796  1.00  0.00     0.221 C 
HETATM    5  C   UNL     1      -8.666  -0.286 -33.482  1.00  0.00     0.067 C 
HETATM    6  C   UNL     1      -7.174  -0.215 -33.128  1.00  0.00     0.125 C 
HETATM    7  N   UNL     1      -6.651   1.096 -33.553  1.00  0.00    -0.365 N 
HETATM    8  N   UNL     1      -9.218   3.245 -32.406  1.00  0.00    -0.181 NA
HETATM    9  C   UNL     1      -8.237   4.131 -32.604  1.00  0.00     0.160 C 
HETATM   10  H   UNL     1      -5.638   1.140 -33.410  1.00  0.00     0.162 HD
ENDROOT
BRANCH   1  11
HETATM   11  C   UNL     1      -5.838   4.245 -33.490  1.00  0.00     0.261 C 
HETATM   12  N   UNL     1      -4.792   3.960 -32.632  1.00  0.00    -0.323 N 
HETATM   13  H   UNL     1      -4.980   3.239 -31.944  1.00  0.00     0.169 HD
HETATM   14  O   UNL     1      -5.786   4.968 -34.477  1.00  0.00    -0.267 OA
BRANCH  12  15
HETATM   15  C   UNL     1      -3.476   4.463 -32.678  1.00  0.00     0.035 A 
HETATM   16  C   UNL     1      -2.719   4.767 -31.544  1.00  0.00     0.039 A 
HETATM   17  C   UNL     1      -1.413   5.279 -31.657  1.00  0.00    -0.028 A 
HETATM   18  C   UNL     1      -0.878   5.491 -32.934  1.00  0.00     0.010 A 
HETATM   19  C   UNL     1      -1.621   5.178 -34.071  1.00  0.00     0.003 A 
HETATM   20  C   UNL     1      -2.912   4.663 -33.942  1.00  0.00     0.029 A 
BRANCH  17  21
HETATM   21  C   UNL     1      -0.631   5.625 -30.408  1.00  0.00     0.147 C 
HETATM   22  C   UNL     1       0.427   6.687 -30.673  1.00  0.00     0.044 C 
BRANCH  21  23
HETATM   23  O   UNL     1       0.005   4.463 -29.879  1.00  0.00    -0.391 OA
HETATM   24  H   UNL     1       0.942   4.517 -30.136  1.00  0.00     0.210 HD
ENDBRANCH  21  23
ENDBRANCH  17  21
ENDBRANCH  12  15
ENDBRANCH   1  11
BRANCH   4  25
HETATM   25  C   UNL     1     -10.818   0.972 -33.415  1.00  0.00     0.409 C 
HETATM   26  F   UNL     1     -11.570   1.955 -32.881  1.00  0.00    -0.169 F 
HETATM   27  F   UNL     1     -10.763   1.158 -34.753  1.00  0.00    -0.169 F 
HETATM   28  F   UNL     1     -11.507  -0.183 -33.213  1.00  0.00    -0.169 F 
ENDBRANCH   4  25
BRANCH   6  29
HETATM   29  C   UNL     1      -6.431  -1.366 -33.760  1.00  0.00     0.005 A 
HETATM   30  S   UNL     1      -4.731  -1.497 -33.576  1.00  0.00    -0.104 SA
HETATM   31  C   UNL     1      -4.676  -2.940 -34.489  1.00  0.00     0.050 A 
HETATM   32  C   UNL     1      -5.924  -3.320 -34.929  1.00  0.00     0.008 A 
HETATM   33  C   UNL     1      -6.937  -2.411 -34.513  1.00  0.00     0.017 A 
ENDBRANCH   6  29
TORSDOF 6
ENDMDL
MODEL 4
REMARK VINA RESULT:      -9.0      4.588      8.068
REMARK  6 active torsions:
REMARK  status: ('A' for Active; 'I' for Inactive)
REMARK    1  A    between atoms: C_2  and  O_3 
REMARK    2  A    between atoms: C_2  and  C_4 
REMARK    3  A    between atoms: C_6  and  N_7 
REMARK       I    between atoms: N_7  and  C_8 
REMARK    4  A    between atoms: C_8  and  C_9 
REMARK    5  A    between atoms: C_12  and  C_13 
REMARK    6  A    between atoms: C_18  and  C_19 
ROOT
HETATM    1  C   UNL     1      -5.753   3.046 -32.276  1.00  0.00     0.096 C 
HETATM    2  C   UNL     1      -6.348   1.849 -32.628  1.00  0.00     0.138 C 
HETATM    3  N   UNL     1      -7.697   2.023 -32.412  1.00  0.00    -0.240 N 
HETATM    4  C   UNL     1      -8.704   0.997 -32.619  1.00  0.00     0.221 C 
HETATM    5  C   UNL     1      -8.129  -0.175 -33.435  1.00  0.00     0.067 C 
HETATM    6  C   UNL     1      -6.717  -0.531 -32.949  1.00  0.00     0.125 C 
HETATM    7  N   UNL     1      -5.859   0.660 -33.082  1.00  0.00    -0.365 N 
HETATM    8  N   UNL     1      -7.990   3.168 -31.781  1.00  0.00    -0.181 NA
HETATM    9  C   UNL     1      -6.816   3.804 -31.730  1.00  0.00     0.160 C 
HETATM   10  H   UNL     1      -4.889   0.430 -32.849  1.00  0.00     0.162 HD
ENDROOT
BRANCH   1  11
HETATM   11  C   UNL     1      -4.363   3.461 -32.377  1.00  0.00     0.261 C 
HETATM   12  N   UNL     1      -4.168   4.802 -32.102  1.00  0.00    -0.323 N 
HETATM   13  H   UNL     1      -4.988   5.301 -31.775  1.00  0.00     0.169 HD
HETATM   14  O   UNL     1      -3.490   2.644 -32.642  1.00  0.00    -0.267 OA
BRANCH  12  15
HETATM   15  C   UNL     1      -2.954   5.518 -32.111  1.00  0.00     0.035 A 
HETATM   16  C   UNL     1      -1.912   5.296 -31.207  1.00  0.00     0.039 A 
HETATM   17  C   UNL     1      -0.728   6.055 -31.261  1.00  0.00    -0.028 A 
HETATM   18  C   UNL     1      -0.608   7.053 -32.237  1.00  0.00     0.010 A 
HETATM   19  C   UNL     1      -1.636   7.271 -33.153  1.00  0.00     0.003 A 
HETATM   20  C   UNL     1      -2.801   6.505 -33.091  1.00  0.00     0.029 A 
BRANCH  17  21
HETATM   21  C   UNL     1       0.369   5.808 -30.248  1.00  0.00     0.147 C 
HETATM   22  C   UNL     1       1.381   4.784 -30.741  1.00  0.00     0.044 C 
BRANCH  21  23
HETATM   23  O   UNL     1      -0.184   5.353 -29.014  1.00  0.00    -0.391 OA
HETATM   24  H   UNL     1      -1.142   5.268 -29.154  1.00  0.00     0.210 HD
ENDBRANCH  21  23
ENDBRANCH  17  21
ENDBRANCH  12  15
ENDBRANCH   1  11
BRANCH   4  25
HETATM   25  C   UNL     1      -9.927   1.548 -33.319  1.00  0.00     0.409 C 
HETATM   26  F   UNL     1     -10.700   2.324 -32.533  1.00  0.00    -0.169 F 
HETATM   27  F   UNL     1      -9.609   2.251 -34.430  1.00  0.00    -0.169 F 
HETATM   28  F   UNL     1     -10.718   0.519 -33.726  1.00  0.00    -0.169 F 
ENDBRANCH   4  25
BRANCH   6  29
HETATM   29  C   UNL     1      -6.183  -1.716 -33.716  1.00  0.00     0.005 A 
HETATM   30  S   UNL     1      -4.500  -2.046 -33.726  1.00  0.00    -0.104 SA
HETATM   31  C   UNL     1      -4.710  -3.426 -34.713  1.00  0.00     0.050 A 
HETATM   32  C   UNL     1      -6.032  -3.636 -35.033  1.00  0.00     0.008 A 
HETATM   33  C   UNL     1      -6.883  -2.648 -34.462  1.00  0.00     0.017 A 
ENDBRANCH   6  29
TORSDOF 6
ENDMDL
MODEL 5
REMARK VINA RESULT:      -8.6      4.279      7.634
REMARK  6 active torsions:
REMARK  status: ('A' for Active; 'I' for Inactive)
REMARK    1  A    between atoms: C_2  and  O_3 
REMARK    2  A    between atoms: C_2  and  C_4 
REMARK    3  A    between atoms: C_6  and  N_7 
REMARK       I    between atoms: N_7  and  C_8 
REMARK    4  A    between atoms: C_8  and  C_9 
REMARK    5  A    between atoms: C_12  and  C_13 
REMARK    6  A    between atoms: C_18  and  C_19 
ROOT
HETATM    1  C   UNL     1      -7.238   1.956 -32.486  1.00  0.00     0.096 C 
HETATM    2  C   UNL     1      -6.565   3.113 -32.833  1.00  0.00     0.138 C 
HETATM    3  N   UNL     1      -7.524   4.101 -32.890  1.00  0.00    -0.240 N 
HETATM    4  C   UNL     1      -7.263   5.482 -33.255  1.00  0.00     0.221 C 
HETATM    5  C   UNL     1      -5.753   5.779 -33.224  1.00  0.00     0.067 C 
HETATM    6  C   UNL     1      -4.962   4.625 -33.856  1.00  0.00     0.125 C 
HETATM    7  N   UNL     1      -5.260   3.387 -33.112  1.00  0.00    -0.365 N 
HETATM    8  N   UNL     1      -8.775   3.633 -32.786  1.00  0.00    -0.181 NA
HETATM    9  C   UNL     1      -8.600   2.338 -32.507  1.00  0.00     0.160 C 
HETATM   10  H   UNL     1      -4.680   2.616 -33.454  1.00  0.00     0.162 HD
ENDROOT
BRANCH   1  11
HETATM   11  C   UNL     1      -6.721   0.626 -32.206  1.00  0.00     0.261 C 
HETATM   12  N   UNL     1      -5.809   0.180 -33.145  1.00  0.00    -0.323 N 
HETATM   13  H   UNL     1      -5.543   0.862 -33.848  1.00  0.00     0.169 HD
HETATM   14  O   UNL     1      -7.068   0.027 -31.195  1.00  0.00    -0.267 OA
BRANCH  12  15
HETATM   15  C   UNL     1      -5.127  -1.052 -33.169  1.00  0.00     0.035 A 
HETATM   16  C   UNL     1      -5.440  -2.099 -34.040  1.00  0.00     0.039 A 
HETATM   17  C   UNL     1      -4.728  -3.312 -34.007  1.00  0.00    -0.028 A 
HETATM   18  C   UNL     1      -3.695  -3.463 -33.072  1.00  0.00     0.010 A 
HETATM   19  C   UNL     1      -3.366  -2.420 -32.209  1.00  0.00     0.003 A 
HETATM   20  C   UNL     1      -4.076  -1.220 -32.261  1.00  0.00     0.029 A 
BRANCH  17  21
HETATM   21  C   UNL     1      -5.113  -4.436 -34.945  1.00  0.00     0.147 C 
HETATM   22  C   UNL     1      -6.616  -4.496 -35.177  1.00  0.00     0.044 C 
BRANCH  21  23
HETATM   23  O   UNL     1      -4.675  -5.691 -34.427  1.00  0.00    -0.391 OA
HETATM   24  H   UNL     1      -5.273  -6.366 -34.792  1.00  0.00     0.210 HD
ENDBRANCH  21  23
ENDBRANCH  17  21
ENDBRANCH  12  15
ENDBRANCH   1  11
BRANCH   4  25
HETATM   25  C   UNL     1      -7.987   6.448 -32.341  1.00  0.00     0.409 C 
HETATM   26  F   UNL     1      -8.103   6.010 -31.071  1.00  0.00    -0.169 F 
HETATM   27  F   UNL     1      -7.404   7.668 -32.320  1.00  0.00    -0.169 F 
HETATM   28  F   UNL     1      -9.257   6.634 -32.793  1.00  0.00    -0.169 F 
ENDBRANCH   4  25
BRANCH   6  29
HETATM   29  C   UNL     1      -3.488   4.948 -33.872  1.00  0.00     0.005 A 
HETATM   30  S   UNL     1      -2.573   4.864 -32.423  1.00  0.00    -0.104 SA
HETATM   31  C   UNL     1      -1.136   5.319 -33.227  1.00  0.00     0.050 A 
HETATM   32  C   UNL     1      -1.340   5.533 -34.571  1.00  0.00     0.008 A 
HETATM   33  C   UNL     1      -2.698   5.324 -34.944  1.00  0.00     0.017 A 
ENDBRANCH   6  29
TORSDOF 6
ENDMDL
MODEL 6
REMARK VINA RESULT:      -8.4      5.102      9.147
REMARK  6 active torsions:
REMARK  status: ('A' for Active; 'I' for Inactive)
REMARK    1  A    between atoms: C_2  and  O_3 
REMARK    2  A    between atoms: C_2  and  C_4 
REMARK    3  A    between atoms: C_6  and  N_7 
REMARK       I    between atoms: N_7  and  C_8 
REMARK    4  A    between atoms: C_8  and  C_9 
REMARK    5  A    between atoms: C_12  and  C_13 
REMARK    6  A    between atoms: C_18  and  C_19 
ROOT
HETATM    1  C   UNL     1     -10.715   1.307 -33.712  1.00  0.00     0.096 C 
HETATM    2  C   UNL     1     -11.453   2.474 -33.788  1.00  0.00     0.138 C 
HETATM    3  N   UNL     1     -12.740   2.126 -33.440  1.00  0.00    -0.240 N 
HETATM    4  C   UNL     1     -13.865   3.045 -33.419  1.00  0.00     0.221 C 
HETATM    5  C   UNL     1     -13.378   4.504 -33.486  1.00  0.00     0.067 C 
HETATM    6  C   UNL     1     -12.248   4.651 -34.515  1.00  0.00     0.125 C 
HETATM    7  N   UNL     1     -11.142   3.756 -34.131  1.00  0.00    -0.365 N 
HETATM    8  N   UNL     1     -12.921   0.803 -33.327  1.00  0.00    -0.181 NA
HETATM    9  C   UNL     1     -11.686   0.309 -33.457  1.00  0.00     0.160 C 
HETATM   10  H   UNL     1     -10.338   3.895 -34.749  1.00  0.00     0.162 HD
ENDROOT
BRANCH   1  11
HETATM   11  C   UNL     1      -9.288   1.093 -33.893  1.00  0.00     0.261 C 
HETATM   12  N   UNL     1      -8.840  -0.103 -33.364  1.00  0.00    -0.323 N 
HETATM   13  H   UNL     1      -9.564  -0.718 -33.009  1.00  0.00     0.169 HD
HETATM   14  O   UNL     1      -8.611   1.913 -34.500  1.00  0.00    -0.267 OA
BRANCH  12  15
HETATM   15  C   UNL     1      -7.525  -0.610 -33.369  1.00  0.00     0.035 A 
HETATM   16  C   UNL     1      -7.096  -1.656 -34.191  1.00  0.00     0.039 A 
HETATM   17  C   UNL     1      -5.771  -2.126 -34.139  1.00  0.00    -0.028 A 
HETATM   18  C   UNL     1      -4.878  -1.532 -33.236  1.00  0.00     0.010 A 
HETATM   19  C   UNL     1      -5.293  -0.480 -32.423  1.00  0.00     0.003 A 
HETATM   20  C   UNL     1      -6.609  -0.019 -32.492  1.00  0.00     0.029 A 
BRANCH  17  21
HETATM   21  C   UNL     1      -5.347  -3.280 -35.022  1.00  0.00     0.147 C 
HETATM   22  C   UNL     1      -6.451  -4.317 -35.173  1.00  0.00     0.044 C 
BRANCH  21  23
HETATM   23  O   UNL     1      -4.186  -3.916 -34.490  1.00  0.00    -0.391 OA
HETATM   24  H   UNL     1      -3.539  -3.962 -35.214  1.00  0.00     0.210 HD
ENDBRANCH  21  23
ENDBRANCH  17  21
ENDBRANCH  12  15
ENDBRANCH   1  11
BRANCH   4  25
HETATM   25  C   UNL     1     -14.719   2.854 -32.185  1.00  0.00     0.409 C 
HETATM   26  F   UNL     1     -15.452   1.723 -32.202  1.00  0.00    -0.169 F 
HETATM   27  F   UNL     1     -13.988   2.870 -31.047  1.00  0.00    -0.169 F 
HETATM   28  F   UNL     1     -15.609   3.878 -32.087  1.00  0.00    -0.169 F 
ENDBRANCH   4  25
BRANCH   6  29
HETATM   29  C   UNL     1     -11.816   6.093 -34.615  1.00  0.00     0.005 A 
HETATM   30  S   UNL     1     -10.521   6.671 -33.649  1.00  0.00    -0.104 SA
HETATM   31  C   UNL     1     -10.643   8.242 -34.309  1.00  0.00     0.050 A 
HETATM   32  C   UNL     1     -11.648   8.333 -35.246  1.00  0.00     0.008 A 
HETATM   33  C   UNL     1     -12.328   7.095 -35.419  1.00  0.00     0.017 A 
ENDBRANCH   6  29
TORSDOF 6
ENDMDL
MODEL 7
REMARK VINA RESULT:      -8.3      3.788      7.372
REMARK  6 active torsions:
REMARK  status: ('A' for Active; 'I' for Inactive)
REMARK    1  A    between atoms: C_2  and  O_3 
REMARK    2  A    between atoms: C_2  and  C_4 
REMARK    3  A    between atoms: C_6  and  N_7 
REMARK       I    between atoms: N_7  and  C_8 
REMARK    4  A    between atoms: C_8  and  C_9 
REMARK    5  A    between atoms: C_12  and  C_13 
REMARK    6  A    between atoms: C_18  and  C_19 
ROOT
HETATM    1  C   UNL     1      -6.622   1.747 -31.415  1.00  0.00     0.096 C 
HETATM    2  C   UNL     1      -7.731   2.371 -31.955  1.00  0.00     0.138 C 
HETATM    3  N   UNL     1      -7.540   3.720 -31.749  1.00  0.00    -0.240 N 
HETATM    4  C   UNL     1      -8.485   4.754 -32.131  1.00  0.00     0.221 C 
HETATM    5  C   UNL     1      -9.545   4.194 -33.098  1.00  0.00     0.067 C 
HETATM    6  C   UNL     1     -10.021   2.810 -32.636  1.00  0.00     0.125 C 
HETATM    7  N   UNL     1      -8.857   1.909 -32.569  1.00  0.00    -0.365 N 
HETATM    8  N   UNL     1      -6.490   3.993 -30.962  1.00  0.00    -0.181 NA
HETATM    9  C   UNL     1      -5.913   2.800 -30.789  1.00  0.00     0.160 C 
HETATM   10  H   UNL     1      -9.155   0.955 -32.348  1.00  0.00     0.162 HD
ENDROOT
BRANCH   1  11
HETATM   11  C   UNL     1      -6.249   0.342 -31.418  1.00  0.00     0.261 C 
HETATM   12  N   UNL     1      -5.342   0.015 -32.409  1.00  0.00    -0.323 N 
HETATM   13  H   UNL     1      -4.980   0.799 -32.941  1.00  0.00     0.169 HD
HETATM   14  O   UNL     1      -6.698  -0.420 -30.571  1.00  0.00    -0.267 OA
BRANCH  12  15
HETATM   15  C   UNL     1      -4.782  -1.248 -32.685  1.00  0.00     0.035 A 
HETATM   16  C   UNL     1      -5.261  -2.115 -33.669  1.00  0.00     0.039 A 
HETATM   17  C   UNL     1      -4.664  -3.371 -33.888  1.00  0.00    -0.028 A 
HETATM   18  C   UNL     1      -3.576  -3.749 -33.090  1.00  0.00     0.010 A 
HETATM   19  C   UNL     1      -3.081  -2.885 -32.115  1.00  0.00     0.003 A 
HETATM   20  C   UNL     1      -3.679  -1.640 -31.917  1.00  0.00     0.029 A 
BRANCH  17  21
HETATM   21  C   UNL     1      -5.228  -4.298 -34.943  1.00  0.00     0.147 C 
HETATM   22  C   UNL     1      -6.741  -4.180 -35.057  1.00  0.00     0.044 C 
BRANCH  21  23
HETATM   23  O   UNL     1      -4.892  -5.653 -34.648  1.00  0.00    -0.391 OA
HETATM   24  H   UNL     1      -5.605  -6.202 -35.016  1.00  0.00     0.210 HD
ENDBRANCH  21  23
ENDBRANCH  17  21
ENDBRANCH  12  15
ENDBRANCH   1  11
BRANCH   4  25
HETATM   25  C   UNL     1      -7.791   5.936 -32.772  1.00  0.00     0.409 C 
HETATM   26  F   UNL     1      -7.271   6.807 -31.884  1.00  0.00    -0.169 F 
HETATM   27  F   UNL     1      -6.809   5.557 -33.621  1.00  0.00    -0.169 F 
HETATM   28  F   UNL     1      -8.689   6.643 -33.511  1.00  0.00    -0.169 F 
ENDBRANCH   4  25
BRANCH   6  29
HETATM   29  C   UNL     1     -11.099   2.294 -33.557  1.00  0.00     0.005 A 
HETATM   30  S   UNL     1     -11.654   3.263 -34.859  1.00  0.00    -0.104 SA
HETATM   31  C   UNL     1     -12.754   2.060 -35.372  1.00  0.00     0.050 A 
HETATM   32  C   UNL     1     -12.707   0.941 -34.572  1.00  0.00     0.008 A 
HETATM   33  C   UNL     1     -11.755   1.076 -33.522  1.00  0.00     0.017 A 
ENDBRANCH   6  29
TORSDOF 6
ENDMDL
MODEL 8
REMARK VINA RESULT:      -8.2      5.237      8.314
REMARK  6 active torsions:
REMARK  status: ('A' for Active; 'I' for Inactive)
REMARK    1  A    between atoms: C_2  and  O_3 
REMARK    2  A    between atoms: C_2  and  C_4 
REMARK    3  A    between atoms: C_6  and  N_7 
REMARK       I    between atoms: N_7  and  C_8 
REMARK    4  A    between atoms: C_8  and  C_9 
REMARK    5  A    between atoms: C_12  and  C_13 
REMARK    6  A    between atoms: C_18  and  C_19 
ROOT
HETATM    1  C   UNL     1      -5.457   3.093 -31.626  1.00  0.00     0.096 C 
HETATM    2  C   UNL     1      -4.821   4.209 -31.114  1.00  0.00     0.138 C 
HETATM    3  N   UNL     1      -5.808   4.962 -30.517  1.00  0.00    -0.240 N 
HETATM    4  C   UNL     1      -5.591   6.248 -29.877  1.00  0.00     0.221 C 
HETATM    5  C   UNL     1      -4.089   6.491 -29.640  1.00  0.00     0.067 C 
HETATM    6  C   UNL     1      -3.271   6.063 -30.866  1.00  0.00     0.125 C 
HETATM    7  N   UNL     1      -3.526   4.635 -31.127  1.00  0.00    -0.365 N 
HETATM    8  N   UNL     1      -7.045   4.508 -30.764  1.00  0.00    -0.181 NA
HETATM    9  C   UNL     1      -6.830   3.356 -31.406  1.00  0.00     0.160 C 
HETATM   10  H   UNL     1      -2.928   4.297 -31.886  1.00  0.00     0.162 HD
ENDROOT
BRANCH   1  11
HETATM   11  C   UNL     1      -4.900   1.923 -32.286  1.00  0.00     0.261 C 
HETATM   12  N   UNL     1      -5.845   0.961 -32.591  1.00  0.00    -0.323 N 
HETATM   13  H   UNL     1      -6.807   1.226 -32.409  1.00  0.00     0.169 HD
HETATM   14  O   UNL     1      -3.706   1.874 -32.556  1.00  0.00    -0.267 OA
BRANCH  12  15
HETATM   15  C   UNL     1      -5.640  -0.280 -33.225  1.00  0.00     0.035 A 
HETATM   16  C   UNL     1      -4.655  -1.195 -32.847  1.00  0.00     0.039 A 
HETATM   17  C   UNL     1      -4.493  -2.415 -33.530  1.00  0.00    -0.028 A 
HETATM   18  C   UNL     1      -5.336  -2.700 -34.612  1.00  0.00     0.010 A 
HETATM   19  C   UNL     1      -6.331  -1.800 -34.988  1.00  0.00     0.003 A 
HETATM   20  C   UNL     1      -6.484  -0.598 -34.295  1.00  0.00     0.029 A 
BRANCH  17  21
HETATM   21  C   UNL     1      -3.396  -3.371 -33.113  1.00  0.00     0.147 C 
HETATM   22  C   UNL     1      -3.751  -4.818 -33.424  1.00  0.00     0.044 C 
BRANCH  21  23
HETATM   23  O   UNL     1      -3.134  -3.250 -31.715  1.00  0.00    -0.391 OA
HETATM   24  H   UNL     1      -3.718  -2.547 -31.383  1.00  0.00     0.210 HD
ENDBRANCH  21  23
ENDBRANCH  17  21
ENDBRANCH  12  15
ENDBRANCH   1  11
BRANCH   4  25
HETATM   25  C   UNL     1      -6.333   6.350 -28.563  1.00  0.00     0.409 C 
HETATM   26  F   UNL     1      -7.613   6.752 -28.692  1.00  0.00    -0.169 F 
HETATM   27  F   UNL     1      -6.320   5.187 -27.874  1.00  0.00    -0.169 F 
HETATM   28  F   UNL     1      -5.726   7.275 -27.770  1.00  0.00    -0.169 F 
ENDBRANCH   4  25
BRANCH   6  29
HETATM   29  C   UNL     1      -1.807   6.357 -30.646  1.00  0.00     0.005 A 
HETATM   30  S   UNL     1      -1.310   7.284 -29.291  1.00  0.00    -0.104 SA
HETATM   31  C   UNL     1       0.338   7.157 -29.725  1.00  0.00     0.050 A 
HETATM   32  C   UNL     1       0.514   6.426 -30.878  1.00  0.00     0.008 A 
HETATM   33  C   UNL     1      -0.724   5.967 -31.413  1.00  0.00     0.017 A 
ENDBRANCH   6  29
TORSDOF 6
ENDMDL
MODEL 9
REMARK VINA RESULT:      -8.2      4.792      9.052
REMARK  6 active torsions:
REMARK  status: ('A' for Active; 'I' for Inactive)
REMARK    1  A    between atoms: C_2  and  O_3 
REMARK    2  A    between atoms: C_2  and  C_4 
REMARK    3  A    between atoms: C_6  and  N_7 
REMARK       I    between atoms: N_7  and  C_8 
REMARK    4  A    between atoms: C_8  and  C_9 
REMARK    5  A    between atoms: C_12  and  C_13 
REMARK    6  A    between atoms: C_18  and  C_19 
ROOT
HETATM    1  C   UNL     1      -6.455   2.921 -33.527  1.00  0.00     0.096 C 
HETATM    2  C   UNL     1      -7.820   2.869 -33.743  1.00  0.00     0.138 C 
HETATM    3  N   UNL     1      -8.157   1.535 -33.686  1.00  0.00    -0.240 N 
HETATM    4  C   UNL     1      -9.497   1.013 -33.894  1.00  0.00     0.221 C 
HETATM    5  C   UNL     1     -10.538   2.146 -33.834  1.00  0.00     0.067 C 
HETATM    6  C   UNL     1     -10.036   3.382 -34.594  1.00  0.00     0.125 C 
HETATM    7  N   UNL     1      -8.764   3.820 -33.994  1.00  0.00    -0.365 N 
HETATM    8  N   UNL     1      -7.095   0.720 -33.632  1.00  0.00    -0.181 NA
HETATM    9  C   UNL     1      -6.065   1.561 -33.500  1.00  0.00     0.160 C 
HETATM   10  H   UNL     1      -8.448   4.694 -34.422  1.00  0.00     0.162 HD
ENDROOT
BRANCH   1  11
HETATM   11  C   UNL     1      -5.575   4.072 -33.399  1.00  0.00     0.261 C 
HETATM   12  N   UNL     1      -4.239   3.734 -33.297  1.00  0.00    -0.323 N 
HETATM   13  H   UNL     1      -4.030   2.748 -33.421  1.00  0.00     0.169 HD
HETATM   14  O   UNL     1      -6.033   5.208 -33.428  1.00  0.00    -0.267 OA
BRANCH  12  15
HETATM   15  C   UNL     1      -3.136   4.601 -33.162  1.00  0.00     0.035 A 
HETATM   16  C   UNL     1      -2.416   4.767 -31.976  1.00  0.00     0.039 A 
HETATM   17  C   UNL     1      -1.331   5.659 -31.903  1.00  0.00    -0.028 A 
HETATM   18  C   UNL     1      -0.982   6.394 -33.043  1.00  0.00     0.010 A 
HETATM   19  C   UNL     1      -1.684   6.225 -34.235  1.00  0.00     0.003 A 
HETATM   20  C   UNL     1      -2.754   5.329 -34.294  1.00  0.00     0.029 A 
BRANCH  17  21
HETATM   21  C   UNL     1      -0.591   5.837 -30.594  1.00  0.00     0.147 C 
HETATM   22  C   UNL     1       0.661   6.686 -30.758  1.00  0.00     0.044 C 
BRANCH  21  23
HETATM   23  O   UNL     1      -0.221   4.569 -30.054  1.00  0.00    -0.391 OA
HETATM   24  H   UNL     1      -0.331   4.635 -29.090  1.00  0.00     0.210 HD
ENDBRANCH  21  23
ENDBRANCH  17  21
ENDBRANCH  12  15
ENDBRANCH   1  11
BRANCH   4  25
HETATM   25  C   UNL     1      -9.848  -0.049 -32.875  1.00  0.00     0.409 C 
HETATM   26  F   UNL     1      -9.240  -1.233 -33.094  1.00  0.00    -0.169 F 
HETATM   27  F   UNL     1      -9.574   0.342 -31.610  1.00  0.00    -0.169 F 
HETATM   28  F   UNL     1     -11.185  -0.298 -32.922  1.00  0.00    -0.169 F 
ENDBRANCH   4  25
BRANCH   6  29
HETATM   29  C   UNL     1     -11.086   4.467 -34.578  1.00  0.00     0.005 A 
HETATM   30  S   UNL     1     -11.061   5.669 -33.354  1.00  0.00    -0.104 SA
HETATM   31  C   UNL     1     -12.437   6.449 -34.000  1.00  0.00     0.050 A 
HETATM   32  C   UNL     1     -12.912   5.812 -35.124  1.00  0.00     0.008 A 
HETATM   33  C   UNL     1     -12.136   4.666 -35.456  1.00  0.00     0.017 A 
ENDBRANCH   6  29
TORSDOF 6
ENDMDL
MODEL 10
REMARK VINA RESULT:      -8.1      3.702      7.598
REMARK  6 active torsions:
REMARK  status: ('A' for Active; 'I' for Inactive)
REMARK    1  A    between atoms: C_2  and  O_3 
REMARK    2  A    between atoms: C_2  and  C_4 
REMARK    3  A    between atoms: C_6  and  N_7 
REMARK       I    between atoms: N_7  and  C_8 
REMARK    4  A    between atoms: C_8  and  C_9 
REMARK    5  A    between atoms: C_12  and  C_13 
REMARK    6  A    between atoms: C_18  and  C_19 
ROOT
HETATM    1  C   UNL     1      -5.127   2.000 -32.402  1.00  0.00     0.096 C 
HETATM    2  C   UNL     1      -6.017   3.040 -32.594  1.00  0.00     0.138 C 
HETATM    3  N   UNL     1      -5.509   4.105 -31.883  1.00  0.00    -0.240 N 
HETATM    4  C   UNL     1      -6.147   5.405 -31.777  1.00  0.00     0.221 C 
HETATM    5  C   UNL     1      -7.261   5.553 -32.830  1.00  0.00     0.067 C 
HETATM    6  C   UNL     1      -8.089   4.264 -32.927  1.00  0.00     0.125 C 
HETATM    7  N   UNL     1      -7.189   3.152 -33.281  1.00  0.00    -0.365 N 
HETATM    8  N   UNL     1      -4.466   3.776 -31.108  1.00  0.00    -0.181 NA
HETATM    9  C   UNL     1      -4.213   2.509 -31.449  1.00  0.00     0.160 C 
HETATM   10  H   UNL     1      -7.725   2.294 -33.439  1.00  0.00     0.162 HD
ENDROOT
BRANCH   1  11
HETATM   11  C   UNL     1      -5.114   0.665 -32.978  1.00  0.00     0.261 C 
HETATM   12  N   UNL     1      -4.302  -0.222 -32.295  1.00  0.00    -0.323 N 
HETATM   13  H   UNL     1      -3.898   0.135 -31.435  1.00  0.00     0.169 HD
HETATM   14  O   UNL     1      -5.812   0.403 -33.950  1.00  0.00    -0.267 OA
BRANCH  12  15
HETATM   15  C   UNL     1      -4.067  -1.579 -32.588  1.00  0.00     0.035 A 
HETATM   16  C   UNL     1      -4.714  -2.279 -33.610  1.00  0.00     0.039 A 
HETATM   17  C   UNL     1      -4.443  -3.640 -33.844  1.00  0.00    -0.028 A 
HETATM   18  C   UNL     1      -3.514  -4.296 -33.026  1.00  0.00     0.010 A 
HETATM   19  C   UNL     1      -2.853  -3.603 -32.013  1.00  0.00     0.003 A 
HETATM   20  C   UNL     1      -3.126  -2.251 -31.799  1.00  0.00     0.029 A 
BRANCH  17  21
HETATM   21  C   UNL     1      -5.184  -4.376 -34.941  1.00  0.00     0.147 C 
HETATM   22  C   UNL     1      -6.682  -4.113 -34.893  1.00  0.00     0.044 C 
BRANCH  21  23
HETATM   23  O   UNL     1      -4.958  -5.781 -34.840  1.00  0.00    -0.391 OA
HETATM   24  H   UNL     1      -4.420  -5.919 -34.043  1.00  0.00     0.210 HD
ENDBRANCH  21  23
ENDBRANCH  17  21
ENDBRANCH  12  15
ENDBRANCH   1  11
BRANCH   4  25
HETATM   25  C   UNL     1      -5.149   6.532 -31.935  1.00  0.00     0.409 C 
HETATM   26  F   UNL     1      -4.386   6.737 -30.844  1.00  0.00    -0.169 F 
HETATM   27  F   UNL     1      -4.334   6.349 -32.998  1.00  0.00    -0.169 F 
HETATM   28  F   UNL     1      -5.815   7.698 -32.155  1.00  0.00    -0.169 F 
ENDBRANCH   4  25
BRANCH   6  29
HETATM   29  C   UNL     1      -9.212   4.437 -33.920  1.00  0.00     0.005 A 
HETATM   30  S   UNL     1     -10.181   3.094 -34.364  1.00  0.00    -0.104 SA
HETATM   31  C   UNL     1     -11.137   4.046 -35.413  1.00  0.00     0.050 A 
HETATM   32  C   UNL     1     -10.731   5.362 -35.431  1.00  0.00     0.008 A 
HETATM   33  C   UNL     1      -9.617   5.588 -34.573  1.00  0.00     0.017 A 
ENDBRANCH   6  29
TORSDOF 6
ENDMDL
