MODEL 1
REMARK VINA RESULT:     -10.5      0.000      0.000
REMARK  3 active torsions:
REMARK  status: ('A' for Active; 'I' for Inactive)
REMARK    1  A    between atoms: C_2  and  N_3 
REMARK    2  A    between atoms: C_6  and  C_7 
REMARK       I    between atoms: C_7  and  N_8 
REMARK    3  A    between atoms: N_8  and  C_9 
ROOT
HETATM    1  C   UNL     1      -3.981   4.264 -32.619  1.00  0.00     0.036 A 
HETATM    2  C   UNL     1      -2.797   4.270 -31.880  1.00  0.00     0.049 A 
HETATM    3  C   UNL     1      -2.282   5.462 -31.319  1.00  0.00     0.061 A 
HETATM    4  C   UNL     1      -2.964   6.670 -31.519  1.00  0.00     0.050 A 
HETATM    5  N   UNL     1      -2.608   7.926 -31.002  1.00  0.00    -0.324 N 
HETATM    6  C   UNL     1      -1.955   8.219 -29.837  1.00  0.00     0.245 C 
HETATM    7  O   UNL     1      -1.893   9.402 -29.493  1.00  0.00    -0.271 OA
HETATM    8  C   UNL     1      -1.541   7.067 -28.928  1.00  0.00     0.180 C 
HETATM    9  N   UNL     1      -0.634   6.159 -29.611  1.00  0.00    -0.334 N 
HETATM   10  C   UNL     1      -0.951   5.339 -30.668  1.00  0.00     0.256 C 
HETATM   11  O   UNL     1      -0.163   4.494 -31.087  1.00  0.00    -0.267 OA
HETATM   12  C   UNL     1      -0.745   7.551 -27.710  1.00  0.00     0.037 C 
HETATM   13  C   UNL     1       0.227   6.410 -27.446  1.00  0.00     0.022 C 
HETATM   14  C   UNL     1       0.586   5.953 -28.850  1.00  0.00     0.127 C 
HETATM   15  C   UNL     1      -4.118   6.667 -32.319  1.00  0.00     0.033 A 
HETATM   16  C   UNL     1      -4.630   5.477 -32.844  1.00  0.00     0.032 A 
HETATM   17  H   UNL     1      -3.028   8.752 -31.414  1.00  0.00     0.169 HD
ENDROOT
BRANCH   1  18
HETATM   18  N   UNL     1      -4.573   3.108 -33.169  1.00  0.00    -0.323 N 
HETATM   19  C   UNL     1      -5.479   2.254 -32.567  1.00  0.00     0.257 C 
HETATM   20  O   UNL     1      -5.965   2.384 -31.450  1.00  0.00    -0.267 OA
HETATM   21  H   UNL     1      -4.341   2.909 -34.133  1.00  0.00     0.169 HD
BRANCH  19  22
HETATM   22  C   UNL     1      -5.948   1.118 -33.406  1.00  0.00     0.044 A 
HETATM   23  C   UNL     1      -5.358  -0.172 -33.366  1.00  0.00     0.008 A 
HETATM   24  C   UNL     1      -5.847  -1.162 -34.239  1.00  0.00     0.045 A 
HETATM   25  C   UNL     1      -4.341  -0.792 -32.583  1.00  0.00     0.032 A 
HETATM   26  N   UNL     1      -5.090  -2.304 -34.033  1.00  0.00    -0.352 N 
HETATM   27  C   UNL     1      -6.923  -0.907 -35.108  1.00  0.00     0.030 A 
HETATM   28  C   UNL     1      -4.182  -2.082 -33.027  1.00  0.00     0.092 A 
HETATM   29  C   UNL     1      -7.514   0.358 -35.101  1.00  0.00     0.003 A 
HETATM   30  C   UNL     1      -7.035   1.357 -34.266  1.00  0.00     0.018 A 
BRANCH  26  31
HETATM   31  C   UNL     1      -5.204  -3.592 -34.724  1.00  0.00     0.081 C 
HETATM   32  C   UNL     1      -6.645  -4.096 -34.818  1.00  0.00     0.032 C 
HETATM   33  C   UNL     1      -4.256  -4.644 -34.151  1.00  0.00     0.032 C 
ENDBRANCH  26  31
ENDBRANCH  19  22
ENDBRANCH   1  18
TORSDOF 3
ENDMDL
MODEL 2
REMARK VINA RESULT:      -9.7      2.202      9.879
REMARK  3 active torsions:
REMARK  status: ('A' for Active; 'I' for Inactive)
REMARK    1  A    between atoms: C_2  and  N_3 
REMARK    2  A    between atoms: C_6  and  C_7 
REMARK       I    between atoms: C_7  and  N_8 
REMARK    3  A    between atoms: N_8  and  C_9 
ROOT
HETATM    1  C   UNL     1      -3.853   2.598 -31.438  1.00  0.00     0.036 A 
HETATM    2  C   UNL     1      -3.493   1.274 -31.695  1.00  0.00     0.049 A 
HETATM    3  C   UNL     1      -4.449   0.316 -32.107  1.00  0.00     0.061 A 
HETATM    4  C   UNL     1      -5.791   0.695 -32.246  1.00  0.00     0.050 A 
HETATM    5  N   UNL     1      -6.849  -0.121 -32.678  1.00  0.00    -0.324 N 
HETATM    6  C   UNL     1      -6.817  -1.179 -33.544  1.00  0.00     0.245 C 
HETATM    7  O   UNL     1      -7.893  -1.652 -33.917  1.00  0.00    -0.271 OA
HETATM    8  C   UNL     1      -5.479  -1.568 -34.164  1.00  0.00     0.180 C 
HETATM    9  N   UNL     1      -4.511  -1.930 -33.142  1.00  0.00    -0.334 N 
HETATM   10  C   UNL     1      -3.947  -1.079 -32.222  1.00  0.00     0.256 C 
HETATM   11  O   UNL     1      -3.025  -1.439 -31.491  1.00  0.00    -0.267 OA
HETATM   12  C   UNL     1      -5.593  -2.823 -35.039  1.00  0.00     0.037 C 
HETATM   13  C   UNL     1      -4.243  -3.503 -34.859  1.00  0.00     0.022 C 
HETATM   14  C   UNL     1      -3.937  -3.240 -33.394  1.00  0.00     0.127 C 
HETATM   15  C   UNL     1      -6.156   2.011 -31.921  1.00  0.00     0.033 A 
HETATM   16  C   UNL     1      -5.196   2.954 -31.542  1.00  0.00     0.032 A 
HETATM   17  H   UNL     1      -7.798   0.189 -32.502  1.00  0.00     0.169 HD
ENDROOT
BRANCH   1  18
HETATM   18  N   UNL     1      -2.947   3.613 -31.067  1.00  0.00    -0.323 N 
HETATM   19  C   UNL     1      -2.296   4.509 -31.894  1.00  0.00     0.257 C 
HETATM   20  O   UNL     1      -2.433   4.606 -33.109  1.00  0.00    -0.267 OA
HETATM   21  H   UNL     1      -2.793   3.727 -30.073  1.00  0.00     0.169 HD
BRANCH  19  22
HETATM   22  C   UNL     1      -1.407   5.488 -31.212  1.00  0.00     0.044 A 
HETATM   23  C   UNL     1      -1.889   6.507 -30.349  1.00  0.00     0.008 A 
HETATM   24  C   UNL     1      -0.964   7.411 -29.796  1.00  0.00     0.045 A 
HETATM   25  C   UNL     1      -3.165   6.861 -29.823  1.00  0.00     0.032 A 
HETATM   26  N   UNL     1      -1.681   8.318 -29.031  1.00  0.00    -0.352 N 
HETATM   27  C   UNL     1       0.415   7.297 -30.047  1.00  0.00     0.030 A 
HETATM   28  C   UNL     1      -3.013   7.981 -29.043  1.00  0.00     0.092 A 
HETATM   29  C   UNL     1       0.870   6.262 -30.866  1.00  0.00     0.003 A 
HETATM   30  C   UNL     1      -0.024   5.371 -31.443  1.00  0.00     0.018 A 
BRANCH  26  31
HETATM   31  C   UNL     1      -1.162   9.463 -28.277  1.00  0.00     0.081 C 
HETATM   32  C   UNL     1      -0.626   9.079 -26.898  1.00  0.00     0.032 C 
HETATM   33  C   UNL     1      -2.163  10.615 -28.211  1.00  0.00     0.032 C 
ENDBRANCH  26  31
ENDBRANCH  19  22
ENDBRANCH   1  18
TORSDOF 3
ENDMDL
MODEL 3
REMARK VINA RESULT:      -9.6      6.015      9.666
REMARK  3 active torsions:
REMARK  status: ('A' for Active; 'I' for Inactive)
REMARK    1  A    between atoms: C_2  and  N_3 
REMARK    2  A    between atoms: C_6  and  C_7 
REMARK       I    between atoms: C_7  and  N_8 
REMARK    3  A    between atoms: N_8  and  C_9 
ROOT
HETATM    1  C   UNL     1     -10.518   0.627 -33.244  1.00  0.00     0.036 A 
HETATM    2  C   UNL     1     -11.013   1.931 -33.290  1.00  0.00     0.049 A 
HETATM    3  C   UNL     1     -12.402   2.191 -33.356  1.00  0.00     0.061 A 
HETATM    4  C   UNL     1     -13.305   1.121 -33.391  1.00  0.00     0.050 A 
HETATM    5  N   UNL     1     -14.706   1.209 -33.420  1.00  0.00    -0.324 N 
HETATM    6  C   UNL     1     -15.514   2.175 -32.887  1.00  0.00     0.245 C 
HETATM    7  O   UNL     1     -16.730   1.971 -32.881  1.00  0.00    -0.271 OA
HETATM    8  C   UNL     1     -14.863   3.335 -32.140  1.00  0.00     0.180 C 
HETATM    9  N   UNL     1     -13.963   4.078 -33.006  1.00  0.00    -0.334 N 
HETATM   10  C   UNL     1     -12.777   3.621 -33.527  1.00  0.00     0.256 C 
HETATM   11  O   UNL     1     -12.005   4.367 -34.126  1.00  0.00    -0.267 OA
HETATM   12  C   UNL     1     -15.893   4.376 -31.681  1.00  0.00     0.037 C 
HETATM   13  C   UNL     1     -15.128   5.689 -31.765  1.00  0.00     0.022 C 
HETATM   14  C   UNL     1     -14.279   5.496 -33.010  1.00  0.00     0.127 C 
HETATM   15  C   UNL     1     -12.796  -0.187 -33.412  1.00  0.00     0.033 A 
HETATM   16  C   UNL     1     -11.423  -0.431 -33.319  1.00  0.00     0.032 A 
HETATM   17  H   UNL     1     -15.235   0.389 -33.693  1.00  0.00     0.169 HD
ENDROOT
BRANCH   1  18
HETATM   18  N   UNL     1      -9.151   0.295 -33.135  1.00  0.00    -0.323 N 
HETATM   19  C   UNL     1      -8.185   0.358 -34.121  1.00  0.00     0.257 C 
HETATM   20  O   UNL     1      -8.342   0.765 -35.266  1.00  0.00    -0.267 OA
HETATM   21  H   UNL     1      -8.835   0.023 -32.213  1.00  0.00     0.169 HD
BRANCH  19  22
HETATM   22  C   UNL     1      -6.813  -0.041 -33.704  1.00  0.00     0.044 A 
HETATM   23  C   UNL     1      -6.273  -1.331 -33.943  1.00  0.00     0.008 A 
HETATM   24  C   UNL     1      -4.983  -1.620 -33.461  1.00  0.00     0.045 A 
HETATM   25  C   UNL     1      -6.715  -2.498 -34.634  1.00  0.00     0.032 A 
HETATM   26  N   UNL     1      -4.705  -2.937 -33.788  1.00  0.00    -0.352 N 
HETATM   27  C   UNL     1      -4.216  -0.649 -32.792  1.00  0.00     0.030 A 
HETATM   28  C   UNL     1      -5.752  -3.467 -34.502  1.00  0.00     0.092 A 
HETATM   29  C   UNL     1      -4.752   0.626 -32.604  1.00  0.00     0.003 A 
HETATM   30  C   UNL     1      -6.031   0.928 -33.049  1.00  0.00     0.018 A 
BRANCH  26  31
HETATM   31  C   UNL     1      -3.494  -3.702 -33.477  1.00  0.00     0.081 C 
HETATM   32  C   UNL     1      -3.540  -5.137 -34.004  1.00  0.00     0.032 C 
HETATM   33  C   UNL     1      -3.133  -3.639 -31.993  1.00  0.00     0.032 C 
ENDBRANCH  26  31
ENDBRANCH  19  22
ENDBRANCH   1  18
TORSDOF 3
ENDMDL
MODEL 4
REMARK VINA RESULT:      -9.6      5.519      9.278
REMARK  3 active torsions:
REMARK  status: ('A' for Active; 'I' for Inactive)
REMARK    1  A    between atoms: C_2  and  N_3 
REMARK    2  A    between atoms: C_6  and  C_7 
REMARK       I    between atoms: C_7  and  N_8 
REMARK    3  A    between atoms: N_8  and  C_9 
ROOT
HETATM    1  C   UNL     1      -8.573   0.684 -32.584  1.00  0.00     0.036 A 
HETATM    2  C   UNL     1      -7.823  -0.307 -33.218  1.00  0.00     0.049 A 
HETATM    3  C   UNL     1      -6.426  -0.415 -33.021  1.00  0.00     0.061 A 
HETATM    4  C   UNL     1      -5.774   0.499 -32.184  1.00  0.00     0.050 A 
HETATM    5  N   UNL     1      -4.408   0.507 -31.857  1.00  0.00    -0.324 N 
HETATM    6  C   UNL     1      -3.544  -0.549 -31.764  1.00  0.00     0.245 C 
HETATM    7  O   UNL     1      -2.422  -0.337 -31.297  1.00  0.00    -0.271 OA
HETATM    8  C   UNL     1      -4.081  -1.952 -32.029  1.00  0.00     0.180 C 
HETATM    9  N   UNL     1      -4.615  -2.063 -33.376  1.00  0.00    -0.334 N 
HETATM   10  C   UNL     1      -5.740  -1.437 -33.857  1.00  0.00     0.256 C 
HETATM   11  O   UNL     1      -6.205  -1.705 -34.963  1.00  0.00    -0.267 OA
HETATM   12  C   UNL     1      -2.975  -3.013 -31.972  1.00  0.00     0.037 C 
HETATM   13  C   UNL     1      -3.421  -4.044 -32.999  1.00  0.00     0.022 C 
HETATM   14  C   UNL     1      -4.021  -3.178 -34.093  1.00  0.00     0.127 C 
HETATM   15  C   UNL     1      -6.524   1.534 -31.603  1.00  0.00     0.033 A 
HETATM   16  C   UNL     1      -7.908   1.613 -31.784  1.00  0.00     0.032 A 
HETATM   17  H   UNL     1      -4.014   1.349 -31.452  1.00  0.00     0.169 HD
ENDROOT
BRANCH   1  18
HETATM   18  N   UNL     1      -9.972   0.824 -32.699  1.00  0.00    -0.323 N 
HETATM   19  C   UNL     1     -10.672   1.577 -33.623  1.00  0.00     0.257 C 
HETATM   20  O   UNL     1     -10.191   2.227 -34.544  1.00  0.00    -0.267 OA
HETATM   21  H   UNL     1     -10.526   0.270 -32.059  1.00  0.00     0.169 HD
BRANCH  19  22
HETATM   22  C   UNL     1     -12.155   1.516 -33.512  1.00  0.00     0.044 A 
HETATM   23  C   UNL     1     -12.950   2.617 -33.100  1.00  0.00     0.008 A 
HETATM   24  C   UNL     1     -14.340   2.436 -32.980  1.00  0.00     0.045 A 
HETATM   25  C   UNL     1     -12.693   3.984 -32.786  1.00  0.00     0.032 A 
HETATM   26  N   UNL     1     -14.875   3.633 -32.534  1.00  0.00    -0.352 N 
HETATM   27  C   UNL     1     -14.949   1.209 -33.297  1.00  0.00     0.030 A 
HETATM   28  C   UNL     1     -13.879   4.572 -32.422  1.00  0.00     0.092 A 
HETATM   29  C   UNL     1     -14.153   0.151 -33.739  1.00  0.00     0.003 A 
HETATM   30  C   UNL     1     -12.777   0.298 -33.843  1.00  0.00     0.018 A 
BRANCH  26  31
HETATM   31  C   UNL     1     -16.279   3.932 -32.235  1.00  0.00     0.081 C 
HETATM   32  C   UNL     1     -16.456   5.191 -31.386  1.00  0.00     0.032 C 
HETATM   33  C   UNL     1     -17.016   2.728 -31.650  1.00  0.00     0.032 C 
ENDBRANCH  26  31
ENDBRANCH  19  22
ENDBRANCH   1  18
TORSDOF 3
ENDMDL
MODEL 5
REMARK VINA RESULT:      -9.3      4.751      8.357
REMARK  3 active torsions:
REMARK  status: ('A' for Active; 'I' for Inactive)
REMARK    1  A    between atoms: C_2  and  N_3 
REMARK    2  A    between atoms: C_6  and  C_7 
REMARK       I    between atoms: C_7  and  N_8 
REMARK    3  A    between atoms: N_8  and  C_9 
ROOT
HETATM    1  C   UNL     1      -7.055   1.563 -32.598  1.00  0.00     0.036 A 
HETATM    2  C   UNL     1      -6.680   0.348 -33.171  1.00  0.00     0.049 A 
HETATM    3  C   UNL     1      -5.367  -0.160 -33.033  1.00  0.00     0.061 A 
HETATM    4  C   UNL     1      -4.413   0.577 -32.319  1.00  0.00     0.050 A 
HETATM    5  N   UNL     1      -3.086   0.198 -32.063  1.00  0.00    -0.324 N 
HETATM    6  C   UNL     1      -2.567  -1.058 -31.912  1.00  0.00     0.245 C 
HETATM    7  O   UNL     1      -1.401  -1.158 -31.522  1.00  0.00    -0.271 OA
HETATM    8  C   UNL     1      -3.512  -2.250 -32.017  1.00  0.00     0.180 C 
HETATM    9  N   UNL     1      -4.155  -2.298 -33.319  1.00  0.00    -0.334 N 
HETATM   10  C   UNL     1      -5.078  -1.401 -33.802  1.00  0.00     0.256 C 
HETATM   11  O   UNL     1      -5.682  -1.600 -34.854  1.00  0.00    -0.267 OA
HETATM   12  C   UNL     1      -2.768  -3.588 -31.913  1.00  0.00     0.037 C 
HETATM   13  C   UNL     1      -3.574  -4.511 -32.815  1.00  0.00     0.022 C 
HETATM   14  C   UNL     1      -3.972  -3.590 -33.956  1.00  0.00     0.127 C 
HETATM   15  C   UNL     1      -4.779   1.830 -31.803  1.00  0.00     0.033 A 
HETATM   16  C   UNL     1      -6.088   2.307 -31.923  1.00  0.00     0.032 A 
HETATM   17  H   UNL     1      -2.432   0.911 -31.759  1.00  0.00     0.169 HD
ENDROOT
BRANCH   1  18
HETATM   18  N   UNL     1      -8.355   2.108 -32.658  1.00  0.00    -0.323 N 
HETATM   19  C   UNL     1      -8.767   3.239 -33.337  1.00  0.00     0.257 C 
HETATM   20  O   UNL     1      -8.070   3.950 -34.052  1.00  0.00    -0.267 OA
HETATM   21  H   UNL     1      -9.078   1.580 -32.186  1.00  0.00     0.169 HD
BRANCH  19  22
HETATM   22  C   UNL     1     -10.216   3.562 -33.231  1.00  0.00     0.044 A 
HETATM   23  C   UNL     1     -11.241   2.590 -33.376  1.00  0.00     0.008 A 
HETATM   24  C   UNL     1     -12.581   3.013 -33.308  1.00  0.00     0.045 A 
HETATM   25  C   UNL     1     -11.272   1.175 -33.548  1.00  0.00     0.032 A 
HETATM   26  N   UNL     1     -13.377   1.897 -33.513  1.00  0.00    -0.352 N 
HETATM   27  C   UNL     1     -12.915   4.356 -33.062  1.00  0.00     0.030 A 
HETATM   28  C   UNL     1     -12.583   0.784 -33.653  1.00  0.00     0.092 A 
HETATM   29  C   UNL     1     -11.891   5.287 -32.883  1.00  0.00     0.003 A 
HETATM   30  C   UNL     1     -10.561   4.899 -32.968  1.00  0.00     0.018 A 
BRANCH  26  31
HETATM   31  C   UNL     1     -14.840   1.835 -33.558  1.00  0.00     0.081 C 
HETATM   32  C   UNL     1     -15.485   1.896 -32.173  1.00  0.00     0.032 C 
HETATM   33  C   UNL     1     -15.346   0.652 -34.383  1.00  0.00     0.032 C 
ENDBRANCH  26  31
ENDBRANCH  19  22
ENDBRANCH   1  18
TORSDOF 3
ENDMDL
MODEL 6
REMARK VINA RESULT:      -9.2      2.354     10.025
REMARK  3 active torsions:
REMARK  status: ('A' for Active; 'I' for Inactive)
REMARK    1  A    between atoms: C_2  and  N_3 
REMARK    2  A    between atoms: C_6  and  C_7 
REMARK       I    between atoms: C_7  and  N_8 
REMARK    3  A    between atoms: N_8  and  C_9 
ROOT
HETATM    1  C   UNL     1      -3.740   2.813 -31.784  1.00  0.00     0.036 A 
HETATM    2  C   UNL     1      -5.001   3.039 -32.337  1.00  0.00     0.049 A 
HETATM    3  C   UNL     1      -5.755   1.988 -32.912  1.00  0.00     0.061 A 
HETATM    4  C   UNL     1      -5.221   0.693 -32.943  1.00  0.00     0.050 A 
HETATM    5  N   UNL     1      -5.852  -0.458 -33.442  1.00  0.00    -0.324 N 
HETATM    6  C   UNL     1      -7.186  -0.756 -33.479  1.00  0.00     0.245 C 
HETATM    7  O   UNL     1      -7.513  -1.899 -33.807  1.00  0.00    -0.271 OA
HETATM    8  C   UNL     1      -8.172   0.257 -32.906  1.00  0.00     0.180 C 
HETATM    9  N   UNL     1      -8.084   1.528 -33.604  1.00  0.00    -0.334 N 
HETATM   10  C   UNL     1      -7.022   2.399 -33.573  1.00  0.00     0.256 C 
HETATM   11  O   UNL     1      -7.092   3.521 -34.072  1.00  0.00    -0.267 OA
HETATM   12  C   UNL     1      -9.629  -0.183 -33.100  1.00  0.00     0.037 C 
HETATM   13  C   UNL     1     -10.372   1.133 -33.286  1.00  0.00     0.022 C 
HETATM   14  C   UNL     1      -9.383   1.957 -34.093  1.00  0.00     0.127 C 
HETATM   15  C   UNL     1      -3.925   0.487 -32.446  1.00  0.00     0.033 A 
HETATM   16  C   UNL     1      -3.203   1.528 -31.856  1.00  0.00     0.032 A 
HETATM   17  H   UNL     1      -5.282  -1.273 -33.637  1.00  0.00     0.169 HD
ENDROOT
BRANCH   1  18
HETATM   18  N   UNL     1      -2.953   3.802 -31.157  1.00  0.00    -0.323 N 
HETATM   19  C   UNL     1      -2.003   4.620 -31.738  1.00  0.00     0.257 C 
HETATM   20  O   UNL     1      -1.708   4.657 -32.927  1.00  0.00    -0.267 OA
HETATM   21  H   UNL     1      -3.143   3.961 -30.176  1.00  0.00     0.169 HD
BRANCH  19  22
HETATM   22  C   UNL     1      -1.341   5.589 -30.823  1.00  0.00     0.044 A 
HETATM   23  C   UNL     1      -1.936   6.815 -30.428  1.00  0.00     0.008 A 
HETATM   24  C   UNL     1      -1.201   7.683 -29.599  1.00  0.00     0.045 A 
HETATM   25  C   UNL     1      -3.203   7.434 -30.636  1.00  0.00     0.032 A 
HETATM   26  N   UNL     1      -1.977   8.811 -29.390  1.00  0.00    -0.352 N 
HETATM   27  C   UNL     1       0.079   7.338 -29.130  1.00  0.00     0.030 A 
HETATM   28  C   UNL     1      -3.192   8.658 -30.014  1.00  0.00     0.092 A 
HETATM   29  C   UNL     1       0.628   6.110 -29.498  1.00  0.00     0.003 A 
HETATM   30  C   UNL     1      -0.067   5.247 -30.334  1.00  0.00     0.018 A 
BRANCH  26  31
HETATM   31  C   UNL     1      -1.633  10.005 -28.614  1.00  0.00     0.081 C 
HETATM   32  C   UNL     1      -1.951   9.865 -27.125  1.00  0.00     0.032 C 
HETATM   33  C   UNL     1      -2.223  11.279 -29.217  1.00  0.00     0.032 C 
ENDBRANCH  26  31
ENDBRANCH  19  22
ENDBRANCH   1  18
TORSDOF 3
ENDMDL
MODEL 7
REMARK VINA RESULT:      -9.1      2.408     10.038
REMARK  3 active torsions:
REMARK  status: ('A' for Active; 'I' for Inactive)
REMARK    1  A    between atoms: C_2  and  N_3 
REMARK    2  A    between atoms: C_6  and  C_7 
REMARK       I    between atoms: C_7  and  N_8 
REMARK    3  A    between atoms: N_8  and  C_9 
ROOT
HETATM    1  C   UNL     1      -3.940   3.966 -31.467  1.00  0.00     0.036 A 
HETATM    2  C   UNL     1      -5.169   3.931 -32.125  1.00  0.00     0.049 A 
HETATM    3  C   UNL     1      -5.676   2.732 -32.680  1.00  0.00     0.061 A 
HETATM    4  C   UNL     1      -4.923   1.554 -32.583  1.00  0.00     0.050 A 
HETATM    5  N   UNL     1      -5.298   0.283 -33.046  1.00  0.00    -0.324 N 
HETATM    6  C   UNL     1      -6.551  -0.252 -33.160  1.00  0.00     0.245 C 
HETATM    7  O   UNL     1      -6.643  -1.452 -33.432  1.00  0.00    -0.271 OA
HETATM    8  C   UNL     1      -7.744   0.596 -32.732  1.00  0.00     0.180 C 
HETATM    9  N   UNL     1      -7.822   1.822 -33.509  1.00  0.00    -0.334 N 
HETATM   10  C   UNL     1      -6.935   2.871 -33.460  1.00  0.00     0.256 C 
HETATM   11  O   UNL     1      -7.159   3.932 -34.039  1.00  0.00    -0.267 OA
HETATM   12  C   UNL     1      -9.080  -0.109 -33.002  1.00  0.00     0.037 C 
HETATM   13  C   UNL     1     -10.024   1.039 -33.333  1.00  0.00     0.022 C 
HETATM   14  C   UNL     1      -9.130   1.983 -34.120  1.00  0.00     0.127 C 
HETATM   15  C   UNL     1      -3.658   1.613 -31.979  1.00  0.00     0.033 A 
HETATM   16  C   UNL     1      -3.182   2.798 -31.411  1.00  0.00     0.032 A 
HETATM   17  H   UNL     1      -4.579  -0.426 -33.142  1.00  0.00     0.169 HD
ENDROOT
BRANCH   1  18
HETATM   18  N   UNL     1      -3.395   5.114 -30.853  1.00  0.00    -0.323 N 
HETATM   19  C   UNL     1      -2.330   5.880 -31.289  1.00  0.00     0.257 C 
HETATM   20  O   UNL     1      -1.694   5.717 -32.324  1.00  0.00    -0.267 OA
HETATM   21  H   UNL     1      -3.871   5.439 -30.022  1.00  0.00     0.169 HD
BRANCH  19  22
HETATM   22  C   UNL     1      -1.989   7.052 -30.438  1.00  0.00     0.044 A 
HETATM   23  C   UNL     1      -1.008   7.010 -29.413  1.00  0.00     0.008 A 
HETATM   24  C   UNL     1      -0.801   8.163 -28.633  1.00  0.00     0.045 A 
HETATM   25  C   UNL     1      -0.073   6.038 -28.952  1.00  0.00     0.032 A 
HETATM   26  N   UNL     1       0.169   7.856 -27.692  1.00  0.00    -0.352 N 
HETATM   27  C   UNL     1      -1.512   9.351 -28.878  1.00  0.00     0.030 A 
HETATM   28  C   UNL     1       0.613   6.571 -27.889  1.00  0.00     0.092 A 
HETATM   29  C   UNL     1      -2.443   9.382 -29.917  1.00  0.00     0.003 A 
HETATM   30  C   UNL     1      -2.682   8.251 -30.685  1.00  0.00     0.018 A 
BRANCH  26  31
HETATM   31  C   UNL     1       0.704   8.725 -26.640  1.00  0.00     0.081 C 
HETATM   32  C   UNL     1       2.064   8.262 -26.116  1.00  0.00     0.032 C 
HETATM   33  C   UNL     1      -0.302   8.962 -25.515  1.00  0.00     0.032 C 
ENDBRANCH  26  31
ENDBRANCH  19  22
ENDBRANCH   1  18
TORSDOF 3
ENDMDL
MODEL 8
REMARK VINA RESULT:      -9.0      1.847      3.048
REMARK  3 active torsions:
REMARK  status: ('A' for Active; 'I' for Inactive)
REMARK    1  A    between atoms: C_2  and  N_3 
REMARK    2  A    between atoms: C_6  and  C_7 
REMARK       I    between atoms: C_7  and  N_8 
REMARK    3  A    between atoms: N_8  and  C_9 
ROOT
HETATM    1  C   UNL     1      -4.074   3.969 -31.925  1.00  0.00     0.036 A 
HETATM    2  C   UNL     1      -4.895   4.956 -31.379  1.00  0.00     0.049 A 
HETATM    3  C   UNL     1      -4.355   6.114 -30.772  1.00  0.00     0.061 A 
HETATM    4  C   UNL     1      -2.965   6.272 -30.701  1.00  0.00     0.050 A 
HETATM    5  N   UNL     1      -2.275   7.372 -30.167  1.00  0.00    -0.324 N 
HETATM    6  C   UNL     1      -2.659   8.684 -30.121  1.00  0.00     0.245 C 
HETATM    7  O   UNL     1      -1.825   9.517 -29.757  1.00  0.00    -0.271 OA
HETATM    8  C   UNL     1      -4.007   9.067 -30.723  1.00  0.00     0.180 C 
HETATM    9  N   UNL     1      -5.096   8.365 -30.064  1.00  0.00    -0.334 N 
HETATM   10  C   UNL     1      -5.344   7.015 -30.122  1.00  0.00     0.256 C 
HETATM   11  O   UNL     1      -6.373   6.528 -29.657  1.00  0.00    -0.267 OA
HETATM   12  C   UNL     1      -4.331  10.552 -30.515  1.00  0.00     0.037 C 
HETATM   13  C   UNL     1      -5.846  10.565 -30.368  1.00  0.00     0.022 C 
HETATM   14  C   UNL     1      -6.112   9.289 -29.588  1.00  0.00     0.127 C 
HETATM   15  C   UNL     1      -2.145   5.244 -31.193  1.00  0.00     0.033 A 
HETATM   16  C   UNL     1      -2.692   4.118 -31.815  1.00  0.00     0.032 A 
HETATM   17  H   UNL     1      -1.291   7.263 -29.948  1.00  0.00     0.169 HD
ENDROOT
BRANCH   1  18
HETATM   18  N   UNL     1      -4.543   2.813 -32.583  1.00  0.00    -0.323 N 
HETATM   19  C   UNL     1      -5.335   1.807 -32.061  1.00  0.00     0.257 C 
HETATM   20  O   UNL     1      -5.811   1.770 -30.932  1.00  0.00    -0.267 OA
HETATM   21  H   UNL     1      -4.309   2.737 -33.564  1.00  0.00     0.169 HD
BRANCH  19  22
HETATM   22  C   UNL     1      -5.690   0.712 -33.005  1.00  0.00     0.044 A 
HETATM   23  C   UNL     1      -5.057  -0.558 -32.995  1.00  0.00     0.008 A 
HETATM   24  C   UNL     1      -5.434  -1.505 -33.965  1.00  0.00     0.045 A 
HETATM   25  C   UNL     1      -4.086  -1.194 -32.167  1.00  0.00     0.032 A 
HETATM   26  N   UNL     1      -4.655  -2.633 -33.766  1.00  0.00    -0.352 N 
HETATM   27  C   UNL     1      -6.444  -1.229 -34.905  1.00  0.00     0.030 A 
HETATM   28  C   UNL     1      -3.843  -2.446 -32.674  1.00  0.00     0.092 A 
HETATM   29  C   UNL     1      -7.080   0.012 -34.871  1.00  0.00     0.003 A 
HETATM   30  C   UNL     1      -6.710   0.971 -33.938  1.00  0.00     0.018 A 
BRANCH  26  31
HETATM   31  C   UNL     1      -4.663  -3.876 -34.542  1.00  0.00     0.081 C 
HETATM   32  C   UNL     1      -6.068  -4.440 -34.757  1.00  0.00     0.032 C 
HETATM   33  C   UNL     1      -3.699  -4.919 -33.977  1.00  0.00     0.032 C 
ENDBRANCH  26  31
ENDBRANCH  19  22
ENDBRANCH   1  18
TORSDOF 3
ENDMDL
MODEL 9
REMARK VINA RESULT:      -8.9      2.202      9.876
REMARK  3 active torsions:
REMARK  status: ('A' for Active; 'I' for Inactive)
REMARK    1  A    between atoms: C_2  and  N_3 
REMARK    2  A    between atoms: C_6  and  C_7 
REMARK       I    between atoms: C_7  and  N_8 
REMARK    3  A    between atoms: N_8  and  C_9 
ROOT
HETATM    1  C   UNL     1      -4.590   4.049 -31.081  1.00  0.00     0.036 A 
HETATM    2  C   UNL     1      -4.592   2.713 -31.485  1.00  0.00     0.049 A 
HETATM    3  C   UNL     1      -5.779   2.073 -31.913  1.00  0.00     0.061 A 
HETATM    4  C   UNL     1      -6.985   2.786 -31.918  1.00  0.00     0.050 A 
HETATM    5  N   UNL     1      -8.235   2.310 -32.344  1.00  0.00    -0.324 N 
HETATM    6  C   UNL     1      -8.515   1.377 -33.304  1.00  0.00     0.245 C 
HETATM    7  O   UNL     1      -9.692   1.229 -33.639  1.00  0.00    -0.271 OA
HETATM    8  C   UNL     1      -7.351   0.737 -34.054  1.00  0.00     0.180 C 
HETATM    9  N   UNL     1      -6.460   0.038 -33.143  1.00  0.00    -0.334 N 
HETATM   10  C   UNL     1      -5.654   0.617 -32.193  1.00  0.00     0.256 C 
HETATM   11  O   UNL     1      -4.821  -0.036 -31.568  1.00  0.00    -0.267 OA
HETATM   12  C   UNL     1      -7.822  -0.348 -35.031  1.00  0.00     0.037 C 
HETATM   13  C   UNL     1      -6.682  -1.357 -35.013  1.00  0.00     0.022 C 
HETATM   14  C   UNL     1      -6.250  -1.339 -33.557  1.00  0.00     0.127 C 
HETATM   15  C   UNL     1      -6.987   4.108 -31.446  1.00  0.00     0.033 A 
HETATM   16  C   UNL     1      -5.802   4.737 -31.053  1.00  0.00     0.032 A 
HETATM   17  H   UNL     1      -9.065   2.824 -32.071  1.00  0.00     0.169 HD
ENDROOT
BRANCH   1  18
HETATM   18  N   UNL     1      -3.439   4.762 -30.685  1.00  0.00    -0.323 N 
HETATM   19  C   UNL     1      -2.919   5.909 -31.254  1.00  0.00     0.257 C 
HETATM   20  O   UNL     1      -3.403   6.541 -32.186  1.00  0.00    -0.267 OA
HETATM   21  H   UNL     1      -2.967   4.416 -29.860  1.00  0.00     0.169 HD
BRANCH  19  22
HETATM   22  C   UNL     1      -1.693   6.451 -30.605  1.00  0.00     0.044 A 
HETATM   23  C   UNL     1      -1.692   7.033 -29.311  1.00  0.00     0.008 A 
HETATM   24  C   UNL     1      -0.486   7.561 -28.813  1.00  0.00     0.045 A 
HETATM   25  C   UNL     1      -2.663   7.206 -28.281  1.00  0.00     0.032 A 
HETATM   26  N   UNL     1      -0.755   8.097 -27.564  1.00  0.00    -0.352 N 
HETATM   27  C   UNL     1       0.709   7.482 -29.551  1.00  0.00     0.030 A 
HETATM   28  C   UNL     1      -2.072   7.877 -27.240  1.00  0.00     0.092 A 
HETATM   29  C   UNL     1       0.692   6.869 -30.804  1.00  0.00     0.003 A 
HETATM   30  C   UNL     1      -0.490   6.362 -31.327  1.00  0.00     0.018 A 
BRANCH  26  31
HETATM   31  C   UNL     1       0.177   8.781 -26.662  1.00  0.00     0.081 C 
HETATM   32  C   UNL     1       1.203   7.838 -26.033  1.00  0.00     0.032 C 
HETATM   33  C   UNL     1      -0.545   9.633 -25.619  1.00  0.00     0.032 C 
ENDBRANCH  26  31
ENDBRANCH  19  22
ENDBRANCH   1  18
TORSDOF 3
ENDMDL
MODEL 10
REMARK VINA RESULT:      -8.7      2.356      3.839
REMARK  3 active torsions:
REMARK  status: ('A' for Active; 'I' for Inactive)
REMARK    1  A    between atoms: C_2  and  N_3 
REMARK    2  A    between atoms: C_6  and  C_7 
REMARK       I    between atoms: C_7  and  N_8 
REMARK    3  A    between atoms: N_8  and  C_9 
ROOT
HETATM    1  C   UNL     1      -4.837   5.157 -32.354  1.00  0.00     0.036 A 
HETATM    2  C   UNL     1      -3.528   4.910 -31.939  1.00  0.00     0.049 A 
HETATM    3  C   UNL     1      -2.751   5.912 -31.310  1.00  0.00     0.061 A 
HETATM    4  C   UNL     1      -3.298   7.186 -31.111  1.00  0.00     0.050 A 
HETATM    5  N   UNL     1      -2.676   8.272 -30.475  1.00  0.00    -0.324 N 
HETATM    6  C   UNL     1      -1.748   8.260 -29.471  1.00  0.00     0.245 C 
HETATM    7  O   UNL     1      -1.458   9.335 -28.940  1.00  0.00    -0.271 OA
HETATM    8  C   UNL     1      -1.294   6.913 -28.919  1.00  0.00     0.180 C 
HETATM    9  N   UNL     1      -0.688   6.097 -29.958  1.00  0.00    -0.334 N 
HETATM   10  C   UNL     1      -1.335   5.546 -31.038  1.00  0.00     0.256 C 
HETATM   11  O   UNL     1      -0.777   4.745 -31.786  1.00  0.00    -0.267 OA
HETATM   12  C   UNL     1      -0.190   7.063 -27.864  1.00  0.00     0.037 C 
HETATM   13  C   UNL     1       0.659   5.815 -28.061  1.00  0.00     0.022 C 
HETATM   14  C   UNL     1       0.634   5.636 -29.570  1.00  0.00     0.127 C 
HETATM   15  C   UNL     1      -4.591   7.446 -31.591  1.00  0.00     0.033 A 
HETATM   16  C   UNL     1      -5.357   6.439 -32.186  1.00  0.00     0.032 A 
HETATM   17  H   UNL     1      -3.066   9.198 -30.611  1.00  0.00     0.169 HD
ENDROOT
BRANCH   1  18
HETATM   18  N   UNL     1      -5.682   4.195 -32.946  1.00  0.00    -0.323 N 
HETATM   19  C   UNL     1      -6.209   3.059 -32.361  1.00  0.00     0.257 C 
HETATM   20  O   UNL     1      -6.068   2.711 -31.194  1.00  0.00    -0.267 OA
HETATM   21  H   UNL     1      -5.971   4.386 -33.897  1.00  0.00     0.169 HD
BRANCH  19  22
HETATM   22  C   UNL     1      -7.090   2.235 -33.234  1.00  0.00     0.044 A 
HETATM   23  C   UNL     1      -8.495   2.414 -33.310  1.00  0.00     0.008 A 
HETATM   24  C   UNL     1      -9.240   1.546 -34.129  1.00  0.00     0.045 A 
HETATM   25  C   UNL     1      -9.425   3.344 -32.758  1.00  0.00     0.032 A 
HETATM   26  N   UNL     1     -10.573   1.901 -34.003  1.00  0.00    -0.352 N 
HETATM   27  C   UNL     1      -8.616   0.545 -34.895  1.00  0.00     0.030 A 
HETATM   28  C   UNL     1     -10.684   2.993 -33.177  1.00  0.00     0.092 A 
HETATM   29  C   UNL     1      -7.228   0.413 -34.835  1.00  0.00     0.003 A 
HETATM   30  C   UNL     1      -6.473   1.242 -34.016  1.00  0.00     0.018 A 
BRANCH  26  31
HETATM   31  C   UNL     1     -11.733   1.273 -34.643  1.00  0.00     0.081 C 
HETATM   32  C   UNL     1     -12.490   2.221 -35.574  1.00  0.00     0.032 C 
HETATM   33  C   UNL     1     -12.655   0.592 -33.632  1.00  0.00     0.032 C 
ENDBRANCH  26  31
ENDBRANCH  19  22
ENDBRANCH   1  18
TORSDOF 3
ENDMDL
