MODEL 1
REMARK VINA RESULT:      -8.7      0.000      0.000
REMARK  7 active torsions:
REMARK  status: ('A' for Active; 'I' for Inactive)
REMARK    1  A    between atoms: C_2  and  C_3 
REMARK    2  A    between atoms: C_6  and  C_7 
REMARK    3  A    between atoms: C_7  and  N_8 
REMARK    4  A    between atoms: C_7  and  C_25 
REMARK    5  A    between atoms: N_8  and  C_11 
REMARK    6  A    between atoms: C_11  and  C_12 
REMARK       I    between atoms: C_12  and  N_13 
REMARK    7  A    between atoms: N_13  and  C_14 
ROOT
HETATM    1  N   UNL     1      -6.469   3.608 -31.647  1.00  0.00    -0.054 N 
HETATM    2  H   UNL     1      -6.581   2.698 -31.171  1.00  0.00     0.278 HD
HETATM    3  H   UNL     1      -5.721   4.070 -31.121  1.00  0.00     0.278 HD
ENDROOT
BRANCH   1   4
HETATM    4  C   UNL     1      -6.049   3.376 -33.061  1.00  0.00     0.259 C 
BRANCH   4   5
HETATM    5  C   UNL     1      -6.246   1.928 -33.479  1.00  0.00    -0.023 A 
HETATM    6  C   UNL     1      -5.925   0.902 -32.573  1.00  0.00     0.010 A 
HETATM    7  C   UNL     1      -6.124  -0.439 -32.908  1.00  0.00     0.007 A 
HETATM    8  C   UNL     1      -6.651  -0.789 -34.154  1.00  0.00    -0.059 A 
HETATM    9  C   UNL     1      -6.977   0.224 -35.060  1.00  0.00     0.007 A 
HETATM   10  C   UNL     1      -6.775   1.567 -34.730  1.00  0.00     0.010 A 
BRANCH   8  11
HETATM   11  C   UNL     1      -6.909  -2.236 -34.495  1.00  0.00     0.034 C 
HETATM   12  C   UNL     1      -5.626  -2.967 -34.864  1.00  0.00     0.010 C 
ENDBRANCH   8  11
ENDBRANCH   4   5
BRANCH   4  13
HETATM   13  C   UNL     1      -4.645   3.871 -33.312  1.00  0.00     0.017 A 
HETATM   14  S   UNL     1      -4.367   4.987 -34.592  1.00  0.00    -0.104 SA
HETATM   15  C   UNL     1      -2.697   5.073 -34.249  1.00  0.00     0.050 A 
HETATM   16  C   UNL     1      -2.348   4.280 -33.180  1.00  0.00     0.008 A 
HETATM   17  C   UNL     1      -3.469   3.586 -32.638  1.00  0.00     0.017 A 
ENDBRANCH   4  13
ENDBRANCH   1   4
BRANCH   1  18
HETATM   18  C   UNL     1      -7.753   4.374 -31.460  1.00  0.00     0.336 C 
BRANCH  18  19
HETATM   19  C   UNL     1      -8.942   3.414 -31.487  1.00  0.00     0.248 C 
HETATM   20  N   UNL     1      -9.468   3.202 -32.745  1.00  0.00    -0.326 N 
HETATM   21  H   UNL     1      -9.073   3.711 -33.529  1.00  0.00     0.169 HD
HETATM   22  O   UNL     1      -9.319   2.934 -30.420  1.00  0.00    -0.271 OA
BRANCH  20  23
HETATM   23  C   UNL     1     -10.544   2.348 -33.084  1.00  0.00     0.037 A 
HETATM   24  C   UNL     1     -11.809   2.808 -33.469  1.00  0.00     0.061 A 
HETATM   25  C   UNL     1     -12.761   1.854 -33.761  1.00  0.00     0.065 A 
HETATM   26  C   UNL     1     -12.501   0.489 -33.687  1.00  0.00     0.063 A 
HETATM   27  N   UNL     1     -14.084   2.015 -34.157  1.00  0.00    -0.306 N 
HETATM   28  N   UNL     1     -13.660  -0.190 -34.039  1.00  0.00    -0.307 N 
HETATM   29  C   UNL     1     -11.275   0.001 -33.316  1.00  0.00     0.034 A 
HETATM   30  C   UNL     1     -14.660   0.749 -34.334  1.00  0.00     0.325 A 
HETATM   31  H   UNL     1     -13.805  -1.186 -34.085  1.00  0.00     0.170 HD
HETATM   32  O   UNL     1     -15.804   0.513 -34.677  1.00  0.00    -0.247 OA
HETATM   33  C   UNL     1     -10.289   0.950 -33.009  1.00  0.00     0.032 A 
HETATM   34  H   UNL     1     -14.587   2.876 -34.301  1.00  0.00     0.170 HD
ENDBRANCH  20  23
ENDBRANCH  18  19
ENDBRANCH   1  18
TORSDOF 7
ENDMDL
MODEL 2
REMARK VINA RESULT:      -8.4      2.537      3.177
REMARK  7 active torsions:
REMARK  status: ('A' for Active; 'I' for Inactive)
REMARK    1  A    between atoms: C_2  and  C_3 
REMARK    2  A    between atoms: C_6  and  C_7 
REMARK    3  A    between atoms: C_7  and  N_8 
REMARK    4  A    between atoms: C_7  and  C_25 
REMARK    5  A    between atoms: N_8  and  C_11 
REMARK    6  A    between atoms: C_11  and  C_12 
REMARK       I    between atoms: C_12  and  N_13 
REMARK    7  A    between atoms: N_13  and  C_14 
ROOT
HETATM    1  N   UNL     1      -7.891   1.383 -34.055  1.00  0.00    -0.054 N 
HETATM    2  H   UNL     1      -8.088   1.032 -35.006  1.00  0.00     0.278 HD
HETATM    3  H   UNL     1      -8.537   0.855 -33.459  1.00  0.00     0.278 HD
ENDROOT
BRANCH   1   4
HETATM    4  C   UNL     1      -6.475   1.072 -33.697  1.00  0.00     0.259 C 
BRANCH   4   5
HETATM    5  C   UNL     1      -6.127  -0.380 -33.981  1.00  0.00    -0.023 A 
HETATM    6  C   UNL     1      -4.847  -0.857 -33.648  1.00  0.00     0.010 A 
HETATM    7  C   UNL     1      -4.500  -2.193 -33.863  1.00  0.00     0.007 A 
HETATM    8  C   UNL     1      -5.424  -3.086 -34.411  1.00  0.00    -0.059 A 
HETATM    9  C   UNL     1      -6.701  -2.623 -34.741  1.00  0.00     0.007 A 
HETATM   10  C   UNL     1      -7.050  -1.285 -34.532  1.00  0.00     0.010 A 
BRANCH   8  11
HETATM   11  C   UNL     1      -5.064  -4.540 -34.597  1.00  0.00     0.034 C 
HETATM   12  C   UNL     1      -3.883  -4.945 -33.726  1.00  0.00     0.010 C 
ENDBRANCH   8  11
ENDBRANCH   4   5
BRANCH   4  13
HETATM   13  C   UNL     1      -6.157   1.483 -32.280  1.00  0.00     0.017 A 
HETATM   14  S   UNL     1      -4.978   2.707 -32.008  1.00  0.00    -0.104 SA
HETATM   15  C   UNL     1      -5.184   2.629 -30.316  1.00  0.00     0.050 A 
HETATM   16  C   UNL     1      -6.133   1.700 -29.954  1.00  0.00     0.008 A 
HETATM   17  C   UNL     1      -6.695   1.039 -31.084  1.00  0.00     0.017 A 
ENDBRANCH   4  13
ENDBRANCH   1   4
BRANCH   1  18
HETATM   18  C   UNL     1      -8.272   2.841 -34.026  1.00  0.00     0.336 C 
BRANCH  18  19
HETATM   19  C   UNL     1      -9.780   2.990 -34.215  1.00  0.00     0.248 C 
HETATM   20  N   UNL     1     -10.532   2.077 -33.504  1.00  0.00    -0.326 N 
HETATM   21  H   UNL     1     -10.049   1.370 -32.959  1.00  0.00     0.169 HD
HETATM   22  O   UNL     1     -10.182   3.878 -34.965  1.00  0.00    -0.271 OA
BRANCH  20  23
HETATM   23  C   UNL     1     -11.944   1.989 -33.457  1.00  0.00     0.037 A 
HETATM   24  C   UNL     1     -12.736   2.700 -32.547  1.00  0.00     0.061 A 
HETATM   25  C   UNL     1     -14.098   2.504 -32.617  1.00  0.00     0.065 A 
HETATM   26  C   UNL     1     -14.687   1.646 -33.542  1.00  0.00     0.063 A 
HETATM   27  N   UNL     1     -15.114   3.062 -31.847  1.00  0.00    -0.306 N 
HETATM   28  N   UNL     1     -16.061   1.677 -33.345  1.00  0.00    -0.307 N 
HETATM   29  C   UNL     1     -13.944   0.936 -34.449  1.00  0.00     0.034 A 
HETATM   30  C   UNL     1     -16.345   2.555 -32.289  1.00  0.00     0.325 A 
HETATM   31  H   UNL     1     -16.770   1.169 -33.849  1.00  0.00     0.170 HD
HETATM   32  O   UNL     1     -17.444   2.826 -31.841  1.00  0.00    -0.247 OA
HETATM   33  C   UNL     1     -12.554   1.113 -34.397  1.00  0.00     0.032 A 
HETATM   34  H   UNL     1     -15.027   3.719 -31.089  1.00  0.00     0.170 HD
ENDBRANCH  20  23
ENDBRANCH  18  19
ENDBRANCH   1  18
TORSDOF 7
ENDMDL
MODEL 3
REMARK VINA RESULT:      -8.4      4.558      8.333
REMARK  7 active torsions:
REMARK  status: ('A' for Active; 'I' for Inactive)
REMARK    1  A    between atoms: C_2  and  C_3 
REMARK    2  A    between atoms: C_6  and  C_7 
REMARK    3  A    between atoms: C_7  and  N_8 
REMARK    4  A    between atoms: C_7  and  C_25 
REMARK    5  A    between atoms: N_8  and  C_11 
REMARK    6  A    between atoms: C_11  and  C_12 
REMARK       I    between atoms: C_12  and  N_13 
REMARK    7  A    between atoms: N_13  and  C_14 
ROOT
HETATM    1  N   UNL     1      -4.853  -1.031 -32.439  1.00  0.00    -0.054 N 
HETATM    2  H   UNL     1      -5.297  -0.338 -31.814  1.00  0.00     0.278 HD
HETATM    3  H   UNL     1      -4.943  -1.915 -31.931  1.00  0.00     0.278 HD
ENDROOT
BRANCH   1   4
HETATM    4  C   UNL     1      -5.607  -1.087 -33.727  1.00  0.00     0.259 C 
BRANCH   4   5
HETATM    5  C   UNL     1      -6.939  -0.361 -33.633  1.00  0.00    -0.023 A 
HETATM    6  C   UNL     1      -7.499  -0.113 -32.368  1.00  0.00     0.010 A 
HETATM    7  C   UNL     1      -8.705   0.580 -32.240  1.00  0.00     0.007 A 
HETATM    8  C   UNL     1      -9.380   1.045 -33.372  1.00  0.00    -0.059 A 
HETATM    9  C   UNL     1      -8.829   0.807 -34.634  1.00  0.00     0.007 A 
HETATM   10  C   UNL     1      -7.625   0.109 -34.766  1.00  0.00     0.010 A 
BRANCH   8  11
HETATM   11  C   UNL     1     -10.658   1.835 -33.228  1.00  0.00     0.034 C 
HETATM   12  C   UNL     1     -11.816   1.172 -33.960  1.00  0.00     0.010 C 
ENDBRANCH   8  11
ENDBRANCH   4   5
BRANCH   4  13
HETATM   13  C   UNL     1      -5.747  -2.504 -34.227  1.00  0.00     0.017 A 
HETATM   14  S   UNL     1      -4.360  -3.522 -34.256  1.00  0.00    -0.104 SA
HETATM   15  C   UNL     1      -5.253  -4.841 -34.867  1.00  0.00     0.050 A 
HETATM   16  C   UNL     1      -6.581  -4.528 -35.042  1.00  0.00     0.008 A 
HETATM   17  C   UNL     1      -6.869  -3.182 -34.673  1.00  0.00     0.017 A 
ENDBRANCH   4  13
ENDBRANCH   1   4
BRANCH   1  18
HETATM   18  C   UNL     1      -3.394  -0.668 -32.547  1.00  0.00     0.336 C 
BRANCH  18  19
HETATM   19  C   UNL     1      -3.154   0.713 -31.938  1.00  0.00     0.248 C 
HETATM   20  N   UNL     1      -3.571   1.761 -32.733  1.00  0.00    -0.326 N 
HETATM   21  H   UNL     1      -3.954   1.553 -33.649  1.00  0.00     0.169 HD
HETATM   22  O   UNL     1      -2.621   0.770 -30.831  1.00  0.00    -0.271 OA
BRANCH  20  23
HETATM   23  C   UNL     1      -3.507   3.141 -32.424  1.00  0.00     0.037 A 
HETATM   24  C   UNL     1      -2.617   4.033 -33.036  1.00  0.00     0.061 A 
HETATM   25  C   UNL     1      -2.666   5.347 -32.623  1.00  0.00     0.065 A 
HETATM   26  C   UNL     1      -3.552   5.795 -31.648  1.00  0.00     0.063 A 
HETATM   27  N   UNL     1      -1.909   6.436 -33.043  1.00  0.00    -0.306 N 
HETATM   28  N   UNL     1      -3.344   7.156 -31.468  1.00  0.00    -0.307 N 
HETATM   29  C   UNL     1      -4.439   4.952 -31.029  1.00  0.00     0.034 A 
HETATM   30  C   UNL     1      -2.319   7.572 -32.330  1.00  0.00     0.325 A 
HETATM   31  H   UNL     1      -3.821   7.777 -30.834  1.00  0.00     0.170 HD
HETATM   32  O   UNL     1      -1.871   8.698 -32.441  1.00  0.00    -0.247 OA
HETATM   33  C   UNL     1      -4.407   3.607 -31.427  1.00  0.00     0.032 A 
HETATM   34  H   UNL     1      -1.177   6.452 -33.734  1.00  0.00     0.170 HD
ENDBRANCH  20  23
ENDBRANCH  18  19
ENDBRANCH   1  18
TORSDOF 7
ENDMDL
MODEL 4
REMARK VINA RESULT:      -8.3      2.998      7.650
REMARK  7 active torsions:
REMARK  status: ('A' for Active; 'I' for Inactive)
REMARK    1  A    between atoms: C_2  and  C_3 
REMARK    2  A    between atoms: C_6  and  C_7 
REMARK    3  A    between atoms: C_7  and  N_8 
REMARK    4  A    between atoms: C_7  and  C_25 
REMARK    5  A    between atoms: N_8  and  C_11 
REMARK    6  A    between atoms: C_11  and  C_12 
REMARK       I    between atoms: C_12  and  N_13 
REMARK    7  A    between atoms: N_13  and  C_14 
ROOT
HETATM    1  N   UNL     1     -10.246   3.057 -34.786  1.00  0.00    -0.054 N 
HETATM    2  H   UNL     1      -9.465   2.807 -35.414  1.00  0.00     0.278 HD
HETATM    3  H   UNL     1     -11.064   3.067 -35.402  1.00  0.00     0.278 HD
ENDROOT
BRANCH   1   4
HETATM    4  C   UNL     1     -10.391   2.004 -33.737  1.00  0.00     0.259 C 
BRANCH   4   5
HETATM    5  C   UNL     1      -9.218   1.039 -33.739  1.00  0.00    -0.023 A 
HETATM    6  C   UNL     1      -8.639   0.664 -34.964  1.00  0.00     0.010 A 
HETATM    7  C   UNL     1      -7.538  -0.195 -35.005  1.00  0.00     0.007 A 
HETATM    8  C   UNL     1      -6.985  -0.696 -33.824  1.00  0.00    -0.059 A 
HETATM    9  C   UNL     1      -7.550  -0.326 -32.600  1.00  0.00     0.007 A 
HETATM   10  C   UNL     1      -8.655   0.529 -32.556  1.00  0.00     0.010 A 
BRANCH   8  11
HETATM   11  C   UNL     1      -5.766  -1.585 -33.868  1.00  0.00     0.034 C 
HETATM   12  C   UNL     1      -5.946  -2.742 -34.840  1.00  0.00     0.010 C 
ENDBRANCH   8  11
ENDBRANCH   4   5
BRANCH   4  13
HETATM   13  C   UNL     1     -11.725   1.303 -33.835  1.00  0.00     0.017 A 
HETATM   14  S   UNL     1     -13.042   2.113 -34.590  1.00  0.00    -0.104 SA
HETATM   15  C   UNL     1     -14.087   0.785 -34.352  1.00  0.00     0.050 A 
HETATM   16  C   UNL     1     -13.456  -0.262 -33.719  1.00  0.00     0.008 A 
HETATM   17  C   UNL     1     -12.094   0.035 -33.421  1.00  0.00     0.017 A 
ENDBRANCH   4  13
ENDBRANCH   1   4
BRANCH   1  18
HETATM   18  C   UNL     1      -9.989   4.455 -34.282  1.00  0.00     0.336 C 
BRANCH  18  19
HETATM   19  C   UNL     1      -8.697   4.486 -33.467  1.00  0.00     0.248 C 
HETATM   20  N   UNL     1      -7.570   4.133 -34.180  1.00  0.00    -0.326 N 
HETATM   21  H   UNL     1      -7.677   3.848 -35.148  1.00  0.00     0.169 HD
HETATM   22  O   UNL     1      -8.772   4.805 -32.282  1.00  0.00    -0.271 OA
BRANCH  20  23
HETATM   23  C   UNL     1      -6.237   4.099 -33.704  1.00  0.00     0.037 A 
HETATM   24  C   UNL     1      -5.327   5.150 -33.869  1.00  0.00     0.061 A 
HETATM   25  C   UNL     1      -4.060   4.966 -33.358  1.00  0.00     0.065 A 
HETATM   26  C   UNL     1      -3.677   3.800 -32.701  1.00  0.00     0.063 A 
HETATM   27  N   UNL     1      -2.963   5.822 -33.380  1.00  0.00    -0.306 N 
HETATM   28  N   UNL     1      -2.350   3.937 -32.317  1.00  0.00    -0.307 N 
HETATM   29  C   UNL     1      -4.542   2.752 -32.519  1.00  0.00     0.034 A 
HETATM   30  C   UNL     1      -1.888   5.194 -32.735  1.00  0.00     0.325 A 
HETATM   31  H   UNL     1      -1.776   3.272 -31.823  1.00  0.00     0.170 HD
HETATM   32  O   UNL     1      -0.772   5.652 -32.571  1.00  0.00    -0.247 OA
HETATM   33  C   UNL     1      -5.837   2.910 -33.033  1.00  0.00     0.032 A 
HETATM   34  H   UNL     1      -2.904   6.743 -33.783  1.00  0.00     0.170 HD
ENDBRANCH  20  23
ENDBRANCH  18  19
ENDBRANCH   1  18
TORSDOF 7
ENDMDL
MODEL 5
REMARK VINA RESULT:      -8.2      4.367      8.832
REMARK  7 active torsions:
REMARK  status: ('A' for Active; 'I' for Inactive)
REMARK    1  A    between atoms: C_2  and  C_3 
REMARK    2  A    between atoms: C_6  and  C_7 
REMARK    3  A    between atoms: C_7  and  N_8 
REMARK    4  A    between atoms: C_7  and  C_25 
REMARK    5  A    between atoms: N_8  and  C_11 
REMARK    6  A    between atoms: C_11  and  C_12 
REMARK       I    between atoms: C_12  and  N_13 
REMARK    7  A    between atoms: N_13  and  C_14 
ROOT
HETATM    1  N   UNL     1      -6.221   3.651 -34.166  1.00  0.00    -0.054 N 
HETATM    2  H   UNL     1      -6.725   3.182 -34.936  1.00  0.00     0.278 HD
HETATM    3  H   UNL     1      -6.881   4.361 -33.835  1.00  0.00     0.278 HD
ENDROOT
BRANCH   1   4
HETATM    4  C   UNL     1      -5.935   2.658 -33.088  1.00  0.00     0.259 C 
BRANCH   4   5
HETATM    5  C   UNL     1      -6.142   1.230 -33.566  1.00  0.00    -0.023 A 
HETATM    6  C   UNL     1      -5.565   0.172 -32.842  1.00  0.00     0.010 A 
HETATM    7  C   UNL     1      -5.761  -1.155 -33.231  1.00  0.00     0.007 A 
HETATM    8  C   UNL     1      -6.540  -1.459 -34.350  1.00  0.00    -0.059 A 
HETATM    9  C   UNL     1      -7.122  -0.414 -35.075  1.00  0.00     0.007 A 
HETATM   10  C   UNL     1      -6.924   0.915 -34.691  1.00  0.00     0.010 A 
BRANCH   8  11
HETATM   11  C   UNL     1      -6.790  -2.895 -34.740  1.00  0.00     0.034 C 
HETATM   12  C   UNL     1      -5.490  -3.675 -34.884  1.00  0.00     0.010 C 
ENDBRANCH   8  11
ENDBRANCH   4   5
BRANCH   4  13
HETATM   13  C   UNL     1      -6.705   2.969 -31.827  1.00  0.00     0.017 A 
HETATM   14  S   UNL     1      -5.880   3.692 -30.501  1.00  0.00    -0.104 SA
HETATM   15  C   UNL     1      -7.301   3.745 -29.556  1.00  0.00     0.050 A 
HETATM   16  C   UNL     1      -8.387   3.234 -30.228  1.00  0.00     0.008 A 
HETATM   17  C   UNL     1      -8.046   2.786 -31.537  1.00  0.00     0.017 A 
ENDBRANCH   4  13
ENDBRANCH   1   4
BRANCH   1  18
HETATM   18  C   UNL     1      -5.019   4.335 -34.766  1.00  0.00     0.336 C 
BRANCH  18  19
HETATM   19  C   UNL     1      -4.317   5.180 -33.705  1.00  0.00     0.248 C 
HETATM   20  N   UNL     1      -3.013   4.805 -33.454  1.00  0.00    -0.326 N 
HETATM   21  H   UNL     1      -2.637   3.998 -33.942  1.00  0.00     0.169 HD
HETATM   22  O   UNL     1      -4.955   6.089 -33.177  1.00  0.00    -0.271 OA
BRANCH  20  23
HETATM   23  C   UNL     1      -2.109   5.416 -32.552  1.00  0.00     0.037 A 
HETATM   24  C   UNL     1      -1.818   4.907 -31.281  1.00  0.00     0.061 A 
HETATM   25  C   UNL     1      -0.923   5.619 -30.511  1.00  0.00     0.065 A 
HETATM   26  C   UNL     1      -0.319   6.791 -30.955  1.00  0.00     0.063 A 
HETATM   27  N   UNL     1      -0.458   5.360 -29.226  1.00  0.00    -0.306 N 
HETATM   28  N   UNL     1       0.518   7.253 -29.948  1.00  0.00    -0.307 N 
HETATM   29  C   UNL     1      -0.577   7.318 -32.194  1.00  0.00     0.034 A 
HETATM   30  C   UNL     1       0.441   6.372 -28.859  1.00  0.00     0.325 A 
HETATM   31  H   UNL     1       1.097   8.078 -29.953  1.00  0.00     0.170 HD
HETATM   32  O   UNL     1       1.038   6.464 -27.803  1.00  0.00    -0.247 OA
HETATM   33  C   UNL     1      -1.488   6.616 -32.996  1.00  0.00     0.032 A 
HETATM   34  H   UNL     1      -0.702   4.592 -28.622  1.00  0.00     0.170 HD
ENDBRANCH  20  23
ENDBRANCH  18  19
ENDBRANCH   1  18
TORSDOF 7
ENDMDL
MODEL 6
REMARK VINA RESULT:      -8.2      3.420      8.571
REMARK  7 active torsions:
REMARK  status: ('A' for Active; 'I' for Inactive)
REMARK    1  A    between atoms: C_2  and  C_3 
REMARK    2  A    between atoms: C_6  and  C_7 
REMARK    3  A    between atoms: C_7  and  N_8 
REMARK    4  A    between atoms: C_7  and  C_25 
REMARK    5  A    between atoms: N_8  and  C_11 
REMARK    6  A    between atoms: C_11  and  C_12 
REMARK       I    between atoms: C_12  and  N_13 
REMARK    7  A    between atoms: N_13  and  C_14 
ROOT
HETATM    1  N   UNL     1      -7.625   2.958 -33.347  1.00  0.00    -0.054 N 
HETATM    2  H   UNL     1      -8.301   3.557 -33.848  1.00  0.00     0.278 HD
HETATM    3  H   UNL     1      -7.385   3.502 -32.513  1.00  0.00     0.278 HD
ENDROOT
BRANCH   1   4
HETATM    4  C   UNL     1      -8.291   1.677 -32.965  1.00  0.00     0.259 C 
BRANCH   4   5
HETATM    5  C   UNL     1      -7.506   0.468 -33.445  1.00  0.00    -0.023 A 
HETATM    6  C   UNL     1      -6.573  -0.133 -32.581  1.00  0.00     0.010 A 
HETATM    7  C   UNL     1      -5.857  -1.266 -32.974  1.00  0.00     0.007 A 
HETATM    8  C   UNL     1      -6.057  -1.829 -34.237  1.00  0.00    -0.059 A 
HETATM    9  C   UNL     1      -6.985  -1.242 -35.102  1.00  0.00     0.007 A 
HETATM   10  C   UNL     1      -7.700  -0.105 -34.714  1.00  0.00     0.010 A 
BRANCH   8  11
HETATM   11  C   UNL     1      -5.317  -3.081 -34.641  1.00  0.00     0.034 C 
HETATM   12  C   UNL     1      -6.268  -4.168 -35.121  1.00  0.00     0.010 C 
ENDBRANCH   8  11
ENDBRANCH   4   5
BRANCH   4  13
HETATM   13  C   UNL     1      -9.735   1.649 -33.405  1.00  0.00     0.017 A 
HETATM   14  S   UNL     1     -10.355   2.964 -34.325  1.00  0.00    -0.104 SA
HETATM   15  C   UNL     1     -11.899   2.246 -34.442  1.00  0.00     0.050 A 
HETATM   16  C   UNL     1     -11.951   1.028 -33.806  1.00  0.00     0.008 A 
HETATM   17  C   UNL     1     -10.705   0.681 -33.207  1.00  0.00     0.017 A 
ENDBRANCH   4  13
ENDBRANCH   1   4
BRANCH   1  18
HETATM   18  C   UNL     1      -6.405   2.829 -34.223  1.00  0.00     0.336 C 
BRANCH  18  19
HETATM   19  C   UNL     1      -5.409   3.941 -33.896  1.00  0.00     0.248 C 
HETATM   20  N   UNL     1      -4.316   3.525 -33.165  1.00  0.00    -0.326 N 
HETATM   21  H   UNL     1      -4.270   2.555 -32.870  1.00  0.00     0.169 HD
HETATM   22  O   UNL     1      -5.664   5.077 -34.294  1.00  0.00    -0.271 OA
BRANCH  20  23
HETATM   23  C   UNL     1      -3.221   4.317 -32.744  1.00  0.00     0.037 A 
HETATM   24  C   UNL     1      -3.034   4.742 -31.423  1.00  0.00     0.061 A 
HETATM   25  C   UNL     1      -1.924   5.518 -31.166  1.00  0.00     0.065 A 
HETATM   26  C   UNL     1      -1.013   5.875 -32.156  1.00  0.00     0.063 A 
HETATM   27  N   UNL     1      -1.494   6.080 -29.969  1.00  0.00    -0.306 N 
HETATM   28  N   UNL     1      -0.022   6.652 -31.571  1.00  0.00    -0.307 N 
HETATM   29  C   UNL     1      -1.162   5.476 -33.459  1.00  0.00     0.034 A 
HETATM   30  C   UNL     1      -0.309   6.792 -30.205  1.00  0.00     0.325 A 
HETATM   31  H   UNL     1       0.781   7.069 -32.014  1.00  0.00     0.170 HD
HETATM   32  O   UNL     1       0.343   7.410 -29.383  1.00  0.00    -0.247 OA
HETATM   33  C   UNL     1      -2.286   4.688 -33.749  1.00  0.00     0.032 A 
HETATM   34  H   UNL     1      -1.929   6.017 -29.063  1.00  0.00     0.170 HD
ENDBRANCH  20  23
ENDBRANCH  18  19
ENDBRANCH   1  18
TORSDOF 7
ENDMDL
MODEL 7
REMARK VINA RESULT:      -8.1      4.262      7.008
REMARK  7 active torsions:
REMARK  status: ('A' for Active; 'I' for Inactive)
REMARK    1  A    between atoms: C_2  and  C_3 
REMARK    2  A    between atoms: C_6  and  C_7 
REMARK    3  A    between atoms: C_7  and  N_8 
REMARK    4  A    between atoms: C_7  and  C_25 
REMARK    5  A    between atoms: N_8  and  C_11 
REMARK    6  A    between atoms: C_11  and  C_12 
REMARK       I    between atoms: C_12  and  N_13 
REMARK    7  A    between atoms: N_13  and  C_14 
ROOT
HETATM    1  N   UNL     1      -4.651  -1.001 -32.617  1.00  0.00    -0.054 N 
HETATM    2  H   UNL     1      -5.314  -0.678 -31.894  1.00  0.00     0.278 HD
HETATM    3  H   UNL     1      -4.324  -1.906 -32.265  1.00  0.00     0.278 HD
ENDROOT
BRANCH   1   4
HETATM    4  C   UNL     1      -5.376  -1.172 -33.911  1.00  0.00     0.259 C 
BRANCH   4   5
HETATM    5  C   UNL     1      -6.718  -0.460 -33.904  1.00  0.00    -0.023 A 
HETATM    6  C   UNL     1      -7.082   0.330 -35.009  1.00  0.00     0.010 A 
HETATM    7  C   UNL     1      -8.322   0.973 -35.054  1.00  0.00     0.007 A 
HETATM    8  C   UNL     1      -9.229   0.840 -34.000  1.00  0.00    -0.059 A 
HETATM    9  C   UNL     1      -8.879   0.053 -32.899  1.00  0.00     0.007 A 
HETATM   10  C   UNL     1      -7.637  -0.588 -32.848  1.00  0.00     0.010 A 
BRANCH   8  11
HETATM   11  C   UNL     1     -10.586   1.496 -34.073  1.00  0.00     0.034 C 
HETATM   12  C   UNL     1     -11.680   0.593 -33.520  1.00  0.00     0.010 C 
ENDBRANCH   8  11
ENDBRANCH   4   5
BRANCH   4  13
HETATM   13  C   UNL     1      -5.488  -2.628 -34.295  1.00  0.00     0.017 A 
HETATM   14  S   UNL     1      -4.150  -3.673 -34.016  1.00  0.00    -0.104 SA
HETATM   15  C   UNL     1      -4.985  -5.025 -34.636  1.00  0.00     0.050 A 
HETATM   16  C   UNL     1      -6.260  -4.703 -35.043  1.00  0.00     0.008 A 
HETATM   17  C   UNL     1      -6.552  -3.321 -34.847  1.00  0.00     0.017 A 
ENDBRANCH   4  13
ENDBRANCH   1   4
BRANCH   1  18
HETATM   18  C   UNL     1      -3.497  -0.030 -32.633  1.00  0.00     0.336 C 
BRANCH  18  19
HETATM   19  C   UNL     1      -3.989   1.370 -32.268  1.00  0.00     0.248 C 
HETATM   20  N   UNL     1      -5.174   1.386 -31.561  1.00  0.00    -0.326 N 
HETATM   21  H   UNL     1      -5.642   0.504 -31.376  1.00  0.00     0.169 HD
HETATM   22  O   UNL     1      -3.312   2.330 -32.630  1.00  0.00    -0.271 OA
BRANCH  20  23
HETATM   23  C   UNL     1      -5.853   2.524 -31.064  1.00  0.00     0.037 A 
HETATM   24  C   UNL     1      -5.521   3.162 -29.862  1.00  0.00     0.061 A 
HETATM   25  C   UNL     1      -6.280   4.255 -29.504  1.00  0.00     0.065 A 
HETATM   26  C   UNL     1      -7.332   4.727 -30.284  1.00  0.00     0.063 A 
HETATM   27  N   UNL     1      -6.187   5.069 -28.379  1.00  0.00    -0.306 N 
HETATM   28  N   UNL     1      -7.884   5.829 -29.644  1.00  0.00    -0.307 N 
HETATM   29  C   UNL     1      -7.684   4.130 -31.467  1.00  0.00     0.034 A 
HETATM   30  C   UNL     1      -7.181   6.055 -28.451  1.00  0.00     0.325 A 
HETATM   31  H   UNL     1      -8.659   6.397 -29.946  1.00  0.00     0.170 HD
HETATM   32  O   UNL     1      -7.391   6.934 -27.636  1.00  0.00    -0.247 OA
HETATM   33  C   UNL     1      -6.931   3.012 -31.854  1.00  0.00     0.032 A 
HETATM   34  H   UNL     1      -5.534   4.997 -27.615  1.00  0.00     0.170 HD
ENDBRANCH  20  23
ENDBRANCH  18  19
ENDBRANCH   1  18
TORSDOF 7
ENDMDL
MODEL 8
REMARK VINA RESULT:      -7.9      4.881      8.328
REMARK  7 active torsions:
REMARK  status: ('A' for Active; 'I' for Inactive)
REMARK    1  A    between atoms: C_2  and  C_3 
REMARK    2  A    between atoms: C_6  and  C_7 
REMARK    3  A    between atoms: C_7  and  N_8 
REMARK    4  A    between atoms: C_7  and  C_25 
REMARK    5  A    between atoms: N_8  and  C_11 
REMARK    6  A    between atoms: C_11  and  C_12 
REMARK       I    between atoms: C_12  and  N_13 
REMARK    7  A    between atoms: N_13  and  C_14 
ROOT
HETATM    1  N   UNL     1      -3.786   6.497 -30.550  1.00  0.00    -0.054 N 
HETATM    2  H   UNL     1      -3.747   7.375 -30.007  1.00  0.00     0.278 HD
HETATM    3  H   UNL     1      -4.174   6.783 -31.454  1.00  0.00     0.278 HD
ENDROOT
BRANCH   1   4
HETATM    4  C   UNL     1      -2.403   5.961 -30.718  1.00  0.00     0.259 C 
BRANCH   4   5
HETATM    5  C   UNL     1      -1.403   6.692 -29.838  1.00  0.00    -0.023 A 
HETATM    6  C   UNL     1      -0.202   6.051 -29.483  1.00  0.00     0.010 A 
HETATM    7  C   UNL     1       0.756   6.702 -28.703  1.00  0.00     0.007 A 
HETATM    8  C   UNL     1       0.542   8.011 -28.262  1.00  0.00    -0.059 A 
HETATM    9  C   UNL     1      -0.646   8.659 -28.614  1.00  0.00     0.007 A 
HETATM   10  C   UNL     1      -1.610   8.008 -29.390  1.00  0.00     0.010 A 
BRANCH   8  11
HETATM   11  C   UNL     1       1.599   8.730 -27.461  1.00  0.00     0.034 C 
HETATM   12  C   UNL     1       1.912   8.005 -26.159  1.00  0.00     0.010 C 
ENDBRANCH   8  11
ENDBRANCH   4   5
BRANCH   4  13
HETATM   13  C   UNL     1      -1.991   5.932 -32.171  1.00  0.00     0.017 A 
HETATM   14  S   UNL     1      -2.280   4.508 -33.094  1.00  0.00    -0.104 SA
HETATM   15  C   UNL     1      -1.621   5.205 -34.505  1.00  0.00     0.050 A 
HETATM   16  C   UNL     1      -1.194   6.496 -34.293  1.00  0.00     0.008 A 
HETATM   17  C   UNL     1      -1.407   6.917 -32.948  1.00  0.00     0.017 A 
ENDBRANCH   4  13
ENDBRANCH   1   4
BRANCH   1  18
HETATM   18  C   UNL     1      -4.765   5.584 -29.857  1.00  0.00     0.336 C 
BRANCH  18  19
HETATM   19  C   UNL     1      -5.175   4.451 -30.797  1.00  0.00     0.248 C 
HETATM   20  N   UNL     1      -4.728   3.204 -30.409  1.00  0.00    -0.326 N 
HETATM   21  H   UNL     1      -4.145   3.134 -29.581  1.00  0.00     0.169 HD
HETATM   22  O   UNL     1      -5.842   4.739 -31.790  1.00  0.00    -0.271 OA
BRANCH  20  23
HETATM   23  C   UNL     1      -4.974   1.971 -31.058  1.00  0.00     0.037 A 
HETATM   24  C   UNL     1      -4.083   1.377 -31.960  1.00  0.00     0.061 A 
HETATM   25  C   UNL     1      -4.466   0.178 -32.521  1.00  0.00     0.065 A 
HETATM   26  C   UNL     1      -5.677  -0.438 -32.220  1.00  0.00     0.063 A 
HETATM   27  N   UNL     1      -3.796  -0.625 -33.439  1.00  0.00    -0.306 N 
HETATM   28  N   UNL     1      -5.753  -1.618 -32.948  1.00  0.00    -0.307 N 
HETATM   29  C   UNL     1      -6.573   0.112 -31.341  1.00  0.00     0.034 A 
HETATM   30  C   UNL     1      -4.587  -1.749 -33.716  1.00  0.00     0.325 A 
HETATM   31  H   UNL     1      -6.501  -2.293 -32.956  1.00  0.00     0.170 HD
HETATM   32  O   UNL     1      -4.313  -2.659 -34.476  1.00  0.00    -0.247 OA
HETATM   33  C   UNL     1      -6.210   1.335 -30.758  1.00  0.00     0.032 A 
HETATM   34  H   UNL     1      -2.897  -0.463 -33.863  1.00  0.00     0.170 HD
ENDBRANCH  20  23
ENDBRANCH  18  19
ENDBRANCH   1  18
TORSDOF 7
ENDMDL
MODEL 9
REMARK VINA RESULT:      -7.7      3.613      6.817
REMARK  7 active torsions:
REMARK  status: ('A' for Active; 'I' for Inactive)
REMARK    1  A    between atoms: C_2  and  C_3 
REMARK    2  A    between atoms: C_6  and  C_7 
REMARK    3  A    between atoms: C_7  and  N_8 
REMARK    4  A    between atoms: C_7  and  C_25 
REMARK    5  A    between atoms: N_8  and  C_11 
REMARK    6  A    between atoms: C_11  and  C_12 
REMARK       I    between atoms: C_12  and  N_13 
REMARK    7  A    between atoms: N_13  and  C_14 
ROOT
HETATM    1  N   UNL     1      -8.251   3.856 -33.525  1.00  0.00    -0.054 N 
HETATM    2  H   UNL     1      -8.291   2.999 -34.100  1.00  0.00     0.278 HD
HETATM    3  H   UNL     1      -7.791   4.540 -34.133  1.00  0.00     0.278 HD
ENDROOT
BRANCH   1   4
HETATM    4  C   UNL     1      -9.640   4.295 -33.197  1.00  0.00     0.259 C 
BRANCH   4   5
HETATM    5  C   UNL     1     -10.641   3.163 -33.351  1.00  0.00    -0.023 A 
HETATM    6  C   UNL     1     -11.983   3.378 -32.989  1.00  0.00     0.010 A 
HETATM    7  C   UNL     1     -12.939   2.372 -33.148  1.00  0.00     0.007 A 
HETATM    8  C   UNL     1     -12.581   1.128 -33.674  1.00  0.00    -0.059 A 
HETATM    9  C   UNL     1     -11.250   0.906 -34.041  1.00  0.00     0.007 A 
HETATM   10  C   UNL     1     -10.289   1.908 -33.879  1.00  0.00     0.010 A 
BRANCH   8  11
HETATM   11  C   UNL     1     -13.625   0.060 -33.889  1.00  0.00     0.034 C 
HETATM   12  C   UNL     1     -14.964   0.655 -34.300  1.00  0.00     0.010 C 
ENDBRANCH   8  11
ENDBRANCH   4   5
BRANCH   4  13
HETATM   13  C   UNL     1     -10.030   5.530 -33.974  1.00  0.00     0.017 A 
HETATM   14  S   UNL     1     -10.250   7.014 -33.130  1.00  0.00    -0.104 SA
HETATM   15  C   UNL     1     -10.621   7.857 -34.567  1.00  0.00     0.050 A 
HETATM   16  C   UNL     1     -10.573   7.039 -35.672  1.00  0.00     0.008 A 
HETATM   17  C   UNL     1     -10.233   5.697 -35.332  1.00  0.00     0.017 A 
ENDBRANCH   4  13
ENDBRANCH   1   4
BRANCH   1  18
HETATM   18  C   UNL     1      -7.358   3.563 -32.346  1.00  0.00     0.336 C 
BRANCH  18  19
HETATM   19  C   UNL     1      -7.036   2.071 -32.294  1.00  0.00     0.248 C 
HETATM   20  N   UNL     1      -6.445   1.579 -33.440  1.00  0.00    -0.326 N 
HETATM   21  H   UNL     1      -6.309   2.209 -34.224  1.00  0.00     0.169 HD
HETATM   22  O   UNL     1      -7.327   1.454 -31.270  1.00  0.00    -0.271 OA
BRANCH  20  23
HETATM   23  C   UNL     1      -6.010   0.253 -33.672  1.00  0.00     0.037 A 
HETATM   24  C   UNL     1      -6.811  -0.736 -34.257  1.00  0.00     0.061 A 
HETATM   25  C   UNL     1      -6.251  -1.986 -34.410  1.00  0.00     0.065 A 
HETATM   26  C   UNL     1      -4.949  -2.278 -34.013  1.00  0.00     0.063 A 
HETATM   27  N   UNL     1      -6.804  -3.145 -34.944  1.00  0.00    -0.306 N 
HETATM   28  N   UNL     1      -4.699  -3.613 -34.304  1.00  0.00    -0.307 N 
HETATM   29  C   UNL     1      -4.135  -1.336 -33.440  1.00  0.00     0.034 A 
HETATM   30  C   UNL     1      -5.848  -4.170 -34.884  1.00  0.00     0.325 A 
HETATM   31  H   UNL     1      -3.853  -4.134 -34.140  1.00  0.00     0.170 HD
HETATM   32  O   UNL     1      -5.991  -5.318 -35.262  1.00  0.00    -0.247 OA
HETATM   33  C   UNL     1      -4.682  -0.056 -33.268  1.00  0.00     0.032 A 
HETATM   34  H   UNL     1      -7.730  -3.274 -35.318  1.00  0.00     0.170 HD
ENDBRANCH  20  23
ENDBRANCH  18  19
ENDBRANCH   1  18
TORSDOF 7
ENDMDL
MODEL 10
REMARK VINA RESULT:      -7.6      4.407      8.488
REMARK  7 active torsions:
REMARK  status: ('A' for Active; 'I' for Inactive)
REMARK    1  A    between atoms: C_2  and  C_3 
REMARK    2  A    between atoms: C_6  and  C_7 
REMARK    3  A    between atoms: C_7  and  N_8 
REMARK    4  A    between atoms: C_7  and  C_25 
REMARK    5  A    between atoms: N_8  and  C_11 
REMARK    6  A    between atoms: C_11  and  C_12 
REMARK       I    between atoms: C_12  and  N_13 
REMARK    7  A    between atoms: N_13  and  C_14 
ROOT
HETATM    1  N   UNL     1      -3.775  -0.202 -32.763  1.00  0.00    -0.054 N 
HETATM    2  H   UNL     1      -3.210  -0.916 -32.274  1.00  0.00     0.278 HD
HETATM    3  H   UNL     1      -3.077   0.419 -33.183  1.00  0.00     0.278 HD
ENDROOT
BRANCH   1   4
HETATM    4  C   UNL     1      -4.594  -0.863 -33.822  1.00  0.00     0.259 C 
BRANCH   4   5
HETATM    5  C   UNL     1      -6.047  -0.420 -33.771  1.00  0.00    -0.023 A 
HETATM    6  C   UNL     1      -6.553   0.397 -34.796  1.00  0.00     0.010 A 
HETATM    7  C   UNL     1      -7.892   0.797 -34.801  1.00  0.00     0.007 A 
HETATM    8  C   UNL     1      -8.758   0.387 -33.784  1.00  0.00    -0.059 A 
HETATM    9  C   UNL     1      -8.266  -0.430 -32.762  1.00  0.00     0.007 A 
HETATM   10  C   UNL     1      -6.926  -0.827 -32.751  1.00  0.00     0.010 A 
BRANCH   8  11
HETATM   11  C   UNL     1     -10.215   0.780 -33.818  1.00  0.00     0.034 C 
HETATM   12  C   UNL     1     -10.403   2.212 -34.300  1.00  0.00     0.010 C 
ENDBRANCH   8  11
ENDBRANCH   4   5
BRANCH   4  13
HETATM   13  C   UNL     1      -4.439  -2.364 -33.789  1.00  0.00     0.017 A 
HETATM   14  S   UNL     1      -5.334  -3.323 -34.903  1.00  0.00    -0.104 SA
HETATM   15  C   UNL     1      -4.661  -4.773 -34.306  1.00  0.00     0.050 A 
HETATM   16  C   UNL     1      -3.766  -4.544 -33.285  1.00  0.00     0.008 A 
HETATM   17  C   UNL     1      -3.637  -3.157 -32.986  1.00  0.00     0.017 A 
ENDBRANCH   4  13
ENDBRANCH   1   4
BRANCH   1  18
HETATM   18  C   UNL     1      -4.546   0.557 -31.713  1.00  0.00     0.336 C 
BRANCH  18  19
HETATM   19  C   UNL     1      -4.484   2.056 -32.004  1.00  0.00     0.248 C 
HETATM   20  N   UNL     1      -3.205   2.572 -32.044  1.00  0.00    -0.326 N 
HETATM   21  H   UNL     1      -2.425   1.953 -31.844  1.00  0.00     0.169 HD
HETATM   22  O   UNL     1      -5.546   2.655 -32.165  1.00  0.00    -0.271 OA
BRANCH  20  23
HETATM   23  C   UNL     1      -2.835   3.910 -32.319  1.00  0.00     0.037 A 
HETATM   24  C   UNL     1      -2.990   4.961 -31.407  1.00  0.00     0.061 A 
HETATM   25  C   UNL     1      -2.592   6.214 -31.822  1.00  0.00     0.065 A 
HETATM   26  C   UNL     1      -2.054   6.450 -33.084  1.00  0.00     0.063 A 
HETATM   27  N   UNL     1      -2.633   7.427 -31.143  1.00  0.00    -0.306 N 
HETATM   28  N   UNL     1      -1.762   7.804 -33.182  1.00  0.00    -0.307 N 
HETATM   29  C   UNL     1      -1.885   5.446 -34.002  1.00  0.00     0.034 A 
HETATM   30  C   UNL     1      -2.120   8.429 -31.978  1.00  0.00     0.325 A 
HETATM   31  H   UNL     1      -1.365   8.297 -33.965  1.00  0.00     0.170 HD
HETATM   32  O   UNL     1      -2.008   9.611 -31.709  1.00  0.00    -0.247 OA
HETATM   33  C   UNL     1      -2.287   4.161 -33.607  1.00  0.00     0.032 A 
HETATM   34  H   UNL     1      -2.970   7.603 -30.210  1.00  0.00     0.170 HD
ENDBRANCH  20  23
ENDBRANCH  18  19
ENDBRANCH   1  18
TORSDOF 7
ENDMDL
