MODEL 1
REMARK VINA RESULT:      -9.5      0.000      0.000
REMARK  10 active torsions:
REMARK  status: ('A' for Active; 'I' for Inactive)
REMARK    1  A    between atoms: C_8  and  N_9 
REMARK    2  A    between atoms: C_10  and  S_11 
REMARK    3  A    between atoms: S_11  and  C_12 
REMARK    4  A    between atoms: C_12  and  C_13 
REMARK       I    between atoms: C_13  and  N_14 
REMARK    5  A    between atoms: N_14  and  C_15 
REMARK    6  A    between atoms: C_15  and  C_16 
REMARK    7  A    between atoms: C_16  and  C_17 
REMARK    8  A    between atoms: C_20  and  S_21 
REMARK    9  A    between atoms: S_21  and  N_22 
REMARK   10  A    between atoms: C_31  and  N_32 
ROOT
HETATM    1  N   UNL     1      -8.570   1.418 -33.228  1.00  0.00    -0.275 N 
HETATM    2  C   UNL     1      -8.233   2.618 -33.783  1.00  0.00     0.177 A 
HETATM    3  N   UNL     1      -9.109   3.496 -34.321  1.00  0.00    -0.204 NA
HETATM    4  C   UNL     1     -10.365   3.060 -34.243  1.00  0.00     0.162 A 
HETATM    5  C   UNL     1     -10.797   1.868 -33.702  1.00  0.00     0.081 A 
HETATM    6  C   UNL     1      -9.861   0.991 -33.129  1.00  0.00     0.124 A 
HETATM    7  N   UNL     1     -11.473   3.712 -34.704  1.00  0.00    -0.260 N 
HETATM    8  H   UNL     1     -11.521   4.620 -35.153  1.00  0.00     0.191 HD
HETATM    9  N   UNL     1     -12.603   3.011 -34.536  1.00  0.00    -0.177 NA
HETATM   10  C   UNL     1     -12.207   1.882 -33.935  1.00  0.00     0.068 A 
HETATM   11  C   UNL     1     -13.215   0.834 -33.627  1.00  0.00     0.073 C 
ENDROOT
BRANCH   2  12
HETATM   12  S   UNL     1      -6.507   3.101 -33.998  1.00  0.00    -0.082 SA
BRANCH  12  13
HETATM   13  C   UNL     1      -6.555   4.788 -33.304  1.00  0.00     0.185 C 
BRANCH  13  14
HETATM   14  C   UNL     1      -5.287   5.564 -33.633  1.00  0.00     0.227 C 
HETATM   15  N   UNL     1      -4.534   4.997 -34.641  1.00  0.00    -0.360 N 
HETATM   16  H   UNL     1      -4.956   4.277 -35.216  1.00  0.00     0.162 HD
HETATM   17  O   UNL     1      -4.972   6.603 -33.056  1.00  0.00    -0.273 OA
BRANCH  15  18
HETATM   18  C   UNL     1      -3.333   5.642 -35.153  1.00  0.00     0.127 C 
BRANCH  18  19
HETATM   19  C   UNL     1      -2.065   4.937 -34.667  1.00  0.00     0.058 C 
BRANCH  19  20
HETATM   20  C   UNL     1      -1.642   5.392 -33.294  1.00  0.00    -0.057 A 
HETATM   21  C   UNL     1      -1.045   6.650 -33.115  1.00  0.00     0.009 A 
HETATM   22  C   UNL     1      -0.647   7.069 -31.843  1.00  0.00     0.025 A 
HETATM   23  C   UNL     1      -0.850   6.231 -30.746  1.00  0.00     0.074 A 
HETATM   24  C   UNL     1      -1.429   4.971 -30.910  1.00  0.00     0.025 A 
HETATM   25  C   UNL     1      -1.827   4.557 -32.182  1.00  0.00     0.009 A 
BRANCH  23  26
HETATM   26  S   UNL     1      -0.302   6.739 -29.141  1.00  0.00     0.239 S 
HETATM   27  O   UNL     1       0.819   7.636 -29.290  1.00  0.00    -0.206 OA
HETATM   28  O   UNL     1      -1.453   7.065 -28.332  1.00  0.00    -0.206 OA
BRANCH  26  29
HETATM   29  N   UNL     1       0.320   5.312 -28.515  1.00  0.00    -0.225 NA
HETATM   30  H   UNL     1      -0.287   4.965 -27.770  1.00  0.00     0.136 HD
HETATM   31  H   UNL     1       0.465   4.636 -29.266  1.00  0.00     0.136 HD
ENDBRANCH  26  29
ENDBRANCH  23  26
ENDBRANCH  19  20
ENDBRANCH  18  19
ENDBRANCH  15  18
ENDBRANCH  13  14
ENDBRANCH  12  13
ENDBRANCH   2  12
BRANCH   1  32
HETATM   32  C   UNL     1      -7.527   0.508 -32.829  1.00  0.00     0.051 A 
HETATM   33  C   UNL     1      -6.965  -0.391 -33.751  1.00  0.00    -0.013 A 
HETATM   34  C   UNL     1      -7.413  -0.476 -35.183  1.00  0.00     0.052 C 
HETATM   35  C   UNL     1      -5.968  -1.250 -33.258  1.00  0.00     0.042 A 
HETATM   36 CL   UNL     1      -5.231  -2.449 -34.262  1.00  0.00    -0.084 Cl
HETATM   37  C   UNL     1      -5.529  -1.170 -31.929  1.00  0.00     0.024 A 
HETATM   38  C   UNL     1      -6.082  -0.237 -31.053  1.00  0.00     0.004 A 
HETATM   39  C   UNL     1      -7.090   0.609 -31.500  1.00  0.00     0.031 A 
ENDBRANCH   1  32
BRANCH   6  40
HETATM   40  N   UNL     1     -10.215  -0.227 -32.558  1.00  0.00    -0.384 N 
HETATM   41  H   UNL     1     -10.626  -0.931 -33.164  1.00  0.00     0.157 HD
HETATM   42  H   UNL     1     -10.543  -0.275 -31.600  1.00  0.00     0.157 HD
ENDBRANCH   6  40
TORSDOF 10
ENDMDL
MODEL 2
REMARK VINA RESULT:      -9.2      2.572      3.251
REMARK  10 active torsions:
REMARK  status: ('A' for Active; 'I' for Inactive)
REMARK    1  A    between atoms: C_8  and  N_9 
REMARK    2  A    between atoms: C_10  and  S_11 
REMARK    3  A    between atoms: S_11  and  C_12 
REMARK    4  A    between atoms: C_12  and  C_13 
REMARK       I    between atoms: C_13  and  N_14 
REMARK    5  A    between atoms: N_14  and  C_15 
REMARK    6  A    between atoms: C_15  and  C_16 
REMARK    7  A    between atoms: C_16  and  C_17 
REMARK    8  A    between atoms: C_20  and  S_21 
REMARK    9  A    between atoms: S_21  and  N_22 
REMARK   10  A    between atoms: C_31  and  N_32 
ROOT
HETATM    1  N   UNL     1      -9.298   1.555 -33.202  1.00  0.00    -0.275 N 
HETATM    2  C   UNL     1      -9.262   2.802 -33.755  1.00  0.00     0.177 A 
HETATM    3  N   UNL     1     -10.300   3.405 -34.376  1.00  0.00    -0.204 NA
HETATM    4  C   UNL     1     -11.391   2.640 -34.383  1.00  0.00     0.162 A 
HETATM    5  C   UNL     1     -11.519   1.374 -33.853  1.00  0.00     0.081 A 
HETATM    6  C   UNL     1     -10.426   0.788 -33.193  1.00  0.00     0.124 A 
HETATM    7  N   UNL     1     -12.595   2.961 -34.941  1.00  0.00    -0.260 N 
HETATM    8  H   UNL     1     -12.856   3.822 -35.411  1.00  0.00     0.191 HD
HETATM    9  N   UNL     1     -13.498   1.975 -34.845  1.00  0.00    -0.177 NA
HETATM   10  C   UNL     1     -12.855   0.999 -34.192  1.00  0.00     0.068 A 
HETATM   11  C   UNL     1     -13.557  -0.287 -33.941  1.00  0.00     0.073 C 
ENDROOT
BRANCH   2  12
HETATM   12  S   UNL     1      -7.725   3.742 -33.848  1.00  0.00    -0.082 SA
BRANCH  12  13
HETATM   13  C   UNL     1      -8.332   5.401 -33.388  1.00  0.00     0.185 C 
BRANCH  13  14
HETATM   14  C   UNL     1      -8.098   5.693 -31.912  1.00  0.00     0.227 C 
HETATM   15  N   UNL     1      -7.579   4.624 -31.210  1.00  0.00    -0.360 N 
HETATM   16  H   UNL     1      -7.198   3.841 -31.728  1.00  0.00     0.162 HD
HETATM   17  O   UNL     1      -8.343   6.784 -31.401  1.00  0.00    -0.273 OA
BRANCH  15  18
HETATM   18  C   UNL     1      -7.207   4.740 -29.806  1.00  0.00     0.127 C 
BRANCH  18  19
HETATM   19  C   UNL     1      -5.754   4.323 -29.573  1.00  0.00     0.058 C 
BRANCH  19  20
HETATM   20  C   UNL     1      -4.841   4.773 -30.684  1.00  0.00    -0.057 A 
HETATM   21  C   UNL     1      -4.550   6.135 -30.858  1.00  0.00     0.009 A 
HETATM   22  C   UNL     1      -3.709   6.553 -31.892  1.00  0.00     0.025 A 
HETATM   23  C   UNL     1      -3.152   5.605 -32.754  1.00  0.00     0.074 A 
HETATM   24  C   UNL     1      -3.443   4.248 -32.602  1.00  0.00     0.025 A 
HETATM   25  C   UNL     1      -4.283   3.835 -31.566  1.00  0.00     0.009 A 
BRANCH  23  26
HETATM   26  S   UNL     1      -2.126   6.135 -34.095  1.00  0.00     0.239 S 
HETATM   27  O   UNL     1      -1.909   7.558 -33.987  1.00  0.00    -0.206 OA
HETATM   28  O   UNL     1      -1.041   5.196 -34.256  1.00  0.00    -0.206 OA
BRANCH  26  29
HETATM   29  N   UNL     1      -3.134   5.914 -35.417  1.00  0.00    -0.225 NA
HETATM   30  H   UNL     1      -3.703   6.749 -35.564  1.00  0.00     0.136 HD
HETATM   31  H   UNL     1      -2.584   5.650 -36.235  1.00  0.00     0.136 HD
ENDBRANCH  26  29
ENDBRANCH  23  26
ENDBRANCH  19  20
ENDBRANCH  18  19
ENDBRANCH  15  18
ENDBRANCH  13  14
ENDBRANCH  12  13
ENDBRANCH   2  12
BRANCH   1  32
HETATM   32  C   UNL     1      -8.080   0.967 -32.707  1.00  0.00     0.051 A 
HETATM   33  C   UNL     1      -7.242   0.227 -33.557  1.00  0.00    -0.013 A 
HETATM   34  C   UNL     1      -7.556  -0.013 -35.006  1.00  0.00     0.052 C 
HETATM   35  C   UNL     1      -6.087  -0.322 -32.973  1.00  0.00     0.042 A 
HETATM   36 CL   UNL     1      -4.995  -1.307 -33.881  1.00  0.00    -0.084 Cl
HETATM   37  C   UNL     1      -5.773  -0.092 -31.626  1.00  0.00     0.024 A 
HETATM   38  C   UNL     1      -6.609   0.683 -30.823  1.00  0.00     0.004 A 
HETATM   39  C   UNL     1      -7.773   1.216 -31.361  1.00  0.00     0.031 A 
ENDBRANCH   1  32
BRANCH   6  40
HETATM   40  N   UNL     1     -10.475  -0.481 -32.626  1.00  0.00    -0.384 N 
HETATM   41  H   UNL     1     -10.580  -1.274 -33.252  1.00  0.00     0.157 HD
HETATM   42  H   UNL     1     -10.892  -0.626 -31.713  1.00  0.00     0.157 HD
ENDBRANCH   6  40
TORSDOF 10
ENDMDL
MODEL 3
REMARK VINA RESULT:      -9.2      3.967      7.905
REMARK  10 active torsions:
REMARK  status: ('A' for Active; 'I' for Inactive)
REMARK    1  A    between atoms: C_8  and  N_9 
REMARK    2  A    between atoms: C_10  and  S_11 
REMARK    3  A    between atoms: S_11  and  C_12 
REMARK    4  A    between atoms: C_12  and  C_13 
REMARK       I    between atoms: C_13  and  N_14 
REMARK    5  A    between atoms: N_14  and  C_15 
REMARK    6  A    between atoms: C_15  and  C_16 
REMARK    7  A    between atoms: C_16  and  C_17 
REMARK    8  A    between atoms: C_20  and  S_21 
REMARK    9  A    between atoms: S_21  and  N_22 
REMARK   10  A    between atoms: C_31  and  N_32 
ROOT
HETATM    1  N   UNL     1      -4.578   3.796 -31.681  1.00  0.00    -0.275 N 
HETATM    2  C   UNL     1      -4.762   2.445 -31.749  1.00  0.00     0.177 A 
HETATM    3  N   UNL     1      -5.885   1.796 -31.370  1.00  0.00    -0.204 NA
HETATM    4  C   UNL     1      -6.819   2.633 -30.920  1.00  0.00     0.162 A 
HETATM    5  C   UNL     1      -6.722   4.004 -30.815  1.00  0.00     0.081 A 
HETATM    6  C   UNL     1      -5.548   4.648 -31.241  1.00  0.00     0.124 A 
HETATM    7  N   UNL     1      -8.055   2.285 -30.456  1.00  0.00    -0.260 N 
HETATM    8  H   UNL     1      -8.462   1.357 -30.398  1.00  0.00     0.191 HD
HETATM    9  N   UNL     1      -8.766   3.333 -30.018  1.00  0.00    -0.177 NA
HETATM   10  C   UNL     1      -7.965   4.386 -30.221  1.00  0.00     0.068 A 
HETATM   11  C   UNL     1      -8.425   5.737 -29.806  1.00  0.00     0.073 C 
ENDROOT
BRANCH   2  12
HETATM   12  S   UNL     1      -3.419   1.340 -32.228  1.00  0.00    -0.082 SA
BRANCH  12  13
HETATM   13  C   UNL     1      -3.829  -0.123 -31.217  1.00  0.00     0.185 C 
BRANCH  13  14
HETATM   14  C   UNL     1      -3.865  -1.392 -32.058  1.00  0.00     0.227 C 
HETATM   15  N   UNL     1      -4.626  -1.279 -33.203  1.00  0.00    -0.360 N 
HETATM   16  H   UNL     1      -4.907  -0.355 -33.510  1.00  0.00     0.162 HD
HETATM   17  O   UNL     1      -3.262  -2.417 -31.744  1.00  0.00    -0.273 OA
BRANCH  15  18
HETATM   18  C   UNL     1      -4.709  -2.359 -34.176  1.00  0.00     0.127 C 
BRANCH  18  19
HETATM   19  C   UNL     1      -6.135  -2.535 -34.701  1.00  0.00     0.058 C 
BRANCH  19  20
HETATM   20  C   UNL     1      -6.995  -1.322 -34.451  1.00  0.00    -0.057 A 
HETATM   21  C   UNL     1      -7.884  -1.292 -33.365  1.00  0.00     0.009 A 
HETATM   22  C   UNL     1      -8.685  -0.172 -33.137  1.00  0.00     0.025 A 
HETATM   23  C   UNL     1      -8.595   0.926 -33.995  1.00  0.00     0.074 A 
HETATM   24  C   UNL     1      -7.726   0.906 -35.088  1.00  0.00     0.025 A 
HETATM   25  C   UNL     1      -6.926  -0.216 -35.311  1.00  0.00     0.009 A 
BRANCH  23  26
HETATM   26  S   UNL     1      -9.645   2.329 -33.738  1.00  0.00     0.239 S 
HETATM   27  O   UNL     1      -8.824   3.495 -33.517  1.00  0.00    -0.206 OA
HETATM   28  O   UNL     1     -10.709   2.304 -34.714  1.00  0.00    -0.206 OA
BRANCH  26  29
HETATM   29  N   UNL     1     -10.356   1.968 -32.262  1.00  0.00    -0.225 NA
HETATM   30  H   UNL     1     -10.826   1.064 -32.314  1.00  0.00     0.136 HD
HETATM   31  H   UNL     1      -9.659   2.020 -31.518  1.00  0.00     0.136 HD
ENDBRANCH  26  29
ENDBRANCH  23  26
ENDBRANCH  19  20
ENDBRANCH  18  19
ENDBRANCH  15  18
ENDBRANCH  13  14
ENDBRANCH  12  13
ENDBRANCH   2  12
BRANCH   1  32
HETATM   32  C   UNL     1      -3.280   4.347 -31.971  1.00  0.00     0.051 A 
HETATM   33  C   UNL     1      -2.951   4.769 -33.269  1.00  0.00    -0.013 A 
HETATM   34  C   UNL     1      -3.903   4.663 -34.427  1.00  0.00     0.052 C 
HETATM   35  C   UNL     1      -1.652   5.275 -33.452  1.00  0.00     0.042 A 
HETATM   36 CL   UNL     1      -1.087   5.774 -35.007  1.00  0.00    -0.084 Cl
HETATM   37  C   UNL     1      -0.759   5.395 -32.377  1.00  0.00     0.024 A 
HETATM   38  C   UNL     1      -1.136   5.003 -31.093  1.00  0.00     0.004 A 
HETATM   39  C   UNL     1      -2.403   4.472 -30.883  1.00  0.00     0.031 A 
ENDBRANCH   1  32
BRANCH   6  40
HETATM   40  N   UNL     1      -5.374   6.026 -31.175  1.00  0.00    -0.384 N 
HETATM   41  H   UNL     1      -4.495   6.373 -30.804  1.00  0.00     0.157 HD
HETATM   42  H   UNL     1      -6.160   6.641 -30.998  1.00  0.00     0.157 HD
ENDBRANCH   6  40
TORSDOF 10
ENDMDL
MODEL 4
REMARK VINA RESULT:      -9.0      1.515      1.968
REMARK  10 active torsions:
REMARK  status: ('A' for Active; 'I' for Inactive)
REMARK    1  A    between atoms: C_8  and  N_9 
REMARK    2  A    between atoms: C_10  and  S_11 
REMARK    3  A    between atoms: S_11  and  C_12 
REMARK    4  A    between atoms: C_12  and  C_13 
REMARK       I    between atoms: C_13  and  N_14 
REMARK    5  A    between atoms: N_14  and  C_15 
REMARK    6  A    between atoms: C_15  and  C_16 
REMARK    7  A    between atoms: C_16  and  C_17 
REMARK    8  A    between atoms: C_20  and  S_21 
REMARK    9  A    between atoms: S_21  and  N_22 
REMARK   10  A    between atoms: C_31  and  N_32 
ROOT
HETATM    1  N   UNL     1      -8.065   2.279 -33.403  1.00  0.00    -0.275 N 
HETATM    2  C   UNL     1      -7.414   3.466 -33.577  1.00  0.00     0.177 A 
HETATM    3  N   UNL     1      -7.967   4.583 -34.098  1.00  0.00    -0.204 NA
HETATM    4  C   UNL     1      -9.246   4.403 -34.423  1.00  0.00     0.162 A 
HETATM    5  C   UNL     1      -9.982   3.246 -34.284  1.00  0.00     0.081 A 
HETATM    6  C   UNL     1      -9.381   2.110 -33.716  1.00  0.00     0.124 A 
HETATM    7  N   UNL     1     -10.073   5.337 -34.979  1.00  0.00    -0.260 N 
HETATM    8  H   UNL     1      -9.860   6.301 -35.210  1.00  0.00     0.191 HD
HETATM    9  N   UNL     1     -11.297   4.860 -35.249  1.00  0.00    -0.177 NA
HETATM   10  C   UNL     1     -11.254   3.586 -34.841  1.00  0.00     0.068 A 
HETATM   11  C   UNL     1     -12.451   2.725 -35.028  1.00  0.00     0.073 C 
ENDROOT
BRANCH   2  12
HETATM   12  S   UNL     1      -5.645   3.620 -33.256  1.00  0.00    -0.082 SA
BRANCH  12  13
HETATM   13  C   UNL     1      -5.366   5.339 -33.804  1.00  0.00     0.185 C 
BRANCH  13  14
HETATM   14  C   UNL     1      -3.941   5.544 -34.298  1.00  0.00     0.227 C 
HETATM   15  N   UNL     1      -3.022   5.725 -33.285  1.00  0.00    -0.360 N 
HETATM   16  H   UNL     1      -3.294   5.497 -32.336  1.00  0.00     0.162 HD
HETATM   17  O   UNL     1      -3.641   5.540 -35.491  1.00  0.00    -0.273 OA
BRANCH  15  18
HETATM   18  C   UNL     1      -1.596   5.849 -33.559  1.00  0.00     0.127 C 
BRANCH  18  19
HETATM   19  C   UNL     1      -1.042   7.185 -33.061  1.00  0.00     0.058 C 
BRANCH  19  20
HETATM   20  C   UNL     1      -0.796   7.188 -31.574  1.00  0.00    -0.057 A 
HETATM   21  C   UNL     1      -1.733   7.759 -30.699  1.00  0.00     0.009 A 
HETATM   22  C   UNL     1      -1.501   7.769 -29.321  1.00  0.00     0.025 A 
HETATM   23  C   UNL     1      -0.330   7.200 -28.815  1.00  0.00     0.074 A 
HETATM   24  C   UNL     1       0.618   6.641 -29.674  1.00  0.00     0.025 A 
HETATM   25  C   UNL     1       0.381   6.633 -31.050  1.00  0.00     0.009 A 
BRANCH  23  26
HETATM   26  S   UNL     1      -0.010   7.254 -27.075  1.00  0.00     0.239 S 
HETATM   27  O   UNL     1       1.416   7.217 -26.859  1.00  0.00    -0.206 OA
HETATM   28  O   UNL     1      -0.861   8.253 -26.472  1.00  0.00    -0.206 OA
BRANCH  26  29
HETATM   29  N   UNL     1      -0.600   5.769 -26.565  1.00  0.00    -0.225 NA
HETATM   30  H   UNL     1      -0.073   5.015 -27.008  1.00  0.00     0.136 HD
HETATM   31  H   UNL     1      -0.592   5.723 -25.545  1.00  0.00     0.136 HD
ENDBRANCH  26  29
ENDBRANCH  23  26
ENDBRANCH  19  20
ENDBRANCH  18  19
ENDBRANCH  15  18
ENDBRANCH  13  14
ENDBRANCH  12  13
ENDBRANCH   2  12
BRANCH   1  32
HETATM   32  C   UNL     1      -7.320   1.121 -32.981  1.00  0.00     0.051 A 
HETATM   33  C   UNL     1      -6.807   0.213 -33.922  1.00  0.00    -0.013 A 
HETATM   34  C   UNL     1      -7.007   0.373 -35.402  1.00  0.00     0.052 C 
HETATM   35  C   UNL     1      -6.111  -0.895 -33.407  1.00  0.00     0.042 A 
HETATM   36 CL   UNL     1      -5.478  -2.125 -34.442  1.00  0.00    -0.084 Cl
HETATM   37  C   UNL     1      -5.902  -1.048 -32.029  1.00  0.00     0.024 A 
HETATM   38  C   UNL     1      -6.392  -0.104 -31.127  1.00  0.00     0.004 A 
HETATM   39  C   UNL     1      -7.109   0.988 -31.600  1.00  0.00     0.031 A 
ENDBRANCH   1  32
BRANCH   6  40
HETATM   40  N   UNL     1     -10.056   0.907 -33.536  1.00  0.00    -0.384 N 
HETATM   41  H   UNL     1      -9.509   0.096 -33.263  1.00  0.00     0.157 HD
HETATM   42  H   UNL     1     -10.869   0.679 -34.097  1.00  0.00     0.157 HD
ENDBRANCH   6  40
TORSDOF 10
ENDMDL
MODEL 5
REMARK VINA RESULT:      -8.8      4.954      9.073
REMARK  10 active torsions:
REMARK  status: ('A' for Active; 'I' for Inactive)
REMARK    1  A    between atoms: C_8  and  N_9 
REMARK    2  A    between atoms: C_10  and  S_11 
REMARK    3  A    between atoms: S_11  and  C_12 
REMARK    4  A    between atoms: C_12  and  C_13 
REMARK       I    between atoms: C_13  and  N_14 
REMARK    5  A    between atoms: N_14  and  C_15 
REMARK    6  A    between atoms: C_15  and  C_16 
REMARK    7  A    between atoms: C_16  and  C_17 
REMARK    8  A    between atoms: C_20  and  S_21 
REMARK    9  A    between atoms: S_21  and  N_22 
REMARK   10  A    between atoms: C_31  and  N_32 
ROOT
HETATM    1  N   UNL     1      -9.439   1.444 -33.256  1.00  0.00    -0.275 N 
HETATM    2  C   UNL     1      -9.407   2.670 -33.854  1.00  0.00     0.177 A 
HETATM    3  N   UNL     1     -10.443   3.240 -34.508  1.00  0.00    -0.204 NA
HETATM    4  C   UNL     1     -11.526   2.465 -34.501  1.00  0.00     0.162 A 
HETATM    5  C   UNL     1     -11.650   1.218 -33.925  1.00  0.00     0.081 A 
HETATM    6  C   UNL     1     -10.559   0.667 -33.231  1.00  0.00     0.124 A 
HETATM    7  N   UNL     1     -12.726   2.755 -35.083  1.00  0.00    -0.260 N 
HETATM    8  H   UNL     1     -12.989   3.595 -35.588  1.00  0.00     0.191 HD
HETATM    9  N   UNL     1     -13.622   1.765 -34.961  1.00  0.00    -0.177 NA
HETATM   10  C   UNL     1     -12.979   0.819 -34.266  1.00  0.00     0.068 A 
HETATM   11  C   UNL     1     -13.672  -0.463 -33.975  1.00  0.00     0.073 C 
ENDROOT
BRANCH   2  12
HETATM   12  S   UNL     1      -7.876   3.620 -33.964  1.00  0.00    -0.082 SA
BRANCH  12  13
HETATM   13  C   UNL     1      -8.490   5.276 -33.502  1.00  0.00     0.185 C 
BRANCH  13  14
HETATM   14  C   UNL     1      -9.339   5.225 -32.239  1.00  0.00     0.227 C 
HETATM   15  N   UNL     1     -10.664   5.552 -32.446  1.00  0.00    -0.360 N 
HETATM   16  H   UNL     1     -11.015   5.579 -33.397  1.00  0.00     0.162 HD
HETATM   17  O   UNL     1      -8.882   4.914 -31.141  1.00  0.00    -0.273 OA
BRANCH  15  18
HETATM   18  C   UNL     1     -11.647   5.474 -31.374  1.00  0.00     0.127 C 
BRANCH  18  19
HETATM   19  C   UNL     1     -12.202   4.057 -31.221  1.00  0.00     0.058 C 
BRANCH  19  20
HETATM   20  C   UNL     1     -13.692   3.996 -31.441  1.00  0.00    -0.057 A 
HETATM   21  C   UNL     1     -14.312   2.782 -31.778  1.00  0.00     0.009 A 
HETATM   22  C   UNL     1     -15.691   2.726 -31.988  1.00  0.00     0.025 A 
HETATM   23  C   UNL     1     -16.456   3.887 -31.857  1.00  0.00     0.074 A 
HETATM   24  C   UNL     1     -15.852   5.105 -31.537  1.00  0.00     0.025 A 
HETATM   25  C   UNL     1     -14.473   5.155 -31.326  1.00  0.00     0.009 A 
BRANCH  23  26
HETATM   26  S   UNL     1     -18.198   3.830 -32.171  1.00  0.00     0.239 S 
HETATM   27  O   UNL     1     -18.561   2.489 -32.559  1.00  0.00    -0.206 OA
HETATM   28  O   UNL     1     -18.887   4.549 -31.125  1.00  0.00    -0.206 OA
BRANCH  26  29
HETATM   29  N   UNL     1     -18.335   4.771 -33.553  1.00  0.00    -0.225 NA
HETATM   30  H   UNL     1     -17.768   5.615 -33.457  1.00  0.00     0.136 HD
HETATM   31  H   UNL     1     -18.099   4.217 -34.377  1.00  0.00     0.136 HD
ENDBRANCH  26  29
ENDBRANCH  23  26
ENDBRANCH  19  20
ENDBRANCH  18  19
ENDBRANCH  15  18
ENDBRANCH  13  14
ENDBRANCH  12  13
ENDBRANCH   2  12
BRANCH   1  32
HETATM   32  C   UNL     1      -8.222   0.886 -32.725  1.00  0.00     0.051 A 
HETATM   33  C   UNL     1      -7.365   0.124 -33.537  1.00  0.00    -0.013 A 
HETATM   34  C   UNL     1      -7.659  -0.170 -34.981  1.00  0.00     0.052 C 
HETATM   35  C   UNL     1      -6.213  -0.392 -32.920  1.00  0.00     0.042 A 
HETATM   36 CL   UNL     1      -5.101  -1.398 -33.779  1.00  0.00    -0.084 Cl
HETATM   37  C   UNL     1      -5.918  -0.111 -31.578  1.00  0.00     0.024 A 
HETATM   38  C   UNL     1      -6.771   0.683 -30.814  1.00  0.00     0.004 A 
HETATM   39  C   UNL     1      -7.934   1.186 -31.385  1.00  0.00     0.031 A 
ENDBRANCH   1  32
BRANCH   6  40
HETATM   40  N   UNL     1     -10.604  -0.580 -32.618  1.00  0.00    -0.384 N 
HETATM   41  H   UNL     1     -10.887  -0.616 -31.643  1.00  0.00     0.157 HD
HETATM   42  H   UNL     1      -9.952  -1.311 -32.879  1.00  0.00     0.157 HD
ENDBRANCH   6  40
TORSDOF 10
ENDMDL
MODEL 6
REMARK VINA RESULT:      -8.7      3.084      5.003
REMARK  10 active torsions:
REMARK  status: ('A' for Active; 'I' for Inactive)
REMARK    1  A    between atoms: C_8  and  N_9 
REMARK    2  A    between atoms: C_10  and  S_11 
REMARK    3  A    between atoms: S_11  and  C_12 
REMARK    4  A    between atoms: C_12  and  C_13 
REMARK       I    between atoms: C_13  and  N_14 
REMARK    5  A    between atoms: N_14  and  C_15 
REMARK    6  A    between atoms: C_15  and  C_16 
REMARK    7  A    between atoms: C_16  and  C_17 
REMARK    8  A    between atoms: C_20  and  S_21 
REMARK    9  A    between atoms: S_21  and  N_22 
REMARK   10  A    between atoms: C_31  and  N_32 
ROOT
HETATM    1  N   UNL     1      -5.790   0.471 -33.285  1.00  0.00    -0.275 N 
HETATM    2  C   UNL     1      -4.712   0.406 -32.450  1.00  0.00     0.177 A 
HETATM    3  N   UNL     1      -3.912  -0.672 -32.299  1.00  0.00    -0.204 NA
HETATM    4  C   UNL     1      -4.289  -1.687 -33.076  1.00  0.00     0.162 A 
HETATM    5  C   UNL     1      -5.359  -1.712 -33.946  1.00  0.00     0.081 A 
HETATM    6  C   UNL     1      -6.155  -0.564 -34.095  1.00  0.00     0.124 A 
HETATM    7  N   UNL     1      -3.692  -2.912 -33.144  1.00  0.00    -0.260 N 
HETATM    8  H   UNL     1      -2.872  -3.236 -32.642  1.00  0.00     0.191 HD
HETATM    9  N   UNL     1      -4.319  -3.757 -33.975  1.00  0.00    -0.177 NA
HETATM   10  C   UNL     1      -5.341  -3.044 -34.464  1.00  0.00     0.068 A 
HETATM   11  C   UNL     1      -6.290  -3.692 -35.406  1.00  0.00     0.073 C 
ENDROOT
BRANCH   2  12
HETATM   12  S   UNL     1      -4.326   1.753 -31.312  1.00  0.00    -0.082 SA
BRANCH  12  13
HETATM   13  C   UNL     1      -3.074   2.652 -32.289  1.00  0.00     0.185 C 
BRANCH  13  14
HETATM   14  C   UNL     1      -3.304   4.157 -32.244  1.00  0.00     0.227 C 
HETATM   15  N   UNL     1      -2.352   4.885 -32.927  1.00  0.00    -0.360 N 
HETATM   16  H   UNL     1      -1.732   4.398 -33.564  1.00  0.00     0.162 HD
HETATM   17  O   UNL     1      -4.256   4.669 -31.658  1.00  0.00    -0.273 OA
BRANCH  15  18
HETATM   18  C   UNL     1      -2.452   6.331 -33.069  1.00  0.00     0.127 C 
BRANCH  18  19
HETATM   19  C   UNL     1      -1.138   7.025 -32.704  1.00  0.00     0.058 C 
BRANCH  19  20
HETATM   20  C   UNL     1      -0.911   7.081 -31.215  1.00  0.00    -0.057 A 
HETATM   21  C   UNL     1       0.388   7.004 -30.690  1.00  0.00     0.009 A 
HETATM   22  C   UNL     1       0.598   7.049 -29.310  1.00  0.00     0.025 A 
HETATM   23  C   UNL     1      -0.495   7.175 -28.450  1.00  0.00     0.074 A 
HETATM   24  C   UNL     1      -1.795   7.239 -28.956  1.00  0.00     0.025 A 
HETATM   25  C   UNL     1      -1.999   7.195 -30.336  1.00  0.00     0.009 A 
BRANCH  23  26
HETATM   26  S   UNL     1      -0.236   7.183 -26.698  1.00  0.00     0.239 S 
HETATM   27  O   UNL     1       1.182   7.195 -26.433  1.00  0.00    -0.206 OA
HETATM   28  O   UNL     1      -1.146   8.127 -26.094  1.00  0.00    -0.206 OA
BRANCH  26  29
HETATM   29  N   UNL     1      -0.783   5.660 -26.257  1.00  0.00    -0.225 NA
HETATM   30  H   UNL     1      -1.724   5.508 -26.624  1.00  0.00     0.136 HD
HETATM   31  H   UNL     1      -0.113   4.949 -26.555  1.00  0.00     0.136 HD
ENDBRANCH  26  29
ENDBRANCH  23  26
ENDBRANCH  19  20
ENDBRANCH  18  19
ENDBRANCH  15  18
ENDBRANCH  13  14
ENDBRANCH  12  13
ENDBRANCH   2  12
BRANCH   1  32
HETATM   32  C   UNL     1      -6.651   1.624 -33.238  1.00  0.00     0.051 A 
HETATM   33  C   UNL     1      -7.777   1.648 -32.399  1.00  0.00    -0.013 A 
HETATM   34  C   UNL     1      -8.164   0.491 -31.521  1.00  0.00     0.052 C 
HETATM   35  C   UNL     1      -8.564   2.812 -32.440  1.00  0.00     0.042 A 
HETATM   36 CL   UNL     1     -10.012   2.958 -31.509  1.00  0.00    -0.084 Cl
HETATM   37  C   UNL     1      -8.205   3.905 -33.242  1.00  0.00     0.024 A 
HETATM   38  C   UNL     1      -7.057   3.860 -34.032  1.00  0.00     0.004 A 
HETATM   39  C   UNL     1      -6.272   2.714 -34.036  1.00  0.00     0.031 A 
ENDBRANCH   1  32
BRANCH   6  40
HETATM   40  N   UNL     1      -7.247  -0.507 -34.955  1.00  0.00    -0.384 N 
HETATM   41  H   UNL     1      -8.172  -0.609 -34.549  1.00  0.00     0.157 HD
HETATM   42  H   UNL     1      -7.178  -0.855 -35.904  1.00  0.00     0.157 HD
ENDBRANCH   6  40
TORSDOF 10
ENDMDL
MODEL 7
REMARK VINA RESULT:      -8.7      3.998      8.675
REMARK  10 active torsions:
REMARK  status: ('A' for Active; 'I' for Inactive)
REMARK    1  A    between atoms: C_8  and  N_9 
REMARK    2  A    between atoms: C_10  and  S_11 
REMARK    3  A    between atoms: S_11  and  C_12 
REMARK    4  A    between atoms: C_12  and  C_13 
REMARK       I    between atoms: C_13  and  N_14 
REMARK    5  A    between atoms: N_14  and  C_15 
REMARK    6  A    between atoms: C_15  and  C_16 
REMARK    7  A    between atoms: C_16  and  C_17 
REMARK    8  A    between atoms: C_20  and  S_21 
REMARK    9  A    between atoms: S_21  and  N_22 
REMARK   10  A    between atoms: C_31  and  N_32 
ROOT
HETATM    1  N   UNL     1      -5.095   4.507 -32.136  1.00  0.00    -0.275 N 
HETATM    2  C   UNL     1      -4.926   3.353 -31.428  1.00  0.00     0.177 A 
HETATM    3  N   UNL     1      -5.867   2.779 -30.645  1.00  0.00    -0.204 NA
HETATM    4  C   UNL     1      -7.006   3.470 -30.645  1.00  0.00     0.162 A 
HETATM    5  C   UNL     1      -7.266   4.640 -31.326  1.00  0.00     0.081 A 
HETATM    6  C   UNL     1      -6.273   5.195 -32.149  1.00  0.00     0.124 A 
HETATM    7  N   UNL     1      -8.136   3.155 -29.948  1.00  0.00    -0.260 N 
HETATM    8  H   UNL     1      -8.297   2.353 -29.347  1.00  0.00     0.191 HD
HETATM    9  N   UNL     1      -9.114   4.060 -30.095  1.00  0.00    -0.177 NA
HETATM   10  C   UNL     1      -8.596   4.975 -30.924  1.00  0.00     0.068 A 
HETATM   11  C   UNL     1      -9.407   6.168 -31.282  1.00  0.00     0.073 C 
ENDROOT
BRANCH   2  12
HETATM   12  S   UNL     1      -3.322   2.531 -31.345  1.00  0.00    -0.082 SA
BRANCH  12  13
HETATM   13  C   UNL     1      -3.526   1.289 -32.667  1.00  0.00     0.185 C 
BRANCH  13  14
HETATM   14  C   UNL     1      -4.644   0.307 -32.344  1.00  0.00     0.227 C 
HETATM   15  N   UNL     1      -5.816   0.555 -33.029  1.00  0.00    -0.360 N 
HETATM   16  H   UNL     1      -5.793   1.190 -33.819  1.00  0.00     0.162 HD
HETATM   17  O   UNL     1      -4.507  -0.623 -31.552  1.00  0.00    -0.273 OA
BRANCH  15  18
HETATM   18  C   UNL     1      -6.968  -0.329 -32.917  1.00  0.00     0.127 C 
BRANCH  18  19
HETATM   19  C   UNL     1      -8.059   0.278 -32.032  1.00  0.00     0.058 C 
BRANCH  19  20
HETATM   20  C   UNL     1      -9.209   0.832 -32.834  1.00  0.00    -0.057 A 
HETATM   21  C   UNL     1      -9.110   2.095 -33.440  1.00  0.00     0.009 A 
HETATM   22  C   UNL     1     -10.179   2.611 -34.176  1.00  0.00     0.025 A 
HETATM   23  C   UNL     1     -11.349   1.862 -34.312  1.00  0.00     0.074 A 
HETATM   24  C   UNL     1     -11.468   0.611 -33.703  1.00  0.00     0.025 A 
HETATM   25  C   UNL     1     -10.397   0.098 -32.968  1.00  0.00     0.009 A 
BRANCH  23  26
HETATM   26  S   UNL     1     -12.723   2.535 -35.203  1.00  0.00     0.239 S 
HETATM   27  O   UNL     1     -13.888   1.720 -34.954  1.00  0.00    -0.206 OA
HETATM   28  O   UNL     1     -12.730   3.969 -35.042  1.00  0.00    -0.206 OA
BRANCH  26  29
HETATM   29  N   UNL     1     -12.282   2.246 -36.796  1.00  0.00    -0.225 NA
HETATM   30  H   UNL     1     -13.117   2.152 -37.376  1.00  0.00     0.136 HD
HETATM   31  H   UNL     1     -11.645   2.975 -37.119  1.00  0.00     0.136 HD
ENDBRANCH  26  29
ENDBRANCH  23  26
ENDBRANCH  19  20
ENDBRANCH  18  19
ENDBRANCH  15  18
ENDBRANCH  13  14
ENDBRANCH  12  13
ENDBRANCH   2  12
BRANCH   1  32
HETATM   32  C   UNL     1      -3.965   5.095 -32.808  1.00  0.00     0.051 A 
HETATM   33  C   UNL     1      -3.074   5.934 -32.119  1.00  0.00    -0.013 A 
HETATM   34  C   UNL     1      -3.242   6.283 -30.667  1.00  0.00     0.052 C 
HETATM   35  C   UNL     1      -2.015   6.473 -32.869  1.00  0.00     0.042 A 
HETATM   36 CL   UNL     1      -0.877   7.569 -32.169  1.00  0.00    -0.084 Cl
HETATM   37  C   UNL     1      -1.837   6.141 -34.220  1.00  0.00     0.024 A 
HETATM   38  C   UNL     1      -2.719   5.272 -34.860  1.00  0.00     0.004 A 
HETATM   39  C   UNL     1      -3.794   4.744 -34.156  1.00  0.00     0.031 A 
ENDBRANCH   1  32
BRANCH   6  40
HETATM   40  N   UNL     1      -6.458   6.368 -32.873  1.00  0.00    -0.384 N 
HETATM   41  H   UNL     1      -7.412   6.655 -33.071  1.00  0.00     0.157 HD
HETATM   42  H   UNL     1      -5.794   6.648 -33.586  1.00  0.00     0.157 HD
ENDBRANCH   6  40
TORSDOF 10
ENDMDL
MODEL 8
REMARK VINA RESULT:      -8.6      3.626      6.087
REMARK  10 active torsions:
REMARK  status: ('A' for Active; 'I' for Inactive)
REMARK    1  A    between atoms: C_8  and  N_9 
REMARK    2  A    between atoms: C_10  and  S_11 
REMARK    3  A    between atoms: S_11  and  C_12 
REMARK    4  A    between atoms: C_12  and  C_13 
REMARK       I    between atoms: C_13  and  N_14 
REMARK    5  A    between atoms: N_14  and  C_15 
REMARK    6  A    between atoms: C_15  and  C_16 
REMARK    7  A    between atoms: C_16  and  C_17 
REMARK    8  A    between atoms: C_20  and  S_21 
REMARK    9  A    between atoms: S_21  and  N_22 
REMARK   10  A    between atoms: C_31  and  N_32 
ROOT
HETATM    1  N   UNL     1      -8.632   1.440 -33.178  1.00  0.00    -0.275 N 
HETATM    2  C   UNL     1      -8.381   2.657 -33.743  1.00  0.00     0.177 A 
HETATM    3  N   UNL     1      -9.312   3.453 -34.314  1.00  0.00    -0.204 NA
HETATM    4  C   UNL     1     -10.530   2.916 -34.260  1.00  0.00     0.162 A 
HETATM    5  C   UNL     1     -10.876   1.699 -33.712  1.00  0.00     0.081 A 
HETATM    6  C   UNL     1      -9.886   0.909 -33.105  1.00  0.00     0.124 A 
HETATM    7  N   UNL     1     -11.675   3.468 -34.757  1.00  0.00    -0.260 N 
HETATM    8  H   UNL     1     -11.787   4.364 -35.220  1.00  0.00     0.191 HD
HETATM    9  N   UNL     1     -12.748   2.679 -34.606  1.00  0.00    -0.177 NA
HETATM   10  C   UNL     1     -12.276   1.594 -33.980  1.00  0.00     0.068 A 
HETATM   11  C   UNL     1     -13.202   0.471 -33.681  1.00  0.00     0.073 C 
ENDROOT
BRANCH   2  12
HETATM   12  S   UNL     1      -6.696   3.278 -33.923  1.00  0.00    -0.082 SA
BRANCH  12  13
HETATM   13  C   UNL     1      -7.012   5.075 -33.915  1.00  0.00     0.185 C 
BRANCH  13  14
HETATM   14  C   UNL     1      -6.701   5.691 -32.558  1.00  0.00     0.227 C 
HETATM   15  N   UNL     1      -6.520   4.762 -31.554  1.00  0.00    -0.360 N 
HETATM   16  H   UNL     1      -6.385   3.790 -31.810  1.00  0.00     0.162 HD
HETATM   17  O   UNL     1      -6.615   6.905 -32.380  1.00  0.00    -0.273 OA
BRANCH  15  18
HETATM   18  C   UNL     1      -6.129   5.157 -30.207  1.00  0.00     0.127 C 
BRANCH  18  19
HETATM   19  C   UNL     1      -7.197   4.779 -29.179  1.00  0.00     0.058 C 
BRANCH  19  20
HETATM   20  C   UNL     1      -8.593   4.860 -29.741  1.00  0.00    -0.057 A 
HETATM   21  C   UNL     1      -9.260   6.092 -29.815  1.00  0.00     0.009 A 
HETATM   22  C   UNL     1     -10.556   6.166 -30.329  1.00  0.00     0.025 A 
HETATM   23  C   UNL     1     -11.188   5.004 -30.776  1.00  0.00     0.074 A 
HETATM   24  C   UNL     1     -10.543   3.768 -30.696  1.00  0.00     0.025 A 
HETATM   25  C   UNL     1      -9.247   3.699 -30.182  1.00  0.00     0.009 A 
BRANCH  23  26
HETATM   26  S   UNL     1     -12.849   5.086 -31.383  1.00  0.00     0.239 S 
HETATM   27  O   UNL     1     -13.677   5.740 -30.398  1.00  0.00    -0.206 OA
HETATM   28  O   UNL     1     -12.824   5.493 -32.768  1.00  0.00    -0.206 OA
BRANCH  26  29
HETATM   29  N   UNL     1     -13.304   3.471 -31.379  1.00  0.00    -0.225 NA
HETATM   30  H   UNL     1     -12.772   2.959 -32.084  1.00  0.00     0.136 HD
HETATM   31  H   UNL     1     -13.208   3.085 -30.439  1.00  0.00     0.136 HD
ENDBRANCH  26  29
ENDBRANCH  23  26
ENDBRANCH  19  20
ENDBRANCH  18  19
ENDBRANCH  15  18
ENDBRANCH  13  14
ENDBRANCH  12  13
ENDBRANCH   2  12
BRANCH   1  32
HETATM   32  C   UNL     1      -7.529   0.624 -32.742  1.00  0.00     0.051 A 
HETATM   33  C   UNL     1      -6.870  -0.234 -33.638  1.00  0.00    -0.013 A 
HETATM   34  C   UNL     1      -7.270  -0.371 -35.080  1.00  0.00     0.052 C 
HETATM   35  C   UNL     1      -5.818  -1.003 -33.109  1.00  0.00     0.042 A 
HETATM   36 CL   UNL     1      -4.958  -2.146 -34.079  1.00  0.00    -0.084 Cl
HETATM   37  C   UNL     1      -5.423  -0.873 -31.770  1.00  0.00     0.024 A 
HETATM   38  C   UNL     1      -6.075   0.020 -30.921  1.00  0.00     0.004 A 
HETATM   39  C   UNL     1      -7.137   0.774 -31.404  1.00  0.00     0.031 A 
ENDBRANCH   1  32
BRANCH   6  40
HETATM   40  N   UNL     1     -10.153  -0.327 -32.525  1.00  0.00    -0.384 N 
HETATM   41  H   UNL     1      -9.493  -1.079 -32.693  1.00  0.00     0.157 HD
HETATM   42  H   UNL     1     -11.107  -0.645 -32.397  1.00  0.00     0.157 HD
ENDBRANCH   6  40
TORSDOF 10
ENDMDL
MODEL 9
REMARK VINA RESULT:      -8.6      3.729      9.738
REMARK  10 active torsions:
REMARK  status: ('A' for Active; 'I' for Inactive)
REMARK    1  A    between atoms: C_8  and  N_9 
REMARK    2  A    between atoms: C_10  and  S_11 
REMARK    3  A    between atoms: S_11  and  C_12 
REMARK    4  A    between atoms: C_12  and  C_13 
REMARK       I    between atoms: C_13  and  N_14 
REMARK    5  A    between atoms: N_14  and  C_15 
REMARK    6  A    between atoms: C_15  and  C_16 
REMARK    7  A    between atoms: C_16  and  C_17 
REMARK    8  A    between atoms: C_20  and  S_21 
REMARK    9  A    between atoms: S_21  and  N_22 
REMARK   10  A    between atoms: C_31  and  N_32 
ROOT
HETATM    1  N   UNL     1      -3.720   5.331 -31.154  1.00  0.00    -0.275 N 
HETATM    2  C   UNL     1      -2.819   4.411 -31.605  1.00  0.00     0.177 A 
HETATM    3  N   UNL     1      -1.483   4.478 -31.415  1.00  0.00    -0.204 NA
HETATM    4  C   UNL     1      -1.130   5.557 -30.718  1.00  0.00     0.162 A 
HETATM    5  C   UNL     1      -1.966   6.535 -30.225  1.00  0.00     0.081 A 
HETATM    6  C   UNL     1      -3.353   6.421 -30.420  1.00  0.00     0.124 A 
HETATM    7  N   UNL     1       0.143   5.909 -30.372  1.00  0.00    -0.260 N 
HETATM    8  H   UNL     1       1.004   5.411 -30.568  1.00  0.00     0.191 HD
HETATM    9  N   UNL     1       0.204   7.076 -29.715  1.00  0.00    -0.177 NA
HETATM   10  C   UNL     1      -1.071   7.474 -29.625  1.00  0.00     0.068 A 
HETATM   11  C   UNL     1      -1.379   8.775 -28.976  1.00  0.00     0.073 C 
ENDROOT
BRANCH   2  12
HETATM   12  S   UNL     1      -3.328   3.044 -32.667  1.00  0.00    -0.082 SA
BRANCH  12  13
HETATM   13  C   UNL     1      -3.445   1.703 -31.435  1.00  0.00     0.185 C 
BRANCH  13  14
HETATM   14  C   UNL     1      -4.513   0.686 -31.814  1.00  0.00     0.227 C 
HETATM   15  N   UNL     1      -5.507   1.200 -32.621  1.00  0.00    -0.360 N 
HETATM   16  H   UNL     1      -5.356   2.097 -33.068  1.00  0.00     0.162 HD
HETATM   17  O   UNL     1      -4.482  -0.485 -31.440  1.00  0.00    -0.273 OA
BRANCH  15  18
HETATM   18  C   UNL     1      -6.567   0.357 -33.158  1.00  0.00     0.127 C 
BRANCH  18  19
HETATM   19  C   UNL     1      -7.823   0.409 -32.286  1.00  0.00     0.058 C 
BRANCH  19  20
HETATM   20  C   UNL     1      -9.024   0.926 -33.036  1.00  0.00    -0.057 A 
HETATM   21  C   UNL     1      -8.946   2.122 -33.766  1.00  0.00     0.009 A 
HETATM   22  C   UNL     1     -10.061   2.605 -34.455  1.00  0.00     0.025 A 
HETATM   23  C   UNL     1     -11.258   1.887 -34.418  1.00  0.00     0.074 A 
HETATM   24  C   UNL     1     -11.355   0.703 -33.685  1.00  0.00     0.025 A 
HETATM   25  C   UNL     1     -10.238   0.224 -32.999  1.00  0.00     0.009 A 
BRANCH  23  26
HETATM   26  S   UNL     1     -12.686   2.522 -35.250  1.00  0.00     0.239 S 
HETATM   27  O   UNL     1     -13.802   1.640 -35.005  1.00  0.00    -0.206 OA
HETATM   28  O   UNL     1     -12.763   3.947 -35.032  1.00  0.00    -0.206 OA
BRANCH  26  29
HETATM   29  N   UNL     1     -12.273   2.317 -36.863  1.00  0.00    -0.225 NA
HETATM   30  H   UNL     1     -12.565   1.392 -37.182  1.00  0.00     0.136 HD
HETATM   31  H   UNL     1     -12.659   3.079 -37.421  1.00  0.00     0.136 HD
ENDBRANCH  26  29
ENDBRANCH  23  26
ENDBRANCH  19  20
ENDBRANCH  18  19
ENDBRANCH  15  18
ENDBRANCH  13  14
ENDBRANCH  12  13
ENDBRANCH   2  12
BRANCH   1  32
HETATM   32  C   UNL     1      -5.099   5.225 -31.555  1.00  0.00     0.051 A 
HETATM   33  C   UNL     1      -6.018   4.490 -30.788  1.00  0.00    -0.013 A 
HETATM   34  C   UNL     1      -5.633   3.765 -29.530  1.00  0.00     0.052 C 
HETATM   35  C   UNL     1      -7.335   4.432 -31.276  1.00  0.00     0.042 A 
HETATM   36 CL   UNL     1      -8.557   3.515 -30.470  1.00  0.00    -0.084 Cl
HETATM   37  C   UNL     1      -7.711   5.118 -32.439  1.00  0.00     0.024 A 
HETATM   38  C   UNL     1      -6.780   5.872 -33.153  1.00  0.00     0.004 A 
HETATM   39  C   UNL     1      -5.463   5.927 -32.714  1.00  0.00     0.031 A 
ENDBRANCH   1  32
BRANCH   6  40
HETATM   40  N   UNL     1      -4.264   7.360 -29.949  1.00  0.00    -0.384 N 
HETATM   41  H   UNL     1      -4.080   8.338 -30.153  1.00  0.00     0.157 HD
HETATM   42  H   UNL     1      -4.757   7.213 -29.076  1.00  0.00     0.157 HD
ENDBRANCH   6  40
TORSDOF 10
ENDMDL
MODEL 10
REMARK VINA RESULT:      -8.4      2.764      3.802
REMARK  10 active torsions:
REMARK  status: ('A' for Active; 'I' for Inactive)
REMARK    1  A    between atoms: C_8  and  N_9 
REMARK    2  A    between atoms: C_10  and  S_11 
REMARK    3  A    between atoms: S_11  and  C_12 
REMARK    4  A    between atoms: C_12  and  C_13 
REMARK       I    between atoms: C_13  and  N_14 
REMARK    5  A    between atoms: N_14  and  C_15 
REMARK    6  A    between atoms: C_15  and  C_16 
REMARK    7  A    between atoms: C_16  and  C_17 
REMARK    8  A    between atoms: C_20  and  S_21 
REMARK    9  A    between atoms: S_21  and  N_22 
REMARK   10  A    between atoms: C_31  and  N_32 
ROOT
HETATM    1  N   UNL     1      -9.786   2.156 -33.375  1.00  0.00    -0.275 N 
HETATM    2  C   UNL     1     -10.116   3.379 -33.884  1.00  0.00     0.177 A 
HETATM    3  N   UNL     1     -11.331   3.713 -34.372  1.00  0.00    -0.204 NA
HETATM    4  C   UNL     1     -12.196   2.703 -34.293  1.00  0.00     0.162 A 
HETATM    5  C   UNL     1     -11.954   1.440 -33.797  1.00  0.00     0.081 A 
HETATM    6  C   UNL     1     -10.685   1.135 -33.276  1.00  0.00     0.124 A 
HETATM    7  N   UNL     1     -13.496   2.723 -34.710  1.00  0.00    -0.260 N 
HETATM    8  H   UNL     1     -14.008   3.497 -35.120  1.00  0.00     0.191 HD
HETATM    9  N   UNL     1     -14.116   1.545 -34.556  1.00  0.00    -0.177 NA
HETATM   10  C   UNL     1     -13.187   0.751 -34.009  1.00  0.00     0.068 A 
HETATM   11  C   UNL     1     -13.523  -0.670 -33.731  1.00  0.00     0.073 C 
ENDROOT
BRANCH   2  12
HETATM   12  S   UNL     1      -8.873   4.669 -34.103  1.00  0.00    -0.082 SA
BRANCH  12  13
HETATM   13  C   UNL     1      -9.735   6.081 -33.334  1.00  0.00     0.185 C 
BRANCH  13  14
HETATM   14  C   UNL     1      -8.883   6.735 -32.253  1.00  0.00     0.227 C 
HETATM   15  N   UNL     1      -8.765   5.978 -31.106  1.00  0.00    -0.360 N 
HETATM   16  H   UNL     1      -9.041   5.003 -31.135  1.00  0.00     0.162 HD
HETATM   17  O   UNL     1      -8.347   7.831 -32.400  1.00  0.00    -0.273 OA
BRANCH  15  18
HETATM   18  C   UNL     1      -7.918   6.398 -29.997  1.00  0.00     0.127 C 
BRANCH  18  19
HETATM   19  C   UNL     1      -6.723   5.461 -29.815  1.00  0.00     0.058 C 
BRANCH  19  20
HETATM   20  C   UNL     1      -5.505   5.928 -30.571  1.00  0.00    -0.057 A 
HETATM   21  C   UNL     1      -4.527   5.009 -30.981  1.00  0.00     0.009 A 
HETATM   22  C   UNL     1      -3.395   5.442 -31.675  1.00  0.00     0.025 A 
HETATM   23  C   UNL     1      -3.242   6.800 -31.965  1.00  0.00     0.074 A 
HETATM   24  C   UNL     1      -4.199   7.728 -31.552  1.00  0.00     0.025 A 
HETATM   25  C   UNL     1      -5.330   7.290 -30.859  1.00  0.00     0.009 A 
BRANCH  23  26
HETATM   26  S   UNL     1      -1.785   7.359 -32.802  1.00  0.00     0.239 S 
HETATM   27  O   UNL     1      -1.666   8.787 -32.632  1.00  0.00    -0.206 OA
HETATM   28  O   UNL     1      -0.700   6.451 -32.513  1.00  0.00    -0.206 OA
BRANCH  26  29
HETATM   29  N   UNL     1      -2.187   7.109 -34.411  1.00  0.00    -0.225 NA
HETATM   30  H   UNL     1      -2.969   6.456 -34.476  1.00  0.00     0.136 HD
HETATM   31  H   UNL     1      -2.368   8.004 -34.868  1.00  0.00     0.136 HD
ENDBRANCH  26  29
ENDBRANCH  23  26
ENDBRANCH  19  20
ENDBRANCH  18  19
ENDBRANCH  15  18
ENDBRANCH  13  14
ENDBRANCH  12  13
ENDBRANCH   2  12
BRANCH   1  32
HETATM   32  C   UNL     1      -8.415   1.881 -33.031  1.00  0.00     0.051 A 
HETATM   33  C   UNL     1      -7.959   2.036 -31.711  1.00  0.00    -0.013 A 
HETATM   34  C   UNL     1      -8.846   2.505 -30.592  1.00  0.00     0.052 C 
HETATM   35  C   UNL     1      -6.600   1.761 -31.483  1.00  0.00     0.042 A 
HETATM   36 CL   UNL     1      -5.885   1.967 -29.923  1.00  0.00    -0.084 Cl
HETATM   37  C   UNL     1      -5.766   1.306 -32.514  1.00  0.00     0.024 A 
HETATM   38  C   UNL     1      -6.264   1.124 -33.804  1.00  0.00     0.004 A 
HETATM   39  C   UNL     1      -7.597   1.415 -34.070  1.00  0.00     0.031 A 
ENDBRANCH   1  32
BRANCH   6  40
HETATM   40  N   UNL     1     -10.362  -0.112 -32.751  1.00  0.00    -0.384 N 
HETATM   41  H   UNL     1      -9.661  -0.661 -33.239  1.00  0.00     0.157 HD
HETATM   42  H   UNL     1     -11.061  -0.673 -32.277  1.00  0.00     0.157 HD
ENDBRANCH   6  40
TORSDOF 10
ENDMDL
