MODEL 1
REMARK VINA RESULT:      -8.3      0.000      0.000
REMARK  6 active torsions:
REMARK  status: ('A' for Active; 'I' for Inactive)
REMARK    1  A    between atoms: C_7  and  S_8 
REMARK    2  A    between atoms: S_8  and  C_9 
REMARK    3  A    between atoms: C_9  and  C_10 
REMARK    4  A    between atoms: C_18  and  C_19 
REMARK    5  A    between atoms: C_26  and  C_27 
REMARK    6  A    between atoms: C_27  and  O_28 
ROOT
HETATM    1  C   UNL     1      -3.193  -3.443 -31.918  1.00  0.00     0.070 C 
HETATM    2  C   UNL     1      -3.684  -2.059 -32.256  1.00  0.00     0.037 C 
HETATM    3  N   UNL     1      -3.298  -1.051 -31.376  1.00  0.00    -0.192 N 
HETATM    4  C   UNL     1      -3.428   0.259 -31.660  1.00  0.00     0.726 A 
HETATM    5  N   UNL     1      -4.143   0.639 -32.762  1.00  0.00    -0.082 N 
HETATM    6  N   UNL     1      -4.083   1.975 -32.949  1.00  0.00    -0.128 NA
HETATM    7  C   UNL     1      -3.338   2.341 -31.898  1.00  0.00     0.226 A 
HETATM    8  N   UNL     1      -2.929   1.316 -31.079  1.00  0.00    -0.035 NA
HETATM    9  C   UNL     1      -4.802  -0.304 -33.673  1.00  0.00     0.203 C 
HETATM   10  C   UNL     1      -4.399  -1.742 -33.366  1.00  0.00     0.070 C 
HETATM   11  H   UNL     1      -2.683  -1.312 -30.608  1.00  0.00     0.184 HD
ENDROOT
BRANCH   7  12
HETATM   12  S   UNL     1      -2.844   3.982 -31.598  1.00  0.00    -0.083 SA
BRANCH  12  13
HETATM   13  C   UNL     1      -4.317   4.659 -30.788  1.00  0.00     0.123 C 
BRANCH  13  14
HETATM   14  C   UNL     1      -5.536   4.506 -31.671  1.00  0.00    -0.027 A 
HETATM   15  C   UNL     1      -6.611   3.660 -31.351  1.00  0.00     0.041 A 
HETATM   16 CL   UNL     1      -6.652   2.739 -29.890  1.00  0.00    -0.084 Cl
HETATM   17  C   UNL     1      -7.697   3.531 -32.223  1.00  0.00     0.024 A 
HETATM   18  C   UNL     1      -7.724   4.234 -33.427  1.00  0.00     0.002 A 
HETATM   19  C   UNL     1      -6.663   5.070 -33.762  1.00  0.00     0.001 A 
HETATM   20  C   UNL     1      -5.579   5.205 -32.893  1.00  0.00     0.009 A 
ENDBRANCH  13  14
ENDBRANCH  12  13
ENDBRANCH   7  12
BRANCH   9  21
HETATM   21  C   UNL     1      -6.319  -0.113 -33.623  1.00  0.00    -0.028 A 
HETATM   22  C   UNL     1      -6.994  -0.212 -32.394  1.00  0.00     0.011 A 
HETATM   23  C   UNL     1      -8.375  -0.015 -32.320  1.00  0.00     0.024 A 
HETATM   24  C   UNL     1      -9.094   0.287 -33.474  1.00  0.00     0.034 A 
HETATM   25 CL   UNL     1     -10.794   0.534 -33.382  1.00  0.00    -0.084 Cl
HETATM   26  C   UNL     1      -8.444   0.396 -34.700  1.00  0.00     0.024 A 
HETATM   27  C   UNL     1      -7.063   0.202 -34.776  1.00  0.00     0.011 A 
ENDBRANCH   9  21
BRANCH  10  28
HETATM   28  C   UNL     1      -4.806  -2.701 -34.415  1.00  0.00     0.293 C 
HETATM   29  O   UNL     1      -4.083  -2.994 -35.354  1.00  0.00    -0.259 OA
BRANCH  28  30
HETATM   30  O   UNL     1      -6.074  -3.134 -34.221  1.00  0.00    -0.323 OA
HETATM   31  C   UNL     1      -6.369  -4.375 -34.864  1.00  0.00     0.213 C 
ENDBRANCH  28  30
ENDBRANCH  10  28
TORSDOF 6
ENDMDL
MODEL 2
REMARK VINA RESULT:      -8.2      3.459      7.376
REMARK  6 active torsions:
REMARK  status: ('A' for Active; 'I' for Inactive)
REMARK    1  A    between atoms: C_7  and  S_8 
REMARK    2  A    between atoms: S_8  and  C_9 
REMARK    3  A    between atoms: C_9  and  C_10 
REMARK    4  A    between atoms: C_18  and  C_19 
REMARK    5  A    between atoms: C_26  and  C_27 
REMARK    6  A    between atoms: C_27  and  O_28 
ROOT
HETATM    1  C   UNL     1      -8.489   4.172 -30.714  1.00  0.00     0.070 C 
HETATM    2  C   UNL     1      -7.189   3.615 -31.236  1.00  0.00     0.037 C 
HETATM    3  N   UNL     1      -6.760   2.431 -30.642  1.00  0.00    -0.192 N 
HETATM    4  C   UNL     1      -5.774   1.670 -31.154  1.00  0.00     0.726 A 
HETATM    5  N   UNL     1      -5.017   2.156 -32.183  1.00  0.00    -0.082 N 
HETATM    6  N   UNL     1      -4.149   1.226 -32.636  1.00  0.00    -0.128 NA
HETATM    7  C   UNL     1      -4.417   0.209 -31.807  1.00  0.00     0.226 A 
HETATM    8  N   UNL     1      -5.399   0.451 -30.876  1.00  0.00    -0.035 NA
HETATM    9  C   UNL     1      -5.204   3.484 -32.778  1.00  0.00     0.203 C 
HETATM   10  C   UNL     1      -6.476   4.147 -32.262  1.00  0.00     0.070 C 
HETATM   11  H   UNL     1      -7.369   2.011 -29.943  1.00  0.00     0.184 HD
ENDROOT
BRANCH   7  12
HETATM   12  S   UNL     1      -3.645  -1.346 -31.915  1.00  0.00    -0.083 SA
BRANCH  12  13
HETATM   13  C   UNL     1      -3.574  -1.588 -33.710  1.00  0.00     0.123 C 
BRANCH  13  14
HETATM   14  C   UNL     1      -4.571  -2.636 -34.153  1.00  0.00    -0.027 A 
HETATM   15  C   UNL     1      -5.887  -2.328 -34.535  1.00  0.00     0.041 A 
HETATM   16 CL   UNL     1      -6.477  -0.704 -34.567  1.00  0.00    -0.084 Cl
HETATM   17  C   UNL     1      -6.777  -3.343 -34.901  1.00  0.00     0.024 A 
HETATM   18  C   UNL     1      -6.373  -4.677 -34.884  1.00  0.00     0.002 A 
HETATM   19  C   UNL     1      -5.075  -5.000 -34.501  1.00  0.00     0.001 A 
HETATM   20  C   UNL     1      -4.181  -3.990 -34.138  1.00  0.00     0.009 A 
ENDBRANCH  13  14
ENDBRANCH  12  13
ENDBRANCH   7  12
BRANCH   9  21
HETATM   21  C   UNL     1      -3.968   4.351 -32.531  1.00  0.00    -0.028 A 
HETATM   22  C   UNL     1      -3.144   4.715 -33.610  1.00  0.00     0.011 A 
HETATM   23  C   UNL     1      -2.026   5.529 -33.411  1.00  0.00     0.024 A 
HETATM   24  C   UNL     1      -1.722   5.990 -32.133  1.00  0.00     0.034 A 
HETATM   25 CL   UNL     1      -0.348   6.995 -31.889  1.00  0.00    -0.084 Cl
HETATM   26  C   UNL     1      -2.528   5.646 -31.051  1.00  0.00     0.024 A 
HETATM   27  C   UNL     1      -3.648   4.835 -31.248  1.00  0.00     0.011 A 
ENDBRANCH   9  21
BRANCH  10  28
HETATM   28  C   UNL     1      -6.860   5.353 -33.025  1.00  0.00     0.293 C 
HETATM   29  O   UNL     1      -6.661   6.485 -32.610  1.00  0.00    -0.259 OA
BRANCH  28  30
HETATM   30  O   UNL     1      -7.499   5.027 -34.173  1.00  0.00    -0.323 OA
HETATM   31  C   UNL     1      -8.892   5.345 -34.173  1.00  0.00     0.213 C 
ENDBRANCH  28  30
ENDBRANCH  10  28
TORSDOF 6
ENDMDL
MODEL 3
REMARK VINA RESULT:      -8.1      3.742      5.970
REMARK  6 active torsions:
REMARK  status: ('A' for Active; 'I' for Inactive)
REMARK    1  A    between atoms: C_7  and  S_8 
REMARK    2  A    between atoms: S_8  and  C_9 
REMARK    3  A    between atoms: C_9  and  C_10 
REMARK    4  A    between atoms: C_18  and  C_19 
REMARK    5  A    between atoms: C_26  and  C_27 
REMARK    6  A    between atoms: C_27  and  O_28 
ROOT
HETATM    1  C   UNL     1      -9.071   5.417 -32.838  1.00  0.00     0.070 C 
HETATM    2  C   UNL     1      -7.733   4.736 -32.975  1.00  0.00     0.037 C 
HETATM    3  N   UNL     1      -6.820   5.369 -33.814  1.00  0.00    -0.192 N 
HETATM    4  C   UNL     1      -5.512   5.047 -33.849  1.00  0.00     0.726 A 
HETATM    5  N   UNL     1      -5.079   3.929 -33.192  1.00  0.00    -0.082 N 
HETATM    6  N   UNL     1      -3.735   3.817 -33.248  1.00  0.00    -0.128 NA
HETATM    7  C   UNL     1      -3.425   4.890 -33.987  1.00  0.00     0.226 A 
HETATM    8  N   UNL     1      -4.492   5.660 -34.384  1.00  0.00    -0.035 NA
HETATM    9  C   UNL     1      -5.962   3.030 -32.439  1.00  0.00     0.203 C 
HETATM   10  C   UNL     1      -7.360   3.620 -32.298  1.00  0.00     0.070 C 
HETATM   11  H   UNL     1      -7.101   6.254 -34.230  1.00  0.00     0.184 HD
ENDROOT
BRANCH   7  12
HETATM   12  S   UNL     1      -1.792   5.348 -34.377  1.00  0.00    -0.083 SA
BRANCH  12  13
HETATM   13  C   UNL     1      -1.639   6.923 -33.493  1.00  0.00     0.123 C 
BRANCH  13  14
HETATM   14  C   UNL     1      -1.026   6.717 -32.126  1.00  0.00    -0.027 A 
HETATM   15  C   UNL     1      -1.189   7.627 -31.069  1.00  0.00     0.041 A 
HETATM   16 CL   UNL     1      -2.144   9.059 -31.229  1.00  0.00    -0.084 Cl
HETATM   17  C   UNL     1      -0.568   7.404 -29.835  1.00  0.00     0.024 A 
HETATM   18  C   UNL     1       0.228   6.277 -29.640  1.00  0.00     0.002 A 
HETATM   19  C   UNL     1       0.407   5.368 -30.679  1.00  0.00     0.001 A 
HETATM   20  C   UNL     1      -0.214   5.586 -31.912  1.00  0.00     0.009 A 
ENDBRANCH  13  14
ENDBRANCH  12  13
ENDBRANCH   7  12
BRANCH   9  21
HETATM   21  C   UNL     1      -5.989   1.648 -33.094  1.00  0.00    -0.028 A 
HETATM   22  C   UNL     1      -5.393   0.555 -32.441  1.00  0.00     0.011 A 
HETATM   23  C   UNL     1      -5.430  -0.721 -33.007  1.00  0.00     0.024 A 
HETATM   24  C   UNL     1      -6.066  -0.919 -34.231  1.00  0.00     0.034 A 
HETATM   25 CL   UNL     1      -6.115  -2.491 -34.926  1.00  0.00    -0.084 Cl
HETATM   26  C   UNL     1      -6.668   0.149 -34.891  1.00  0.00     0.024 A 
HETATM   27  C   UNL     1      -6.634   1.425 -34.326  1.00  0.00     0.011 A 
ENDBRANCH   9  21
BRANCH  10  28
HETATM   28  C   UNL     1      -8.205   2.899 -31.323  1.00  0.00     0.293 C 
HETATM   29  O   UNL     1      -7.993   2.930 -30.120  1.00  0.00    -0.259 OA
BRANCH  28  30
HETATM   30  O   UNL     1      -9.165   2.174 -31.944  1.00  0.00    -0.323 OA
HETATM   31  C   UNL     1      -9.120   0.777 -31.650  1.00  0.00     0.213 C 
ENDBRANCH  28  30
ENDBRANCH  10  28
TORSDOF 6
ENDMDL
MODEL 4
REMARK VINA RESULT:      -8.0      4.101      7.762
REMARK  6 active torsions:
REMARK  status: ('A' for Active; 'I' for Inactive)
REMARK    1  A    between atoms: C_7  and  S_8 
REMARK    2  A    between atoms: S_8  and  C_9 
REMARK    3  A    between atoms: C_9  and  C_10 
REMARK    4  A    between atoms: C_18  and  C_19 
REMARK    5  A    between atoms: C_26  and  C_27 
REMARK    6  A    between atoms: C_27  and  O_28 
ROOT
HETATM    1  C   UNL     1      -6.946   5.014 -28.460  1.00  0.00     0.070 C 
HETATM    2  C   UNL     1      -6.792   4.372 -29.815  1.00  0.00     0.037 C 
HETATM    3  N   UNL     1      -6.878   2.983 -29.836  1.00  0.00    -0.192 N 
HETATM    4  C   UNL     1      -7.020   2.275 -30.973  1.00  0.00     0.726 A 
HETATM    5  N   UNL     1      -6.879   2.905 -32.178  1.00  0.00    -0.082 N 
HETATM    6  N   UNL     1      -7.154   2.071 -33.204  1.00  0.00    -0.128 NA
HETATM    7  C   UNL     1      -7.423   0.939 -32.540  1.00  0.00     0.226 A 
HETATM    8  N   UNL     1      -7.338   1.024 -31.171  1.00  0.00    -0.035 NA
HETATM    9  C   UNL     1      -6.567   4.332 -32.322  1.00  0.00     0.203 C 
HETATM   10  C   UNL     1      -6.648   5.053 -30.981  1.00  0.00     0.070 C 
HETATM   11  H   UNL     1      -7.082   2.513 -28.956  1.00  0.00     0.184 HD
ENDROOT
BRANCH   7  12
HETATM   12  S   UNL     1      -7.918  -0.536 -33.319  1.00  0.00    -0.083 SA
BRANCH  12  13
HETATM   13  C   UNL     1      -6.608  -0.745 -34.555  1.00  0.00     0.123 C 
BRANCH  13  14
HETATM   14  C   UNL     1      -5.999  -2.127 -34.466  1.00  0.00    -0.027 A 
HETATM   15  C   UNL     1      -4.683  -2.357 -34.035  1.00  0.00     0.041 A 
HETATM   16 CL   UNL     1      -3.644  -1.072 -33.528  1.00  0.00    -0.084 Cl
HETATM   17  C   UNL     1      -4.160  -3.655 -34.007  1.00  0.00     0.024 A 
HETATM   18  C   UNL     1      -4.936  -4.737 -34.417  1.00  0.00     0.002 A 
HETATM   19  C   UNL     1      -6.241  -4.526 -34.854  1.00  0.00     0.001 A 
HETATM   20  C   UNL     1      -6.768  -3.233 -34.880  1.00  0.00     0.009 A 
ENDBRANCH  13  14
ENDBRANCH  12  13
ENDBRANCH   7  12
BRANCH   9  21
HETATM   21  C   UNL     1      -5.200   4.509 -32.983  1.00  0.00    -0.028 A 
HETATM   22  C   UNL     1      -5.111   5.110 -34.251  1.00  0.00     0.011 A 
HETATM   23  C   UNL     1      -3.870   5.307 -34.862  1.00  0.00     0.024 A 
HETATM   24  C   UNL     1      -2.706   4.908 -34.211  1.00  0.00     0.034 A 
HETATM   25 CL   UNL     1      -1.178   5.154 -34.961  1.00  0.00    -0.084 Cl
HETATM   26  C   UNL     1      -2.771   4.316 -32.953  1.00  0.00     0.024 A 
HETATM   27  C   UNL     1      -4.010   4.121 -32.338  1.00  0.00     0.011 A 
ENDBRANCH   9  21
BRANCH  10  28
HETATM   28  C   UNL     1      -6.619   6.526 -31.105  1.00  0.00     0.293 C 
HETATM   29  O   UNL     1      -7.587   7.173 -31.474  1.00  0.00    -0.259 OA
BRANCH  28  30
HETATM   30  O   UNL     1      -5.391   7.019 -30.824  1.00  0.00    -0.323 OA
HETATM   31  C   UNL     1      -5.388   8.036 -29.820  1.00  0.00     0.213 C 
ENDBRANCH  28  30
ENDBRANCH  10  28
TORSDOF 6
ENDMDL
MODEL 5
REMARK VINA RESULT:      -8.0      4.507      7.845
REMARK  6 active torsions:
REMARK  status: ('A' for Active; 'I' for Inactive)
REMARK    1  A    between atoms: C_7  and  S_8 
REMARK    2  A    between atoms: S_8  and  C_9 
REMARK    3  A    between atoms: C_9  and  C_10 
REMARK    4  A    between atoms: C_18  and  C_19 
REMARK    5  A    between atoms: C_26  and  C_27 
REMARK    6  A    between atoms: C_27  and  O_28 
ROOT
HETATM    1  C   UNL     1     -13.750   0.677 -34.193  1.00  0.00     0.070 C 
HETATM    2  C   UNL     1     -12.337   1.164 -33.992  1.00  0.00     0.037 C 
HETATM    3  N   UNL     1     -11.552   0.396 -33.136  1.00  0.00    -0.192 N 
HETATM    4  C   UNL     1     -10.216   0.535 -33.046  1.00  0.00     0.726 A 
HETATM    5  N   UNL     1      -9.608   1.594 -33.662  1.00  0.00    -0.082 N 
HETATM    6  N   UNL     1      -8.264   1.519 -33.555  1.00  0.00    -0.128 NA
HETATM    7  C   UNL     1      -8.133   0.399 -32.831  1.00  0.00     0.226 A 
HETATM    8  N   UNL     1      -9.310  -0.223 -32.490  1.00  0.00    -0.035 NA
HETATM    9  C   UNL     1     -10.329   2.619 -34.424  1.00  0.00     0.203 C 
HETATM   10  C   UNL     1     -11.789   2.230 -34.630  1.00  0.00     0.070 C 
HETATM   11  H   UNL     1     -11.968  -0.449 -32.751  1.00  0.00     0.184 HD
ENDROOT
BRANCH   7  12
HETATM   12  S   UNL     1      -6.595  -0.285 -32.393  1.00  0.00    -0.083 SA
BRANCH  12  13
HETATM   13  C   UNL     1      -5.882  -0.638 -34.021  1.00  0.00     0.123 C 
BRANCH  13  14
HETATM   14  C   UNL     1      -5.597  -2.115 -34.178  1.00  0.00    -0.027 A 
HETATM   15  C   UNL     1      -4.439  -2.729 -33.673  1.00  0.00     0.041 A 
HETATM   16 CL   UNL     1      -3.244  -1.848 -32.789  1.00  0.00    -0.084 Cl
HETATM   17  C   UNL     1      -4.211  -4.094 -33.879  1.00  0.00     0.024 A 
HETATM   18  C   UNL     1      -5.126  -4.862 -34.596  1.00  0.00     0.002 A 
HETATM   19  C   UNL     1      -6.275  -4.268 -35.110  1.00  0.00     0.001 A 
HETATM   20  C   UNL     1      -6.509  -2.906 -34.903  1.00  0.00     0.009 A 
ENDBRANCH  13  14
ENDBRANCH  12  13
ENDBRANCH   7  12
BRANCH   9  21
HETATM   21  C   UNL     1     -10.193   3.979 -33.739  1.00  0.00    -0.028 A 
HETATM   22  C   UNL     1      -9.522   5.026 -34.395  1.00  0.00     0.011 A 
HETATM   23  C   UNL     1      -9.409   6.285 -33.800  1.00  0.00     0.024 A 
HETATM   24  C   UNL     1      -9.968   6.511 -32.545  1.00  0.00     0.034 A 
HETATM   25 CL   UNL     1      -9.832   8.062 -31.814  1.00  0.00    -0.084 Cl
HETATM   26  C   UNL     1     -10.641   5.490 -31.880  1.00  0.00     0.024 A 
HETATM   27  C   UNL     1     -10.758   4.231 -32.474  1.00  0.00     0.011 A 
ENDBRANCH   9  21
BRANCH  10  28
HETATM   28  C   UNL     1     -12.489   3.078 -35.617  1.00  0.00     0.293 C 
HETATM   29  O   UNL     1     -12.406   2.889 -36.821  1.00  0.00    -0.259 OA
BRANCH  28  30
HETATM   30  O   UNL     1     -13.150   4.093 -35.014  1.00  0.00    -0.323 OA
HETATM   31  C   UNL     1     -13.031   5.347 -35.688  1.00  0.00     0.213 C 
ENDBRANCH  28  30
ENDBRANCH  10  28
TORSDOF 6
ENDMDL
MODEL 6
REMARK VINA RESULT:      -7.5      4.139      7.676
REMARK  6 active torsions:
REMARK  status: ('A' for Active; 'I' for Inactive)
REMARK    1  A    between atoms: C_7  and  S_8 
REMARK    2  A    between atoms: S_8  and  C_9 
REMARK    3  A    between atoms: C_9  and  C_10 
REMARK    4  A    between atoms: C_18  and  C_19 
REMARK    5  A    between atoms: C_26  and  C_27 
REMARK    6  A    between atoms: C_27  and  O_28 
ROOT
HETATM    1  C   UNL     1      -1.486   5.205 -34.968  1.00  0.00     0.070 C 
HETATM    2  C   UNL     1      -2.398   5.029 -33.780  1.00  0.00     0.037 C 
HETATM    3  N   UNL     1      -3.632   4.444 -34.050  1.00  0.00    -0.192 N 
HETATM    4  C   UNL     1      -4.451   3.983 -33.085  1.00  0.00     0.726 A 
HETATM    5  N   UNL     1      -4.172   4.267 -31.777  1.00  0.00    -0.082 N 
HETATM    6  N   UNL     1      -5.034   3.644 -30.945  1.00  0.00    -0.128 NA
HETATM    7  C   UNL     1      -5.830   3.025 -31.828  1.00  0.00     0.226 A 
HETATM    8  N   UNL     1      -5.509   3.222 -33.149  1.00  0.00    -0.035 NA
HETATM    9  C   UNL     1      -3.020   5.064 -31.341  1.00  0.00     0.203 C 
HETATM   10  C   UNL     1      -2.066   5.335 -32.499  1.00  0.00     0.070 C 
HETATM   11  H   UNL     1      -3.807   4.141 -35.005  1.00  0.00     0.184 HD
ENDROOT
BRANCH   7  12
HETATM   12  S   UNL     1      -7.144   1.982 -31.368  1.00  0.00    -0.083 SA
BRANCH  12  13
HETATM   13  C   UNL     1      -6.265   0.443 -30.988  1.00  0.00     0.123 C 
BRANCH  13  14
HETATM   14  C   UNL     1      -6.113  -0.412 -32.226  1.00  0.00    -0.027 A 
HETATM   15  C   UNL     1      -4.909  -1.043 -32.577  1.00  0.00     0.041 A 
HETATM   16 CL   UNL     1      -3.490  -0.926 -31.597  1.00  0.00    -0.084 Cl
HETATM   17  C   UNL     1      -4.816  -1.794 -33.754  1.00  0.00     0.024 A 
HETATM   18  C   UNL     1      -5.916  -1.919 -34.600  1.00  0.00     0.002 A 
HETATM   19  C   UNL     1      -7.116  -1.294 -34.270  1.00  0.00     0.001 A 
HETATM   20  C   UNL     1      -7.214  -0.547 -33.095  1.00  0.00     0.009 A 
ENDBRANCH  13  14
ENDBRANCH  12  13
ENDBRANCH   7  12
BRANCH   9  21
HETATM   21  C   UNL     1      -3.494   6.358 -30.677  1.00  0.00    -0.028 A 
HETATM   22  C   UNL     1      -4.351   7.226 -31.376  1.00  0.00     0.011 A 
HETATM   23  C   UNL     1      -4.819   8.400 -30.779  1.00  0.00     0.024 A 
HETATM   24  C   UNL     1      -4.437   8.715 -29.478  1.00  0.00     0.034 A 
HETATM   25 CL   UNL     1      -5.016  10.158 -28.742  1.00  0.00    -0.084 Cl
HETATM   26  C   UNL     1      -3.595   7.866 -28.766  1.00  0.00     0.024 A 
HETATM   27  C   UNL     1      -3.128   6.691 -29.360  1.00  0.00     0.011 A 
ENDBRANCH   9  21
BRANCH  10  28
HETATM   28  C   UNL     1      -0.764   5.888 -32.070  1.00  0.00     0.293 C 
HETATM   29  O   UNL     1      -0.467   7.063 -32.222  1.00  0.00    -0.259 OA
BRANCH  28  30
HETATM   30  O   UNL     1       0.039   4.921 -31.566  1.00  0.00    -0.323 OA
HETATM   31  C   UNL     1       0.541   5.205 -30.259  1.00  0.00     0.213 C 
ENDBRANCH  28  30
ENDBRANCH  10  28
TORSDOF 6
ENDMDL
MODEL 7
REMARK VINA RESULT:      -7.3      3.776      6.075
REMARK  6 active torsions:
REMARK  status: ('A' for Active; 'I' for Inactive)
REMARK    1  A    between atoms: C_7  and  S_8 
REMARK    2  A    between atoms: S_8  and  C_9 
REMARK    3  A    between atoms: C_9  and  C_10 
REMARK    4  A    between atoms: C_18  and  C_19 
REMARK    5  A    between atoms: C_26  and  C_27 
REMARK    6  A    between atoms: C_27  and  O_28 
ROOT
HETATM    1  C   UNL     1     -10.667   5.361 -35.250  1.00  0.00     0.070 C 
HETATM    2  C   UNL     1      -9.648   4.677 -34.373  1.00  0.00     0.037 C 
HETATM    3  N   UNL     1      -8.449   5.363 -34.197  1.00  0.00    -0.192 N 
HETATM    4  C   UNL     1      -7.546   5.029 -33.255  1.00  0.00     0.726 A 
HETATM    5  N   UNL     1      -7.698   3.858 -32.566  1.00  0.00    -0.082 N 
HETATM    6  N   UNL     1      -6.765   3.734 -31.597  1.00  0.00    -0.128 NA
HETATM    7  C   UNL     1      -6.061   4.859 -31.783  1.00  0.00     0.226 A 
HETATM    8  N   UNL     1      -6.504   5.670 -32.800  1.00  0.00    -0.035 NA
HETATM    9  C   UNL     1      -8.797   2.913 -32.792  1.00  0.00     0.203 C 
HETATM   10  C   UNL     1      -9.855   3.507 -33.716  1.00  0.00     0.070 C 
HETATM   11  H   UNL     1      -8.368   6.282 -34.628  1.00  0.00     0.184 HD
ENDROOT
BRANCH   7  12
HETATM   12  S   UNL     1      -4.717   5.326 -30.782  1.00  0.00    -0.083 SA
BRANCH  12  13
HETATM   13  C   UNL     1      -3.430   4.186 -31.355  1.00  0.00     0.123 C 
BRANCH  13  14
HETATM   14  C   UNL     1      -2.588   4.822 -32.438  1.00  0.00    -0.027 A 
HETATM   15  C   UNL     1      -1.597   5.782 -32.172  1.00  0.00     0.041 A 
HETATM   16 CL   UNL     1      -1.225   6.297 -30.565  1.00  0.00    -0.084 Cl
HETATM   17  C   UNL     1      -0.872   6.365 -33.218  1.00  0.00     0.024 A 
HETATM   18  C   UNL     1      -1.130   6.007 -34.540  1.00  0.00     0.002 A 
HETATM   19  C   UNL     1      -2.114   5.063 -34.821  1.00  0.00     0.001 A 
HETATM   20  C   UNL     1      -2.837   4.476 -33.780  1.00  0.00     0.009 A 
ENDBRANCH  13  14
ENDBRANCH  12  13
ENDBRANCH   7  12
BRANCH   9  21
HETATM   21  C   UNL     1      -8.253   1.587 -33.326  1.00  0.00    -0.028 A 
HETATM   22  C   UNL     1      -7.523   1.566 -34.527  1.00  0.00     0.011 A 
HETATM   23  C   UNL     1      -6.993   0.371 -35.019  1.00  0.00     0.024 A 
HETATM   24  C   UNL     1      -7.184  -0.814 -34.313  1.00  0.00     0.034 A 
HETATM   25 CL   UNL     1      -6.528  -2.285 -34.917  1.00  0.00    -0.084 Cl
HETATM   26  C   UNL     1      -7.899  -0.814 -33.119  1.00  0.00     0.024 A 
HETATM   27  C   UNL     1      -8.427   0.380 -32.623  1.00  0.00     0.011 A 
ENDBRANCH   9  21
BRANCH  10  28
HETATM   28  C   UNL     1     -11.106   2.721 -33.757  1.00  0.00     0.293 C 
HETATM   29  O   UNL     1     -11.934   2.758 -32.860  1.00  0.00    -0.259 OA
BRANCH  28  30
HETATM   30  O   UNL     1     -11.159   1.937 -34.859  1.00  0.00    -0.323 OA
HETATM   31  C   UNL     1     -12.457   1.856 -35.452  1.00  0.00     0.213 C 
ENDBRANCH  28  30
ENDBRANCH  10  28
TORSDOF 6
ENDMDL
MODEL 8
REMARK VINA RESULT:      -7.2      3.947      6.896
REMARK  6 active torsions:
REMARK  status: ('A' for Active; 'I' for Inactive)
REMARK    1  A    between atoms: C_7  and  S_8 
REMARK    2  A    between atoms: S_8  and  C_9 
REMARK    3  A    between atoms: C_9  and  C_10 
REMARK    4  A    between atoms: C_18  and  C_19 
REMARK    5  A    between atoms: C_26  and  C_27 
REMARK    6  A    between atoms: C_27  and  O_28 
ROOT
HETATM    1  C   UNL     1      -1.127   6.415 -33.622  1.00  0.00     0.070 C 
HETATM    2  C   UNL     1      -2.167   5.628 -32.865  1.00  0.00     0.037 C 
HETATM    3  N   UNL     1      -2.304   4.294 -33.240  1.00  0.00    -0.192 N 
HETATM    4  C   UNL     1      -2.988   3.394 -32.509  1.00  0.00     0.726 A 
HETATM    5  N   UNL     1      -3.753   3.824 -31.460  1.00  0.00    -0.082 N 
HETATM    6  N   UNL     1      -4.283   2.785 -30.780  1.00  0.00    -0.128 NA
HETATM    7  C   UNL     1      -3.821   1.754 -31.500  1.00  0.00     0.226 A 
HETATM    8  N   UNL     1      -3.034   2.092 -32.575  1.00  0.00    -0.035 NA
HETATM    9  C   UNL     1      -3.888   5.233 -31.071  1.00  0.00     0.203 C 
HETATM   10  C   UNL     1      -2.902   6.113 -31.832  1.00  0.00     0.070 C 
HETATM   11  H   UNL     1      -1.669   3.942 -33.954  1.00  0.00     0.184 HD
ENDROOT
BRANCH   7  12
HETATM   12  S   UNL     1      -4.117   0.089 -31.092  1.00  0.00    -0.083 SA
BRANCH  12  13
HETATM   13  C   UNL     1      -5.927   0.018 -31.165  1.00  0.00     0.123 C 
BRANCH  13  14
HETATM   14  C   UNL     1      -6.410   0.047 -32.598  1.00  0.00    -0.027 A 
HETATM   15  C   UNL     1      -7.098   1.139 -33.151  1.00  0.00     0.041 A 
HETATM   16 CL   UNL     1      -7.424   2.574 -32.245  1.00  0.00    -0.084 Cl
HETATM   17  C   UNL     1      -7.554   1.097 -34.474  1.00  0.00     0.024 A 
HETATM   18  C   UNL     1      -7.339  -0.034 -35.258  1.00  0.00     0.002 A 
HETATM   19  C   UNL     1      -6.666  -1.129 -34.723  1.00  0.00     0.001 A 
HETATM   20  C   UNL     1      -6.206  -1.089 -33.405  1.00  0.00     0.009 A 
ENDBRANCH  13  14
ENDBRANCH  12  13
ENDBRANCH   7  12
BRANCH   9  21
HETATM   21  C   UNL     1      -5.333   5.696 -31.262  1.00  0.00    -0.028 A 
HETATM   22  C   UNL     1      -6.139   5.948 -30.138  1.00  0.00     0.011 A 
HETATM   23  C   UNL     1      -7.453   6.398 -30.289  1.00  0.00     0.024 A 
HETATM   24  C   UNL     1      -7.972   6.605 -31.565  1.00  0.00     0.034 A 
HETATM   25 CL   UNL     1      -9.589   7.163 -31.750  1.00  0.00    -0.084 Cl
HETATM   26  C   UNL     1      -7.189   6.368 -32.690  1.00  0.00     0.024 A 
HETATM   27  C   UNL     1      -5.874   5.920 -32.542  1.00  0.00     0.011 A 
ENDBRANCH   9  21
BRANCH  10  28
HETATM   28  C   UNL     1      -2.799   7.483 -31.287  1.00  0.00     0.293 C 
HETATM   29  O   UNL     1      -3.026   8.477 -31.961  1.00  0.00    -0.259 OA
BRANCH  28  30
HETATM   30  O   UNL     1      -2.368   7.472 -30.004  1.00  0.00    -0.323 OA
HETATM   31  C   UNL     1      -0.954   7.320 -29.867  1.00  0.00     0.213 C 
ENDBRANCH  28  30
ENDBRANCH  10  28
TORSDOF 6
ENDMDL
MODEL 9
REMARK VINA RESULT:      -7.2      2.413      3.445
REMARK  6 active torsions:
REMARK  status: ('A' for Active; 'I' for Inactive)
REMARK    1  A    between atoms: C_7  and  S_8 
REMARK    2  A    between atoms: S_8  and  C_9 
REMARK    3  A    between atoms: C_9  and  C_10 
REMARK    4  A    between atoms: C_18  and  C_19 
REMARK    5  A    between atoms: C_26  and  C_27 
REMARK    6  A    between atoms: C_27  and  O_28 
ROOT
HETATM    1  C   UNL     1      -3.526  -1.974 -31.622  1.00  0.00     0.070 C 
HETATM    2  C   UNL     1      -4.234  -0.742 -32.126  1.00  0.00     0.037 C 
HETATM    3  N   UNL     1      -3.995   0.426 -31.407  1.00  0.00    -0.192 N 
HETATM    4  C   UNL     1      -4.334   1.648 -31.861  1.00  0.00     0.726 A 
HETATM    5  N   UNL     1      -5.119   1.756 -32.974  1.00  0.00    -0.082 N 
HETATM    6  N   UNL     1      -5.273   3.045 -33.344  1.00  0.00    -0.128 NA
HETATM    7  C   UNL     1      -4.575   3.665 -32.383  1.00  0.00     0.226 A 
HETATM    8  N   UNL     1      -3.996   2.840 -31.449  1.00  0.00    -0.035 NA
HETATM    9  C   UNL     1      -5.638   0.605 -33.722  1.00  0.00     0.203 C 
HETATM   10  C   UNL     1      -5.010  -0.697 -33.239  1.00  0.00     0.070 C 
HETATM   11  H   UNL     1      -3.333   0.373 -30.635  1.00  0.00     0.184 HD
ENDROOT
BRANCH   7  12
HETATM   12  S   UNL     1      -4.339   5.388 -32.328  1.00  0.00    -0.083 SA
BRANCH  12  13
HETATM   13  C   UNL     1      -3.683   5.608 -30.653  1.00  0.00     0.123 C 
BRANCH  13  14
HETATM   14  C   UNL     1      -2.226   6.010 -30.692  1.00  0.00    -0.027 A 
HETATM   15  C   UNL     1      -1.648   6.884 -29.758  1.00  0.00     0.041 A 
HETATM   16 CL   UNL     1      -2.551   7.556 -28.447  1.00  0.00    -0.084 Cl
HETATM   17  C   UNL     1      -0.301   7.250 -29.864  1.00  0.00     0.024 A 
HETATM   18  C   UNL     1       0.484   6.758 -30.905  1.00  0.00     0.002 A 
HETATM   19  C   UNL     1      -0.076   5.896 -31.844  1.00  0.00     0.001 A 
HETATM   20  C   UNL     1      -1.418   5.525 -31.740  1.00  0.00     0.009 A 
ENDBRANCH  13  14
ENDBRANCH  12  13
ENDBRANCH   7  12
BRANCH   9  21
HETATM   21  C   UNL     1      -7.165   0.567 -33.639  1.00  0.00    -0.028 A 
HETATM   22  C   UNL     1      -7.790   0.345 -32.399  1.00  0.00     0.011 A 
HETATM   23  C   UNL     1      -9.183   0.333 -32.295  1.00  0.00     0.024 A 
HETATM   24  C   UNL     1      -9.965   0.547 -33.427  1.00  0.00     0.034 A 
HETATM   25 CL   UNL     1     -11.680   0.537 -33.297  1.00  0.00    -0.084 Cl
HETATM   26  C   UNL     1      -9.367   0.776 -34.662  1.00  0.00     0.024 A 
HETATM   27  C   UNL     1      -7.974   0.790 -34.769  1.00  0.00     0.011 A 
ENDBRANCH   9  21
BRANCH  10  28
HETATM   28  C   UNL     1      -5.280  -1.845 -34.131  1.00  0.00     0.293 C 
HETATM   29  O   UNL     1      -4.479  -2.228 -34.969  1.00  0.00    -0.259 OA
BRANCH  28  30
HETATM   30  O   UNL     1      -6.524  -2.341 -33.931  1.00  0.00    -0.323 OA
HETATM   31  C   UNL     1      -6.816  -3.506 -34.705  1.00  0.00     0.213 C 
ENDBRANCH  28  30
ENDBRANCH  10  28
TORSDOF 6
ENDMDL
MODEL 10
REMARK VINA RESULT:      -7.1      3.939      6.358
REMARK  6 active torsions:
REMARK  status: ('A' for Active; 'I' for Inactive)
REMARK    1  A    between atoms: C_7  and  S_8 
REMARK    2  A    between atoms: S_8  and  C_9 
REMARK    3  A    between atoms: C_9  and  C_10 
REMARK    4  A    between atoms: C_18  and  C_19 
REMARK    5  A    between atoms: C_26  and  C_27 
REMARK    6  A    between atoms: C_27  and  O_28 
ROOT
HETATM    1  C   UNL     1     -10.520   5.160 -35.229  1.00  0.00     0.070 C 
HETATM    2  C   UNL     1      -9.461   4.537 -34.356  1.00  0.00     0.037 C 
HETATM    3  N   UNL     1      -8.313   5.300 -34.165  1.00  0.00    -0.192 N 
HETATM    4  C   UNL     1      -7.393   5.017 -33.223  1.00  0.00     0.726 A 
HETATM    5  N   UNL     1      -7.467   3.829 -32.549  1.00  0.00    -0.082 N 
HETATM    6  N   UNL     1      -6.533   3.757 -31.577  1.00  0.00    -0.128 NA
HETATM    7  C   UNL     1      -5.907   4.930 -31.745  1.00  0.00     0.226 A 
HETATM    8  N   UNL     1      -6.400   5.722 -32.754  1.00  0.00    -0.035 NA
HETATM    9  C   UNL     1      -8.499   2.815 -32.792  1.00  0.00     0.203 C 
HETATM   10  C   UNL     1      -9.590   3.347 -33.715  1.00  0.00     0.070 C 
HETATM   11  H   UNL     1      -8.292   6.228 -34.583  1.00  0.00     0.184 HD
ENDROOT
BRANCH   7  12
HETATM   12  S   UNL     1      -4.602   5.475 -30.731  1.00  0.00    -0.083 SA
BRANCH  12  13
HETATM   13  C   UNL     1      -3.582   6.389 -31.918  1.00  0.00     0.123 C 
BRANCH  13  14
HETATM   14  C   UNL     1      -2.192   6.620 -31.369  1.00  0.00    -0.027 A 
HETATM   15  C   UNL     1      -1.049   6.684 -32.183  1.00  0.00     0.041 A 
HETATM   16 CL   UNL     1      -1.137   6.539 -33.903  1.00  0.00    -0.084 Cl
HETATM   17  C   UNL     1       0.218   6.864 -31.618  1.00  0.00     0.024 A 
HETATM   18  C   UNL     1       0.365   6.974 -30.236  1.00  0.00     0.002 A 
HETATM   19  C   UNL     1      -0.757   6.905 -29.415  1.00  0.00     0.001 A 
HETATM   20  C   UNL     1      -2.024   6.730 -29.975  1.00  0.00     0.009 A 
ENDBRANCH  13  14
ENDBRANCH  12  13
ENDBRANCH   7  12
BRANCH   9  21
HETATM   21  C   UNL     1      -7.862   1.536 -33.340  1.00  0.00    -0.028 A 
HETATM   22  C   UNL     1      -7.704   0.421 -32.498  1.00  0.00     0.011 A 
HETATM   23  C   UNL     1      -7.150  -0.766 -32.984  1.00  0.00     0.024 A 
HETATM   24  C   UNL     1      -6.752  -0.851 -34.316  1.00  0.00     0.034 A 
HETATM   25 CL   UNL     1      -6.074  -2.314 -34.915  1.00  0.00    -0.084 Cl
HETATM   26  C   UNL     1      -6.906   0.239 -35.167  1.00  0.00     0.024 A 
HETATM   27  C   UNL     1      -7.462   1.426 -34.685  1.00  0.00     0.011 A 
ENDBRANCH   9  21
BRANCH  10  28
HETATM   28  C   UNL     1     -10.784   2.478 -33.772  1.00  0.00     0.293 C 
HETATM   29  O   UNL     1     -10.954   1.652 -34.656  1.00  0.00    -0.259 OA
BRANCH  28  30
HETATM   30  O   UNL     1     -11.655   2.772 -32.779  1.00  0.00    -0.323 OA
HETATM   31  C   UNL     1     -12.972   3.085 -33.234  1.00  0.00     0.213 C 
ENDBRANCH  28  30
ENDBRANCH  10  28
TORSDOF 6
ENDMDL
