MODEL 1
REMARK VINA RESULT:      -9.5      0.000      0.000
REMARK  9 active torsions:
REMARK  status: ('A' for Active; 'I' for Inactive)
REMARK    1  A    between atoms: C_4  and  C_5 
REMARK    2  A    between atoms: C_5  and  N_6 
REMARK    3  A    between atoms: C_11  and  C_12 
REMARK       I    between atoms: C_12  and  N_13 
REMARK    4  A    between atoms: C_15  and  N_16 
REMARK       I    between atoms: N_16  and  C_17 
REMARK    5  A    between atoms: C_17  and  C_18 
REMARK    6  A    between atoms: C_18  and  C_19 
REMARK    7  A    between atoms: C_19  and  C_20 
REMARK    8  A    between atoms: C_20  and  S_21 
REMARK    9  A    between atoms: S_21  and  C_22 
ROOT
HETATM    1  N   UNL     1      -6.373  -0.221 -32.883  1.00  0.00    -0.063 N 
HETATM    2  H   UNL     1      -6.811  -1.033 -32.437  1.00  0.00     0.280 HD
HETATM    3  C   UNL     1      -5.265   0.225 -31.931  1.00  0.00     0.282 C 
HETATM    4  C   UNL     1      -4.844   1.624 -32.216  1.00  0.00     0.018 C 
HETATM    5  C   UNL     1      -5.537   2.526 -33.000  1.00  0.00    -0.023 C 
HETATM    6  C   UNL     1      -4.790   3.748 -33.189  1.00  0.00     0.073 C 
HETATM    7  C   UNL     1      -3.721   3.797 -32.303  1.00  0.00     0.093 C 
HETATM    8  S   UNL     1      -3.449   2.300 -31.539  1.00  0.00    -0.074 SA
HETATM    9  C   UNL     1      -6.868   2.169 -33.605  1.00  0.00     0.068 C 
HETATM   10  C   UNL     1      -7.439   0.866 -33.005  1.00  0.00     0.240 C 
ENDROOT
BRANCH   7  11
HETATM   11  N   UNL     1      -2.889   4.879 -32.057  1.00  0.00    -0.320 N 
HETATM   12  C   UNL     1      -1.879   5.332 -32.897  1.00  0.00     0.222 C 
HETATM   13  O   UNL     1      -1.546   4.838 -33.968  1.00  0.00    -0.273 OA
HETATM   14  H   UNL     1      -2.826   5.172 -31.086  1.00  0.00     0.169 HD
BRANCH  12  15
HETATM   15  C   UNL     1      -1.194   6.570 -32.333  1.00  0.00     0.104 C 
BRANCH  15  16
HETATM   16  C   UNL     1      -2.100   7.799 -32.274  1.00  0.00     0.020 C 
BRANCH  16  17
HETATM   17  C   UNL     1      -2.333   8.451 -30.906  1.00  0.00     0.080 C 
BRANCH  17  18
HETATM   18  S   UNL     1      -2.647   7.336 -29.492  1.00  0.00    -0.130 SA
BRANCH  18  19
HETATM   19  C   UNL     1      -1.146   7.432 -28.532  1.00  0.00     0.000 A 
HETATM   20  C   UNL     1       0.050   7.983 -29.006  1.00  0.00     0.021 A 
HETATM   21  C   UNL     1       1.187   8.007 -28.193  1.00  0.00     0.043 A 
HETATM   22  C   UNL     1       1.120   7.504 -26.899  1.00  0.00     0.116 A 
HETATM   23  F   UNL     1       2.210   7.526 -26.123  1.00  0.00    -0.206 F 
HETATM   24  C   UNL     1      -0.065   6.983 -26.400  1.00  0.00     0.043 A 
HETATM   25  C   UNL     1      -1.197   6.949 -27.215  1.00  0.00     0.021 A 
ENDBRANCH  18  19
ENDBRANCH  17  18
ENDBRANCH  16  17
ENDBRANCH  15  16
ENDBRANCH  12  15
ENDBRANCH   7  11
BRANCH   6  26
HETATM   26  C   UNL     1      -5.163   4.813 -34.115  1.00  0.00     0.252 C 
HETATM   27  N   UNL     1      -6.078   5.716 -33.649  1.00  0.00    -0.366 N 
HETATM   28  H   UNL     1      -6.167   5.867 -32.651  1.00  0.00     0.159 HD
HETATM   29  H   UNL     1      -6.189   6.541 -34.229  1.00  0.00     0.159 HD
HETATM   30  O   UNL     1      -4.634   4.956 -35.210  1.00  0.00    -0.268 OA
ENDBRANCH   6  26
BRANCH   1  31
HETATM   31  C   UNL     1      -5.894  -0.692 -34.238  1.00  0.00     0.273 C 
BRANCH  31  32
HETATM   32  C   UNL     1      -5.645  -2.168 -34.376  1.00  0.00    -0.033 A 
HETATM   33  C   UNL     1      -4.410  -2.748 -34.050  1.00  0.00     0.009 A 
HETATM   34  C   UNL     1      -4.229  -4.128 -34.163  1.00  0.00     0.001 A 
HETATM   35  C   UNL     1      -5.279  -4.943 -34.581  1.00  0.00     0.000 A 
HETATM   36  C   UNL     1      -6.515  -4.383 -34.888  1.00  0.00     0.001 A 
HETATM   37  C   UNL     1      -6.698  -3.004 -34.787  1.00  0.00     0.009 A 
ENDBRANCH  31  32
ENDBRANCH   1  31
TORSDOF 9
ENDMDL
MODEL 2
REMARK VINA RESULT:      -9.4      2.575      3.843
REMARK  9 active torsions:
REMARK  status: ('A' for Active; 'I' for Inactive)
REMARK    1  A    between atoms: C_4  and  C_5 
REMARK    2  A    between atoms: C_5  and  N_6 
REMARK    3  A    between atoms: C_11  and  C_12 
REMARK       I    between atoms: C_12  and  N_13 
REMARK    4  A    between atoms: C_15  and  N_16 
REMARK       I    between atoms: N_16  and  C_17 
REMARK    5  A    between atoms: C_17  and  C_18 
REMARK    6  A    between atoms: C_18  and  C_19 
REMARK    7  A    between atoms: C_19  and  C_20 
REMARK    8  A    between atoms: C_20  and  S_21 
REMARK    9  A    between atoms: S_21  and  C_22 
ROOT
HETATM    1  N   UNL     1      -6.842  -0.340 -32.773  1.00  0.00    -0.063 N 
HETATM    2  H   UNL     1      -7.289  -1.216 -32.485  1.00  0.00     0.280 HD
HETATM    3  C   UNL     1      -6.303   0.290 -31.490  1.00  0.00     0.282 C 
HETATM    4  C   UNL     1      -6.032   1.742 -31.679  1.00  0.00     0.018 C 
HETATM    5  C   UNL     1      -6.481   2.511 -32.735  1.00  0.00    -0.023 C 
HETATM    6  C   UNL     1      -5.926   3.844 -32.692  1.00  0.00     0.073 C 
HETATM    7  C   UNL     1      -5.332   4.076 -31.458  1.00  0.00     0.093 C 
HETATM    8  S   UNL     1      -5.159   2.648 -30.548  1.00  0.00    -0.074 SA
HETATM    9  C   UNL     1      -7.375   1.929 -33.796  1.00  0.00     0.068 C 
HETATM   10  C   UNL     1      -7.925   0.546 -33.388  1.00  0.00     0.240 C 
ENDROOT
BRANCH   7  11
HETATM   11  N   UNL     1      -4.856   5.286 -30.975  1.00  0.00    -0.320 N 
HETATM   12  C   UNL     1      -5.638   6.344 -30.528  1.00  0.00     0.222 C 
HETATM   13  O   UNL     1      -6.862   6.390 -30.515  1.00  0.00    -0.273 OA
HETATM   14  H   UNL     1      -3.900   5.515 -31.232  1.00  0.00     0.169 HD
BRANCH  12  15
HETATM   15  C   UNL     1      -4.783   7.500 -30.026  1.00  0.00     0.104 C 
BRANCH  15  16
HETATM   16  C   UNL     1      -3.501   7.055 -29.325  1.00  0.00     0.020 C 
BRANCH  16  17
HETATM   17  C   UNL     1      -2.244   7.912 -29.520  1.00  0.00     0.080 C 
BRANCH  17  18
HETATM   18  S   UNL     1      -0.717   7.051 -30.037  1.00  0.00    -0.130 SA
BRANCH  18  19
HETATM   19  C   UNL     1      -1.143   6.340 -31.617  1.00  0.00     0.000 A 
HETATM   20  C   UNL     1      -1.552   5.014 -31.791  1.00  0.00     0.021 A 
HETATM   21  C   UNL     1      -1.856   4.531 -33.068  1.00  0.00     0.043 A 
HETATM   22  C   UNL     1      -1.772   5.381 -34.164  1.00  0.00     0.116 A 
HETATM   23  F   UNL     1      -2.060   4.916 -35.386  1.00  0.00    -0.206 F 
HETATM   24  C   UNL     1      -1.398   6.708 -34.008  1.00  0.00     0.043 A 
HETATM   25  C   UNL     1      -1.086   7.187 -32.735  1.00  0.00     0.021 A 
ENDBRANCH  18  19
ENDBRANCH  17  18
ENDBRANCH  16  17
ENDBRANCH  15  16
ENDBRANCH  12  15
ENDBRANCH   7  11
BRANCH   6  26
HETATM   26  C   UNL     1      -6.055   4.830 -33.762  1.00  0.00     0.252 C 
HETATM   27  N   UNL     1      -7.120   5.682 -33.663  1.00  0.00    -0.366 N 
HETATM   28  H   UNL     1      -7.521   5.875 -32.753  1.00  0.00     0.159 HD
HETATM   29  H   UNL     1      -7.093   6.466 -34.306  1.00  0.00     0.159 HD
HETATM   30  O   UNL     1      -5.222   4.958 -34.650  1.00  0.00    -0.268 OA
ENDBRANCH   6  26
BRANCH   1  31
HETATM   31  C   UNL     1      -5.786  -0.718 -33.787  1.00  0.00     0.273 C 
BRANCH  31  32
HETATM   32  C   UNL     1      -5.679  -2.181 -34.117  1.00  0.00    -0.033 A 
HETATM   33  C   UNL     1      -6.757  -2.904 -34.649  1.00  0.00     0.009 A 
HETATM   34  C   UNL     1      -6.607  -4.255 -34.970  1.00  0.00     0.001 A 
HETATM   35  C   UNL     1      -5.382  -4.891 -34.784  1.00  0.00     0.000 A 
HETATM   36  C   UNL     1      -4.299  -4.180 -34.275  1.00  0.00     0.001 A 
HETATM   37  C   UNL     1      -4.446  -2.834 -33.943  1.00  0.00     0.009 A 
ENDBRANCH  31  32
ENDBRANCH   1  31
TORSDOF 9
ENDMDL
MODEL 3
REMARK VINA RESULT:      -9.2      1.280      1.865
REMARK  9 active torsions:
REMARK  status: ('A' for Active; 'I' for Inactive)
REMARK    1  A    between atoms: C_4  and  C_5 
REMARK    2  A    between atoms: C_5  and  N_6 
REMARK    3  A    between atoms: C_11  and  C_12 
REMARK       I    between atoms: C_12  and  N_13 
REMARK    4  A    between atoms: C_15  and  N_16 
REMARK       I    between atoms: N_16  and  C_17 
REMARK    5  A    between atoms: C_17  and  C_18 
REMARK    6  A    between atoms: C_18  and  C_19 
REMARK    7  A    between atoms: C_19  and  C_20 
REMARK    8  A    between atoms: C_20  and  S_21 
REMARK    9  A    between atoms: S_21  and  C_22 
ROOT
HETATM    1  N   UNL     1      -6.122  -0.134 -32.692  1.00  0.00    -0.063 N 
HETATM    2  H   UNL     1      -6.489  -0.958 -32.206  1.00  0.00     0.280 HD
HETATM    3  C   UNL     1      -5.006   0.408 -31.800  1.00  0.00     0.282 C 
HETATM    4  C   UNL     1      -4.687   1.822 -32.140  1.00  0.00     0.018 C 
HETATM    5  C   UNL     1      -5.468   2.655 -32.917  1.00  0.00    -0.023 C 
HETATM    6  C   UNL     1      -4.808   3.915 -33.171  1.00  0.00     0.073 C 
HETATM    7  C   UNL     1      -3.709   4.056 -32.333  1.00  0.00     0.093 C 
HETATM    8  S   UNL     1      -3.310   2.603 -31.542  1.00  0.00    -0.074 SA
HETATM    9  C   UNL     1      -6.797   2.198 -33.455  1.00  0.00     0.068 C 
HETATM   10  C   UNL     1      -7.259   0.881 -32.797  1.00  0.00     0.240 C 
ENDROOT
BRANCH   7  11
HETATM   11  N   UNL     1      -2.937   5.195 -32.152  1.00  0.00    -0.320 N 
HETATM   12  C   UNL     1      -1.857   5.575 -32.939  1.00  0.00     0.222 C 
HETATM   13  O   UNL     1      -1.398   4.959 -33.893  1.00  0.00    -0.273 OA
HETATM   14  H   UNL     1      -2.986   5.615 -31.228  1.00  0.00     0.169 HD
BRANCH  12  15
HETATM   15  C   UNL     1      -1.270   6.904 -32.479  1.00  0.00     0.104 C 
BRANCH  15  16
HETATM   16  C   UNL     1      -0.086   6.754 -31.525  1.00  0.00     0.020 C 
BRANCH  16  17
HETATM   17  C   UNL     1       0.155   5.377 -30.896  1.00  0.00     0.080 C 
BRANCH  17  18
HETATM   18  S   UNL     1       0.674   5.338 -29.144  1.00  0.00    -0.130 SA
BRANCH  18  19
HETATM   19  C   UNL     1       0.109   6.901 -28.496  1.00  0.00     0.000 A 
HETATM   20  C   UNL     1      -1.236   7.215 -28.278  1.00  0.00     0.021 A 
HETATM   21  C   UNL     1      -1.596   8.472 -27.780  1.00  0.00     0.043 A 
HETATM   22  C   UNL     1      -0.608   9.401 -27.477  1.00  0.00     0.116 A 
HETATM   23  F   UNL     1      -0.955  10.604 -27.002  1.00  0.00    -0.206 F 
HETATM   24  C   UNL     1       0.733   9.097 -27.656  1.00  0.00     0.043 A 
HETATM   25  C   UNL     1       1.092   7.847 -28.164  1.00  0.00     0.021 A 
ENDBRANCH  18  19
ENDBRANCH  17  18
ENDBRANCH  16  17
ENDBRANCH  15  16
ENDBRANCH  12  15
ENDBRANCH   7  11
BRANCH   6  26
HETATM   26  C   UNL     1      -5.286   4.928 -34.108  1.00  0.00     0.252 C 
HETATM   27  N   UNL     1      -6.450   5.557 -33.764  1.00  0.00    -0.366 N 
HETATM   28  H   UNL     1      -6.719   5.612 -32.788  1.00  0.00     0.159 HD
HETATM   29  H   UNL     1      -6.670   6.373 -34.325  1.00  0.00     0.159 HD
HETATM   30  O   UNL     1      -4.651   5.267 -35.098  1.00  0.00    -0.268 OA
ENDBRANCH   6  26
BRANCH   1  31
HETATM   31  C   UNL     1      -5.670  -0.613 -34.053  1.00  0.00     0.273 C 
BRANCH  31  32
HETATM   32  C   UNL     1      -5.581  -2.103 -34.234  1.00  0.00    -0.033 A 
HETATM   33  C   UNL     1      -6.654  -2.858 -34.729  1.00  0.00     0.009 A 
HETATM   34  C   UNL     1      -6.520  -4.236 -34.911  1.00  0.00     0.001 A 
HETATM   35  C   UNL     1      -5.314  -4.870 -34.621  1.00  0.00     0.000 A 
HETATM   36  C   UNL     1      -4.235  -4.129 -34.147  1.00  0.00     0.001 A 
HETATM   37  C   UNL     1      -4.367  -2.755 -33.954  1.00  0.00     0.009 A 
ENDBRANCH  31  32
ENDBRANCH   1  31
TORSDOF 9
ENDMDL
MODEL 4
REMARK VINA RESULT:      -9.0      3.445     10.375
REMARK  9 active torsions:
REMARK  status: ('A' for Active; 'I' for Inactive)
REMARK    1  A    between atoms: C_4  and  C_5 
REMARK    2  A    between atoms: C_5  and  N_6 
REMARK    3  A    between atoms: C_11  and  C_12 
REMARK       I    between atoms: C_12  and  N_13 
REMARK    4  A    between atoms: C_15  and  N_16 
REMARK       I    between atoms: N_16  and  C_17 
REMARK    5  A    between atoms: C_17  and  C_18 
REMARK    6  A    between atoms: C_18  and  C_19 
REMARK    7  A    between atoms: C_19  and  C_20 
REMARK    8  A    between atoms: C_20  and  S_21 
REMARK    9  A    between atoms: S_21  and  C_22 
ROOT
HETATM    1  N   UNL     1      -0.544   6.873 -30.826  1.00  0.00    -0.063 N 
HETATM    2  H   UNL     1       0.191   7.530 -31.104  1.00  0.00     0.280 HD
HETATM    3  C   UNL     1      -0.852   6.047 -32.073  1.00  0.00     0.282 C 
HETATM    4  C   UNL     1      -2.176   5.375 -31.958  1.00  0.00     0.018 C 
HETATM    5  C   UNL     1      -3.149   5.676 -31.026  1.00  0.00    -0.023 C 
HETATM    6  C   UNL     1      -4.254   4.747 -31.095  1.00  0.00     0.073 C 
HETATM    7  C   UNL     1      -4.172   3.992 -32.257  1.00  0.00     0.093 C 
HETATM    8  S   UNL     1      -2.666   4.164 -33.033  1.00  0.00    -0.074 SA
HETATM    9  C   UNL     1      -2.967   6.804 -30.046  1.00  0.00     0.068 C 
HETATM   10  C   UNL     1      -1.765   7.698 -30.419  1.00  0.00     0.240 C 
ENDROOT
BRANCH   7  11
HETATM   11  N   UNL     1      -5.135   3.131 -32.764  1.00  0.00    -0.320 N 
HETATM   12  C   UNL     1      -5.998   3.410 -33.816  1.00  0.00     0.222 C 
HETATM   13  O   UNL     1      -6.067   4.461 -34.443  1.00  0.00    -0.273 OA
HETATM   14  H   UNL     1      -5.415   2.374 -32.147  1.00  0.00     0.169 HD
BRANCH  12  15
HETATM   15  C   UNL     1      -6.895   2.221 -34.136  1.00  0.00     0.104 C 
BRANCH  15  16
HETATM   16  C   UNL     1      -7.279   1.395 -32.909  1.00  0.00     0.020 C 
BRANCH  16  17
HETATM   17  C   UNL     1      -7.698  -0.063 -33.132  1.00  0.00     0.080 C 
BRANCH  17  18
HETATM   18  S   UNL     1      -7.351  -0.792 -34.772  1.00  0.00    -0.130 SA
BRANCH  18  19
HETATM   19  C   UNL     1      -6.081  -2.001 -34.440  1.00  0.00     0.000 A 
HETATM   20  C   UNL     1      -4.926  -1.737 -33.696  1.00  0.00     0.021 A 
HETATM   21  C   UNL     1      -3.972  -2.739 -33.494  1.00  0.00     0.043 A 
HETATM   22  C   UNL     1      -4.187  -4.010 -34.015  1.00  0.00     0.116 A 
HETATM   23  F   UNL     1      -3.271  -4.967 -33.821  1.00  0.00    -0.206 F 
HETATM   24  C   UNL     1      -5.340  -4.300 -34.728  1.00  0.00     0.043 A 
HETATM   25  C   UNL     1      -6.288  -3.297 -34.938  1.00  0.00     0.021 A 
ENDBRANCH  18  19
ENDBRANCH  17  18
ENDBRANCH  16  17
ENDBRANCH  15  16
ENDBRANCH  12  15
ENDBRANCH   7  11
BRANCH   6  26
HETATM   26  C   UNL     1      -5.343   4.682 -30.125  1.00  0.00     0.252 C 
HETATM   27  N   UNL     1      -5.230   3.714 -29.164  1.00  0.00    -0.366 N 
HETATM   28  H   UNL     1      -4.312   3.368 -28.911  1.00  0.00     0.159 HD
HETATM   29  H   UNL     1      -5.894   3.799 -28.402  1.00  0.00     0.159 HD
HETATM   30  O   UNL     1      -6.262   5.490 -30.103  1.00  0.00    -0.268 OA
ENDBRANCH   6  26
BRANCH   1  31
HETATM   31  C   UNL     1       0.011   6.083 -29.662  1.00  0.00     0.273 C 
BRANCH  31  32
HETATM   32  C   UNL     1       0.480   6.888 -28.481  1.00  0.00    -0.033 A 
HETATM   33  C   UNL     1       1.218   8.071 -28.633  1.00  0.00     0.009 A 
HETATM   34  C   UNL     1       1.608   8.805 -27.511  1.00  0.00     0.001 A 
HETATM   35  C   UNL     1       1.252   8.379 -26.233  1.00  0.00     0.000 A 
HETATM   36  C   UNL     1       0.504   7.217 -26.070  1.00  0.00     0.001 A 
HETATM   37  C   UNL     1       0.120   6.475 -27.186  1.00  0.00     0.009 A 
ENDBRANCH  31  32
ENDBRANCH   1  31
TORSDOF 9
ENDMDL
MODEL 5
REMARK VINA RESULT:      -8.7      1.997      2.502
REMARK  9 active torsions:
REMARK  status: ('A' for Active; 'I' for Inactive)
REMARK    1  A    between atoms: C_4  and  C_5 
REMARK    2  A    between atoms: C_5  and  N_6 
REMARK    3  A    between atoms: C_11  and  C_12 
REMARK       I    between atoms: C_12  and  N_13 
REMARK    4  A    between atoms: C_15  and  N_16 
REMARK       I    between atoms: N_16  and  C_17 
REMARK    5  A    between atoms: C_17  and  C_18 
REMARK    6  A    between atoms: C_18  and  C_19 
REMARK    7  A    between atoms: C_19  and  C_20 
REMARK    8  A    between atoms: C_20  and  S_21 
REMARK    9  A    between atoms: S_21  and  C_22 
ROOT
HETATM    1  N   UNL     1      -7.198  -0.421 -33.371  1.00  0.00    -0.063 N 
HETATM    2  H   UNL     1      -7.766  -1.263 -33.238  1.00  0.00     0.280 HD
HETATM    3  C   UNL     1      -6.661  -0.063 -31.986  1.00  0.00     0.282 C 
HETATM    4  C   UNL     1      -6.201   1.352 -31.939  1.00  0.00     0.018 C 
HETATM    5  C   UNL     1      -6.487   2.321 -32.880  1.00  0.00    -0.023 C 
HETATM    6  C   UNL     1      -5.774   3.548 -32.612  1.00  0.00     0.073 C 
HETATM    7  C   UNL     1      -5.230   3.516 -31.335  1.00  0.00     0.093 C 
HETATM    8  S   UNL     1      -5.290   1.959 -30.648  1.00  0.00    -0.074 SA
HETATM    9  C   UNL     1      -7.383   2.025 -34.053  1.00  0.00     0.068 C 
HETATM   10  C   UNL     1      -8.124   0.681 -33.884  1.00  0.00     0.240 C 
ENDROOT
BRANCH   7  11
HETATM   11  N   UNL     1      -4.636   4.568 -30.652  1.00  0.00    -0.320 N 
HETATM   12  C   UNL     1      -5.308   5.549 -29.934  1.00  0.00     0.222 C 
HETATM   13  O   UNL     1      -6.522   5.659 -29.811  1.00  0.00    -0.273 OA
HETATM   14  H   UNL     1      -3.687   4.793 -30.935  1.00  0.00     0.169 HD
BRANCH  12  15
HETATM   15  C   UNL     1      -4.340   6.524 -29.276  1.00  0.00     0.104 C 
BRANCH  15  16
HETATM   16  C   UNL     1      -4.257   7.877 -29.982  1.00  0.00     0.020 C 
BRANCH  16  17
HETATM   17  C   UNL     1      -3.669   7.910 -31.397  1.00  0.00     0.080 C 
BRANCH  17  18
HETATM   18  S   UNL     1      -1.974   8.569 -31.583  1.00  0.00    -0.130 SA
BRANCH  18  19
HETATM   19  C   UNL     1      -0.957   7.375 -30.734  1.00  0.00     0.000 A 
HETATM   20  C   UNL     1      -0.526   7.517 -29.410  1.00  0.00     0.021 A 
HETATM   21  C   UNL     1       0.282   6.538 -28.822  1.00  0.00     0.043 A 
HETATM   22  C   UNL     1       0.637   5.409 -29.551  1.00  0.00     0.116 A 
HETATM   23  F   UNL     1       1.412   4.475 -28.986  1.00  0.00    -0.206 F 
HETATM   24  C   UNL     1       0.193   5.235 -30.853  1.00  0.00     0.043 A 
HETATM   25  C   UNL     1      -0.605   6.216 -31.443  1.00  0.00     0.021 A 
ENDBRANCH  18  19
ENDBRANCH  17  18
ENDBRANCH  16  17
ENDBRANCH  15  16
ENDBRANCH  12  15
ENDBRANCH   7  11
BRANCH   6  26
HETATM   26  C   UNL     1      -5.716   4.689 -33.521  1.00  0.00     0.252 C 
HETATM   27  N   UNL     1      -6.898   5.343 -33.735  1.00  0.00    -0.366 N 
HETATM   28  H   UNL     1      -7.626   5.301 -33.031  1.00  0.00     0.159 HD
HETATM   29  H   UNL     1      -6.807   6.230 -34.218  1.00  0.00     0.159 HD
HETATM   30  O   UNL     1      -4.668   5.102 -34.001  1.00  0.00    -0.268 OA
ENDBRANCH   6  26
BRANCH   1  31
HETATM   31  C   UNL     1      -6.138  -0.781 -34.388  1.00  0.00     0.273 C 
BRANCH  31  32
HETATM   32  C   UNL     1      -5.735  -2.229 -34.438  1.00  0.00    -0.033 A 
HETATM   33  C   UNL     1      -4.445  -2.654 -34.090  1.00  0.00     0.009 A 
HETATM   34  C   UNL     1      -4.120  -4.012 -34.121  1.00  0.00     0.001 A 
HETATM   35  C   UNL     1      -5.078  -4.957 -34.479  1.00  0.00     0.000 A 
HETATM   36  C   UNL     1      -6.368  -4.549 -34.808  1.00  0.00     0.001 A 
HETATM   37  C   UNL     1      -6.695  -3.195 -34.789  1.00  0.00     0.009 A 
ENDBRANCH  31  32
ENDBRANCH   1  31
TORSDOF 9
ENDMDL
MODEL 6
REMARK VINA RESULT:      -8.6      2.393      3.320
REMARK  9 active torsions:
REMARK  status: ('A' for Active; 'I' for Inactive)
REMARK    1  A    between atoms: C_4  and  C_5 
REMARK    2  A    between atoms: C_5  and  N_6 
REMARK    3  A    between atoms: C_11  and  C_12 
REMARK       I    between atoms: C_12  and  N_13 
REMARK    4  A    between atoms: C_15  and  N_16 
REMARK       I    between atoms: N_16  and  C_17 
REMARK    5  A    between atoms: C_17  and  C_18 
REMARK    6  A    between atoms: C_18  and  C_19 
REMARK    7  A    between atoms: C_19  and  C_20 
REMARK    8  A    between atoms: C_20  and  S_21 
REMARK    9  A    between atoms: S_21  and  C_22 
ROOT
HETATM    1  N   UNL     1      -7.070   0.925 -32.617  1.00  0.00    -0.063 N 
HETATM    2  H   UNL     1      -7.921   0.497 -32.994  1.00  0.00     0.280 HD
HETATM    3  C   UNL     1      -7.538   1.854 -31.498  1.00  0.00     0.282 C 
HETATM    4  C   UNL     1      -6.491   2.859 -31.163  1.00  0.00     0.018 C 
HETATM    5  C   UNL     1      -5.381   3.147 -31.932  1.00  0.00    -0.023 C 
HETATM    6  C   UNL     1      -4.493   4.066 -31.258  1.00  0.00     0.073 C 
HETATM    7  C   UNL     1      -5.131   4.629 -30.160  1.00  0.00     0.093 C 
HETATM    8  S   UNL     1      -6.585   3.828 -29.780  1.00  0.00    -0.074 SA
HETATM    9  C   UNL     1      -5.164   2.482 -33.265  1.00  0.00     0.068 C 
HETATM   10  C   UNL     1      -6.425   1.731 -33.743  1.00  0.00     0.240 C 
ENDROOT
BRANCH   7  11
HETATM   11  N   UNL     1      -4.676   5.680 -29.377  1.00  0.00    -0.320 N 
HETATM   12  C   UNL     1      -4.694   7.022 -29.734  1.00  0.00     0.222 C 
HETATM   13  O   UNL     1      -5.085   7.488 -30.797  1.00  0.00    -0.273 OA
HETATM   14  H   UNL     1      -4.035   5.425 -28.631  1.00  0.00     0.169 HD
BRANCH  12  15
HETATM   15  C   UNL     1      -4.157   7.906 -28.616  1.00  0.00     0.104 C 
BRANCH  15  16
HETATM   16  C   UNL     1      -3.014   7.270 -27.826  1.00  0.00     0.020 C 
BRANCH  16  17
HETATM   17  C   UNL     1      -2.193   8.176 -26.901  1.00  0.00     0.080 C 
BRANCH  17  18
HETATM   18  S   UNL     1      -0.559   8.729 -27.506  1.00  0.00    -0.130 SA
BRANCH  18  19
HETATM   19  C   UNL     1      -0.051   7.424 -28.612  1.00  0.00     0.000 A 
HETATM   20  C   UNL     1       0.413   6.176 -28.186  1.00  0.00     0.021 A 
HETATM   21  C   UNL     1       0.805   5.212 -29.120  1.00  0.00     0.043 A 
HETATM   22  C   UNL     1       0.709   5.489 -30.478  1.00  0.00     0.116 A 
HETATM   23  F   UNL     1       1.088   4.566 -31.370  1.00  0.00    -0.206 F 
HETATM   24  C   UNL     1       0.222   6.710 -30.922  1.00  0.00     0.043 A 
HETATM   25  C   UNL     1      -0.160   7.676 -29.989  1.00  0.00     0.021 A 
ENDBRANCH  18  19
ENDBRANCH  17  18
ENDBRANCH  16  17
ENDBRANCH  15  16
ENDBRANCH  12  15
ENDBRANCH   7  11
BRANCH   6  26
HETATM   26  C   UNL     1      -3.154   4.417 -31.722  1.00  0.00     0.252 C 
HETATM   27  N   UNL     1      -3.059   5.566 -32.457  1.00  0.00    -0.366 N 
HETATM   28  H   UNL     1      -3.753   6.294 -32.337  1.00  0.00     0.159 HD
HETATM   29  H   UNL     1      -2.109   5.887 -32.615  1.00  0.00     0.159 HD
HETATM   30  O   UNL     1      -2.156   3.782 -31.408  1.00  0.00    -0.268 OA
ENDBRANCH   6  26
BRANCH   1  31
HETATM   31  C   UNL     1      -6.186  -0.216 -32.167  1.00  0.00     0.273 C 
BRANCH  31  32
HETATM   32  C   UNL     1      -5.964  -1.316 -33.168  1.00  0.00    -0.033 A 
HETATM   33  C   UNL     1      -7.018  -1.869 -33.911  1.00  0.00     0.009 A 
HETATM   34  C   UNL     1      -6.766  -2.868 -34.853  1.00  0.00     0.001 A 
HETATM   35  C   UNL     1      -5.465  -3.310 -35.078  1.00  0.00     0.000 A 
HETATM   36  C   UNL     1      -4.408  -2.756 -34.362  1.00  0.00     0.001 A 
HETATM   37  C   UNL     1      -4.655  -1.766 -33.412  1.00  0.00     0.009 A 
ENDBRANCH  31  32
ENDBRANCH   1  31
TORSDOF 9
ENDMDL
MODEL 7
REMARK VINA RESULT:      -8.5      6.447     10.351
REMARK  9 active torsions:
REMARK  status: ('A' for Active; 'I' for Inactive)
REMARK    1  A    between atoms: C_4  and  C_5 
REMARK    2  A    between atoms: C_5  and  N_6 
REMARK    3  A    between atoms: C_11  and  C_12 
REMARK       I    between atoms: C_12  and  N_13 
REMARK    4  A    between atoms: C_15  and  N_16 
REMARK       I    between atoms: N_16  and  C_17 
REMARK    5  A    between atoms: C_17  and  C_18 
REMARK    6  A    between atoms: C_18  and  C_19 
REMARK    7  A    between atoms: C_19  and  C_20 
REMARK    8  A    between atoms: C_20  and  S_21 
REMARK    9  A    between atoms: S_21  and  C_22 
ROOT
HETATM    1  N   UNL     1     -13.996   2.488 -33.882  1.00  0.00    -0.063 N 
HETATM    2  H   UNL     1     -14.854   2.712 -34.393  1.00  0.00     0.280 HD
HETATM    3  C   UNL     1     -12.939   3.460 -34.405  1.00  0.00     0.282 C 
HETATM    4  C   UNL     1     -11.566   2.977 -34.093  1.00  0.00     0.018 C 
HETATM    5  C   UNL     1     -11.240   1.700 -33.679  1.00  0.00    -0.023 C 
HETATM    6  C   UNL     1      -9.842   1.599 -33.326  1.00  0.00     0.073 C 
HETATM    7  C   UNL     1      -9.154   2.720 -33.772  1.00  0.00     0.093 C 
HETATM    8  S   UNL     1     -10.203   3.963 -34.274  1.00  0.00    -0.074 SA
HETATM    9  C   UNL     1     -12.288   0.627 -33.565  1.00  0.00     0.068 C 
HETATM   10  C   UNL     1     -13.616   1.050 -34.230  1.00  0.00     0.240 C 
ENDROOT
BRANCH   7  11
HETATM   11  N   UNL     1      -7.778   2.906 -33.784  1.00  0.00    -0.320 N 
HETATM   12  C   UNL     1      -7.010   3.334 -32.709  1.00  0.00     0.222 C 
HETATM   13  O   UNL     1      -7.420   3.640 -31.595  1.00  0.00    -0.273 OA
HETATM   14  H   UNL     1      -7.359   3.012 -34.703  1.00  0.00     0.169 HD
BRANCH  12  15
HETATM   15  C   UNL     1      -5.529   3.385 -33.064  1.00  0.00     0.104 C 
BRANCH  15  16
HETATM   16  C   UNL     1      -4.717   2.234 -32.472  1.00  0.00     0.020 C 
BRANCH  16  17
HETATM   17  C   UNL     1      -4.795   0.871 -33.170  1.00  0.00     0.080 C 
BRANCH  17  18
HETATM   18  S   UNL     1      -4.252  -0.590 -32.215  1.00  0.00    -0.130 SA
BRANCH  18  19
HETATM   19  C   UNL     1      -4.714  -1.970 -33.248  1.00  0.00     0.000 A 
HETATM   20  C   UNL     1      -3.943  -3.127 -33.395  1.00  0.00     0.021 A 
HETATM   21  C   UNL     1      -4.372  -4.159 -34.236  1.00  0.00     0.043 A 
HETATM   22  C   UNL     1      -5.582  -4.040 -34.910  1.00  0.00     0.116 A 
HETATM   23  F   UNL     1      -5.989  -5.028 -35.717  1.00  0.00    -0.206 F 
HETATM   24  C   UNL     1      -6.376  -2.914 -34.753  1.00  0.00     0.043 A 
HETATM   25  C   UNL     1      -5.943  -1.880 -33.921  1.00  0.00     0.021 A 
ENDBRANCH  18  19
ENDBRANCH  17  18
ENDBRANCH  16  17
ENDBRANCH  15  16
ENDBRANCH  12  15
ENDBRANCH   7  11
BRANCH   6  26
HETATM   26  C   UNL     1      -9.233   0.441 -32.677  1.00  0.00     0.252 C 
HETATM   27  N   UNL     1      -9.317   0.410 -31.312  1.00  0.00    -0.366 N 
HETATM   28  H   UNL     1     -10.066   0.908 -30.846  1.00  0.00     0.159 HD
HETATM   29  H   UNL     1      -9.053  -0.476 -30.894  1.00  0.00     0.159 HD
HETATM   30  O   UNL     1      -8.753  -0.495 -33.303  1.00  0.00    -0.268 OA
ENDBRANCH   6  26
BRANCH   1  31
HETATM   31  C   UNL     1     -14.326   2.640 -32.414  1.00  0.00     0.273 C 
BRANCH  31  32
HETATM   32  C   UNL     1     -15.653   3.273 -32.097  1.00  0.00    -0.033 A 
HETATM   33  C   UNL     1     -15.765   4.621 -31.727  1.00  0.00     0.009 A 
HETATM   34  C   UNL     1     -17.020   5.178 -31.470  1.00  0.00     0.001 A 
HETATM   35  C   UNL     1     -18.171   4.406 -31.599  1.00  0.00     0.000 A 
HETATM   36  C   UNL     1     -18.076   3.073 -31.985  1.00  0.00     0.001 A 
HETATM   37  C   UNL     1     -16.826   2.509 -32.232  1.00  0.00     0.009 A 
ENDBRANCH  31  32
ENDBRANCH   1  31
TORSDOF 9
ENDMDL
MODEL 8
REMARK VINA RESULT:      -8.1      2.363      3.026
REMARK  9 active torsions:
REMARK  status: ('A' for Active; 'I' for Inactive)
REMARK    1  A    between atoms: C_4  and  C_5 
REMARK    2  A    between atoms: C_5  and  N_6 
REMARK    3  A    between atoms: C_11  and  C_12 
REMARK       I    between atoms: C_12  and  N_13 
REMARK    4  A    between atoms: C_15  and  N_16 
REMARK       I    between atoms: N_16  and  C_17 
REMARK    5  A    between atoms: C_17  and  C_18 
REMARK    6  A    between atoms: C_18  and  C_19 
REMARK    7  A    between atoms: C_19  and  C_20 
REMARK    8  A    between atoms: C_20  and  S_21 
REMARK    9  A    between atoms: S_21  and  C_22 
ROOT
HETATM    1  N   UNL     1      -4.226  -0.796 -32.130  1.00  0.00    -0.063 N 
HETATM    2  H   UNL     1      -3.743  -1.604 -31.728  1.00  0.00     0.280 HD
HETATM    3  C   UNL     1      -3.406   0.424 -31.714  1.00  0.00     0.282 C 
HETATM    4  C   UNL     1      -4.205   1.675 -31.838  1.00  0.00     0.018 C 
HETATM    5  C   UNL     1      -5.575   1.738 -31.994  1.00  0.00    -0.023 C 
HETATM    6  C   UNL     1      -6.020   3.094 -32.224  1.00  0.00     0.073 C 
HETATM    7  C   UNL     1      -4.997   3.988 -31.937  1.00  0.00     0.093 C 
HETATM    8  S   UNL     1      -3.496   3.208 -31.738  1.00  0.00    -0.074 SA
HETATM    9  C   UNL     1      -6.418   0.491 -31.990  1.00  0.00     0.068 C 
HETATM   10  C   UNL     1      -5.620  -0.738 -31.506  1.00  0.00     0.240 C 
ENDROOT
BRANCH   7  11
HETATM   11  N   UNL     1      -5.092   5.370 -31.860  1.00  0.00    -0.320 N 
HETATM   12  C   UNL     1      -5.757   6.083 -30.870  1.00  0.00     0.222 C 
HETATM   13  O   UNL     1      -6.383   5.611 -29.929  1.00  0.00    -0.273 OA
HETATM   14  H   UNL     1      -4.913   5.870 -32.727  1.00  0.00     0.169 HD
BRANCH  12  15
HETATM   15  C   UNL     1      -5.621   7.586 -31.075  1.00  0.00     0.104 C 
BRANCH  15  16
HETATM   16  C   UNL     1      -5.467   8.371 -29.773  1.00  0.00     0.020 C 
BRANCH  16  17
HETATM   17  C   UNL     1      -4.328   7.971 -28.827  1.00  0.00     0.080 C 
BRANCH  17  18
HETATM   18  S   UNL     1      -2.817   8.999 -28.856  1.00  0.00    -0.130 SA
BRANCH  18  19
HETATM   19  C   UNL     1      -1.562   7.894 -29.477  1.00  0.00     0.000 A 
HETATM   20  C   UNL     1      -0.246   7.861 -29.002  1.00  0.00     0.021 A 
HETATM   21  C   UNL     1       0.681   6.972 -29.554  1.00  0.00     0.043 A 
HETATM   22  C   UNL     1       0.285   6.101 -30.562  1.00  0.00     0.116 A 
HETATM   23  F   UNL     1       1.176   5.252 -31.090  1.00  0.00    -0.206 F 
HETATM   24  C   UNL     1      -1.023   6.096 -31.024  1.00  0.00     0.043 A 
HETATM   25  C   UNL     1      -1.946   6.990 -30.480  1.00  0.00     0.021 A 
ENDBRANCH  18  19
ENDBRANCH  17  18
ENDBRANCH  16  17
ENDBRANCH  15  16
ENDBRANCH  12  15
ENDBRANCH   7  11
BRANCH   6  26
HETATM   26  C   UNL     1      -7.377   3.466 -32.613  1.00  0.00     0.252 C 
HETATM   27  N   UNL     1      -7.562   3.747 -33.938  1.00  0.00    -0.366 N 
HETATM   28  H   UNL     1      -6.938   3.343 -34.626  1.00  0.00     0.159 HD
HETATM   29  H   UNL     1      -8.534   3.826 -34.220  1.00  0.00     0.159 HD
HETATM   30  O   UNL     1      -8.320   3.446 -31.832  1.00  0.00    -0.268 OA
ENDBRANCH   6  26
BRANCH   1  31
HETATM   31  C   UNL     1      -4.290  -1.039 -33.622  1.00  0.00     0.273 C 
BRANCH  31  32
HETATM   32  C   UNL     1      -4.889  -2.349 -34.052  1.00  0.00    -0.033 A 
HETATM   33  C   UNL     1      -6.153  -2.426 -34.656  1.00  0.00     0.009 A 
HETATM   34  C   UNL     1      -6.661  -3.660 -35.069  1.00  0.00     0.001 A 
HETATM   35  C   UNL     1      -5.910  -4.820 -34.904  1.00  0.00     0.000 A 
HETATM   36  C   UNL     1      -4.646  -4.755 -34.325  1.00  0.00     0.001 A 
HETATM   37  C   UNL     1      -4.139  -3.528 -33.901  1.00  0.00     0.009 A 
ENDBRANCH  31  32
ENDBRANCH   1  31
TORSDOF 9
ENDMDL
MODEL 9
REMARK VINA RESULT:      -8.0      3.956     10.701
REMARK  9 active torsions:
REMARK  status: ('A' for Active; 'I' for Inactive)
REMARK    1  A    between atoms: C_4  and  C_5 
REMARK    2  A    between atoms: C_5  and  N_6 
REMARK    3  A    between atoms: C_11  and  C_12 
REMARK       I    between atoms: C_12  and  N_13 
REMARK    4  A    between atoms: C_15  and  N_16 
REMARK       I    between atoms: N_16  and  C_17 
REMARK    5  A    between atoms: C_17  and  C_18 
REMARK    6  A    between atoms: C_18  and  C_19 
REMARK    7  A    between atoms: C_19  and  C_20 
REMARK    8  A    between atoms: C_20  and  S_21 
REMARK    9  A    between atoms: S_21  and  C_22 
ROOT
HETATM    1  N   UNL     1      -0.836   8.424 -26.377  1.00  0.00    -0.063 N 
HETATM    2  H   UNL     1      -1.319   8.824 -25.567  1.00  0.00     0.280 HD
HETATM    3  C   UNL     1      -1.812   8.553 -27.545  1.00  0.00     0.282 C 
HETATM    4  C   UNL     1      -1.441   7.635 -28.657  1.00  0.00     0.018 C 
HETATM    5  C   UNL     1      -0.550   6.583 -28.565  1.00  0.00    -0.023 C 
HETATM    6  C   UNL     1      -0.308   5.980 -29.856  1.00  0.00     0.073 C 
HETATM    7  C   UNL     1      -1.247   6.428 -30.777  1.00  0.00     0.093 C 
HETATM    8  S   UNL     1      -2.142   7.753 -30.192  1.00  0.00    -0.074 SA
HETATM    9  C   UNL     1       0.101   6.226 -27.256  1.00  0.00     0.068 C 
HETATM   10  C   UNL     1      -0.566   6.952 -26.068  1.00  0.00     0.240 C 
ENDROOT
BRANCH   7  11
HETATM   11  N   UNL     1      -1.454   5.944 -32.061  1.00  0.00    -0.320 N 
HETATM   12  C   UNL     1      -1.961   4.691 -32.382  1.00  0.00     0.222 C 
HETATM   13  O   UNL     1      -2.277   3.809 -31.593  1.00  0.00    -0.273 OA
HETATM   14  H   UNL     1      -0.939   6.420 -32.796  1.00  0.00     0.169 HD
BRANCH  12  15
HETATM   15  C   UNL     1      -2.096   4.511 -33.889  1.00  0.00     0.104 C 
BRANCH  15  16
HETATM   16  C   UNL     1      -3.251   5.303 -34.500  1.00  0.00     0.020 C 
BRANCH  16  17
HETATM   17  C   UNL     1      -4.574   5.348 -33.727  1.00  0.00     0.080 C 
BRANCH  17  18
HETATM   18  S   UNL     1      -5.797   4.037 -34.085  1.00  0.00    -0.130 SA
BRANCH  18  19
HETATM   19  C   UNL     1      -5.827   3.063 -32.591  1.00  0.00     0.000 A 
HETATM   20  C   UNL     1      -6.727   3.273 -31.540  1.00  0.00     0.021 A 
HETATM   21  C   UNL     1      -6.674   2.471 -30.395  1.00  0.00     0.043 A 
HETATM   22  C   UNL     1      -5.739   1.446 -30.314  1.00  0.00     0.116 A 
HETATM   23  F   UNL     1      -5.689   0.682 -29.216  1.00  0.00    -0.206 F 
HETATM   24  C   UNL     1      -4.859   1.202 -31.358  1.00  0.00     0.043 A 
HETATM   25  C   UNL     1      -4.905   2.009 -32.497  1.00  0.00     0.021 A 
ENDBRANCH  18  19
ENDBRANCH  17  18
ENDBRANCH  16  17
ENDBRANCH  15  16
ENDBRANCH  12  15
ENDBRANCH   7  11
BRANCH   6  26
HETATM   26  C   UNL     1       0.720   4.978 -30.123  1.00  0.00     0.252 C 
HETATM   27  N   UNL     1       1.043   4.160 -29.075  1.00  0.00    -0.366 N 
HETATM   28  H   UNL     1       0.363   3.997 -28.342  1.00  0.00     0.159 HD
HETATM   29  H   UNL     1       1.618   3.363 -29.325  1.00  0.00     0.159 HD
HETATM   30  O   UNL     1       1.207   4.807 -31.233  1.00  0.00    -0.268 OA
ENDBRANCH   6  26
BRANCH   1  31
HETATM   31  C   UNL     1       0.448   9.207 -26.533  1.00  0.00     0.273 C 
BRANCH  31  32
HETATM   32  C   UNL     1       1.285   9.360 -25.292  1.00  0.00    -0.033 A 
HETATM   33  C   UNL     1       0.784   9.958 -24.127  1.00  0.00     0.009 A 
HETATM   34  C   UNL     1       1.584  10.054 -22.986  1.00  0.00     0.001 A 
HETATM   35  C   UNL     1       2.877   9.538 -22.989  1.00  0.00     0.000 A 
HETATM   36  C   UNL     1       3.379   8.924 -24.133  1.00  0.00     0.001 A 
HETATM   37  C   UNL     1       2.589   8.836 -25.278  1.00  0.00     0.009 A 
ENDBRANCH  31  32
ENDBRANCH   1  31
TORSDOF 9
ENDMDL
MODEL 10
REMARK VINA RESULT:      -7.9      6.575     10.512
REMARK  9 active torsions:
REMARK  status: ('A' for Active; 'I' for Inactive)
REMARK    1  A    between atoms: C_4  and  C_5 
REMARK    2  A    between atoms: C_5  and  N_6 
REMARK    3  A    between atoms: C_11  and  C_12 
REMARK       I    between atoms: C_12  and  N_13 
REMARK    4  A    between atoms: C_15  and  N_16 
REMARK       I    between atoms: N_16  and  C_17 
REMARK    5  A    between atoms: C_17  and  C_18 
REMARK    6  A    between atoms: C_18  and  C_19 
REMARK    7  A    between atoms: C_19  and  C_20 
REMARK    8  A    between atoms: C_20  and  S_21 
REMARK    9  A    between atoms: S_21  and  C_22 
ROOT
HETATM    1  N   UNL     1     -13.541   4.516 -32.408  1.00  0.00    -0.063 N 
HETATM    2  H   UNL     1     -14.116   5.355 -32.530  1.00  0.00     0.280 HD
HETATM    3  C   UNL     1     -12.386   4.936 -31.500  1.00  0.00     0.282 C 
HETATM    4  C   UNL     1     -11.254   3.974 -31.593  1.00  0.00     0.018 C 
HETATM    5  C   UNL     1     -11.097   3.012 -32.571  1.00  0.00    -0.023 C 
HETATM    6  C   UNL     1      -9.969   2.153 -32.294  1.00  0.00     0.073 C 
HETATM    7  C   UNL     1      -9.185   2.703 -31.288  1.00  0.00     0.093 C 
HETATM    8  S   UNL     1      -9.962   3.997 -30.500  1.00  0.00    -0.074 SA
HETATM    9  C   UNL     1     -12.073   2.895 -33.711  1.00  0.00     0.068 C 
HETATM   10  C   UNL     1     -13.016   4.115 -33.786  1.00  0.00     0.240 C 
ENDROOT
BRANCH   7  11
HETATM   11  N   UNL     1      -7.934   2.271 -30.873  1.00  0.00    -0.320 N 
HETATM   12  C   UNL     1      -6.733   2.933 -31.098  1.00  0.00     0.222 C 
HETATM   13  O   UNL     1      -6.583   3.981 -31.715  1.00  0.00    -0.273 OA
HETATM   14  H   UNL     1      -7.863   1.282 -30.650  1.00  0.00     0.169 HD
BRANCH  12  15
HETATM   15  C   UNL     1      -5.560   2.195 -30.465  1.00  0.00     0.104 C 
BRANCH  15  16
HETATM   16  C   UNL     1      -5.881   0.754 -30.072  1.00  0.00     0.020 C 
BRANCH  16  17
HETATM   17  C   UNL     1      -5.383  -0.366 -30.993  1.00  0.00     0.080 C 
BRANCH  17  18
HETATM   18  S   UNL     1      -5.029   0.075 -32.731  1.00  0.00    -0.130 SA
BRANCH  18  19
HETATM   19  C   UNL     1      -5.283  -1.452 -33.618  1.00  0.00     0.000 A 
HETATM   20  C   UNL     1      -4.262  -2.358 -33.921  1.00  0.00     0.021 A 
HETATM   21  C   UNL     1      -4.544  -3.528 -34.633  1.00  0.00     0.043 A 
HETATM   22  C   UNL     1      -5.851  -3.801 -35.019  1.00  0.00     0.116 A 
HETATM   23  F   UNL     1      -6.119  -4.921 -35.703  1.00  0.00    -0.206 F 
HETATM   24  C   UNL     1      -6.883  -2.931 -34.700  1.00  0.00     0.043 A 
HETATM   25  C   UNL     1      -6.599  -1.758 -33.998  1.00  0.00     0.021 A 
ENDBRANCH  18  19
ENDBRANCH  17  18
ENDBRANCH  16  17
ENDBRANCH  15  16
ENDBRANCH  12  15
ENDBRANCH   7  11
BRANCH   6  26
HETATM   26  C   UNL     1      -9.656   0.932 -33.031  1.00  0.00     0.252 C 
HETATM   27  N   UNL     1     -10.416  -0.163 -32.724  1.00  0.00    -0.366 N 
HETATM   28  H   UNL     1     -11.345  -0.033 -32.342  1.00  0.00     0.159 HD
HETATM   29  H   UNL     1     -10.309  -0.942 -33.364  1.00  0.00     0.159 HD
HETATM   30  O   UNL     1      -8.829   0.896 -33.934  1.00  0.00    -0.268 OA
ENDBRANCH   6  26
BRANCH   1  31
HETATM   31  C   UNL     1     -14.453   3.459 -31.827  1.00  0.00     0.273 C 
BRANCH  31  32
HETATM   32  C   UNL     1     -15.929   3.726 -31.936  1.00  0.00    -0.033 A 
HETATM   33  C   UNL     1     -16.855   2.701 -32.179  1.00  0.00     0.009 A 
HETATM   34  C   UNL     1     -18.220   2.987 -32.243  1.00  0.00     0.001 A 
HETATM   35  C   UNL     1     -18.676   4.288 -32.048  1.00  0.00     0.000 A 
HETATM   36  C   UNL     1     -17.769   5.311 -31.786  1.00  0.00     0.001 A 
HETATM   37  C   UNL     1     -16.404   5.033 -31.732  1.00  0.00     0.009 A 
ENDBRANCH  31  32
ENDBRANCH   1  31
TORSDOF 9
ENDMDL
