MODEL 1
REMARK VINA RESULT:      -8.9      0.000      0.000
REMARK  5 active torsions:
REMARK  status: ('A' for Active; 'I' for Inactive)
REMARK    1  A    between atoms: C_5  and  S_6 
REMARK    2  A    between atoms: S_6  and  C_7 
REMARK    3  A    between atoms: C_7  and  C_8 
REMARK       I    between atoms: C_8  and  N_9 
REMARK    4  A    between atoms: N_9  and  N_10 
REMARK       I    between atoms: N_10  and  C_11 
REMARK    5  A    between atoms: C_11  and  C_12 
ROOT
HETATM    1  N   UNL     1      -3.845   1.722 -32.515  1.00  0.00    -0.262 N 
HETATM    2  C   UNL     1      -3.504   0.437 -32.152  1.00  0.00     0.286 C 
HETATM    3  O   UNL     1      -2.653   0.206 -31.293  1.00  0.00    -0.264 OA
HETATM    4  H   UNL     1      -4.595   1.937 -33.166  1.00  0.00     0.190 HD
ENDROOT
BRANCH   1   5
HETATM    5  N   UNL     1      -3.303   2.804 -31.813  1.00  0.00    -0.267 N 
HETATM    6  C   UNL     1      -3.320   4.041 -32.425  1.00  0.00     0.245 C 
HETATM    7  O   UNL     1      -3.907   4.235 -33.490  1.00  0.00    -0.271 OA
HETATM    8  H   UNL     1      -2.661   2.585 -31.049  1.00  0.00     0.190 HD
BRANCH   6   9
HETATM    9  C   UNL     1      -2.664   5.161 -31.642  1.00  0.00     0.184 C 
BRANCH   9  10
HETATM   10  S   UNL     1      -0.921   5.374 -32.135  1.00  0.00    -0.121 SA
BRANCH  10  11
HETATM   11  C   UNL     1      -0.245   5.973 -30.597  1.00  0.00     0.001 A 
HETATM   12  C   UNL     1      -0.279   7.343 -30.322  1.00  0.00     0.019 A 
HETATM   13  C   UNL     1       0.233   7.837 -29.118  1.00  0.00     0.008 A 
HETATM   14  C   UNL     1       0.783   6.967 -28.171  1.00  0.00    -0.062 A 
HETATM   15  C   UNL     1       1.321   7.481 -26.869  1.00  0.00     0.048 C 
HETATM   16  C   UNL     1       0.798   5.594 -28.440  1.00  0.00     0.008 A 
HETATM   17  C   UNL     1       0.284   5.101 -29.642  1.00  0.00     0.019 A 
ENDBRANCH  10  11
ENDBRANCH   9  10
ENDBRANCH   6   9
ENDBRANCH   1   5
BRANCH   2  18
HETATM   18  C   UNL     1      -4.219  -0.612 -32.841  1.00  0.00     0.103 A 
HETATM   19  N   UNL     1      -3.644  -1.845 -33.071  1.00  0.00    -0.351 N 
HETATM   20  H   UNL     1      -2.704  -2.085 -32.785  1.00  0.00     0.166 HD
HETATM   21  C   UNL     1      -4.515  -2.685 -33.719  1.00  0.00     0.043 A 
HETATM   22  C   UNL     1      -5.691  -1.969 -33.930  1.00  0.00    -0.007 A 
HETATM   23  C   UNL     1      -4.355  -4.014 -34.132  1.00  0.00     0.030 A 
HETATM   24  C   UNL     1      -5.495  -0.672 -33.380  1.00  0.00     0.049 A 
HETATM   25  C   UNL     1      -6.764  -2.603 -34.586  1.00  0.00     0.014 A 
HETATM   26  C   UNL     1      -6.622  -3.931 -35.004  1.00  0.00     0.001 A 
HETATM   27  C   UNL     1      -5.434  -4.624 -34.780  1.00  0.00     0.002 A 
ENDBRANCH   2  18
TORSDOF 5
ENDMDL
MODEL 2
REMARK VINA RESULT:      -8.9      2.425     10.436
REMARK  5 active torsions:
REMARK  status: ('A' for Active; 'I' for Inactive)
REMARK    1  A    between atoms: C_5  and  S_6 
REMARK    2  A    between atoms: S_6  and  C_7 
REMARK    3  A    between atoms: C_7  and  C_8 
REMARK       I    between atoms: C_8  and  N_9 
REMARK    4  A    between atoms: N_9  and  N_10 
REMARK       I    between atoms: N_10  and  C_11 
REMARK    5  A    between atoms: C_11  and  C_12 
ROOT
HETATM    1  N   UNL     1      -2.276   4.805 -30.842  1.00  0.00    -0.262 N 
HETATM    2  C   UNL     1      -0.960   5.156 -31.053  1.00  0.00     0.286 C 
HETATM    3  O   UNL     1      -0.340   4.795 -32.053  1.00  0.00    -0.264 OA
HETATM    4  H   UNL     1      -2.829   5.153 -30.063  1.00  0.00     0.190 HD
ENDROOT
BRANCH   1   5
HETATM    5  N   UNL     1      -2.974   4.117 -31.841  1.00  0.00    -0.267 N 
HETATM    6  C   UNL     1      -4.219   3.613 -31.524  1.00  0.00     0.245 C 
HETATM    7  O   UNL     1      -4.773   3.866 -30.452  1.00  0.00    -0.271 OA
HETATM    8  H   UNL     1      -2.427   3.757 -32.624  1.00  0.00     0.190 HD
BRANCH   6   9
HETATM    9  C   UNL     1      -4.900   2.826 -32.625  1.00  0.00     0.184 C 
BRANCH   9  10
HETATM   10  S   UNL     1      -6.309   1.869 -31.975  1.00  0.00    -0.121 SA
BRANCH  10  11
HETATM   11  C   UNL     1      -6.108   0.364 -32.911  1.00  0.00     0.001 A 
HETATM   12  C   UNL     1      -4.851  -0.244 -32.968  1.00  0.00     0.019 A 
HETATM   13  C   UNL     1      -4.670  -1.431 -33.685  1.00  0.00     0.008 A 
HETATM   14  C   UNL     1      -5.745  -2.027 -34.353  1.00  0.00    -0.062 A 
HETATM   15  C   UNL     1      -5.569  -3.308 -35.113  1.00  0.00     0.048 C 
HETATM   16  C   UNL     1      -7.006  -1.426 -34.279  1.00  0.00     0.008 A 
HETATM   17  C   UNL     1      -7.188  -0.243 -33.560  1.00  0.00     0.019 A 
ENDBRANCH  10  11
ENDBRANCH   9  10
ENDBRANCH   6   9
ENDBRANCH   1   5
BRANCH   2  18
HETATM   18  C   UNL     1      -0.368   5.983 -30.026  1.00  0.00     0.103 A 
HETATM   19  N   UNL     1      -0.505   5.677 -28.688  1.00  0.00    -0.351 N 
HETATM   20  H   UNL     1      -1.023   4.877 -28.347  1.00  0.00     0.166 HD
HETATM   21  C   UNL     1       0.158   6.587 -27.901  1.00  0.00     0.043 A 
HETATM   22  C   UNL     1       0.732   7.522 -28.757  1.00  0.00    -0.007 A 
HETATM   23  C   UNL     1       0.293   6.652 -26.508  1.00  0.00     0.030 A 
HETATM   24  C   UNL     1       0.395   7.138 -30.084  1.00  0.00     0.049 A 
HETATM   25  C   UNL     1       1.479   8.581 -28.203  1.00  0.00     0.014 A 
HETATM   26  C   UNL     1       1.624   8.662 -26.814  1.00  0.00     0.001 A 
HETATM   27  C   UNL     1       1.038   7.710 -25.981  1.00  0.00     0.002 A 
ENDBRANCH   2  18
TORSDOF 5
ENDMDL
MODEL 3
REMARK VINA RESULT:      -8.9      1.523      2.018
REMARK  5 active torsions:
REMARK  status: ('A' for Active; 'I' for Inactive)
REMARK    1  A    between atoms: C_5  and  S_6 
REMARK    2  A    between atoms: S_6  and  C_7 
REMARK    3  A    between atoms: C_7  and  C_8 
REMARK       I    between atoms: C_8  and  N_9 
REMARK    4  A    between atoms: N_9  and  N_10 
REMARK       I    between atoms: N_10  and  C_11 
REMARK    5  A    between atoms: C_11  and  C_12 
ROOT
HETATM    1  N   UNL     1      -5.003   1.431 -32.666  1.00  0.00    -0.262 N 
HETATM    2  C   UNL     1      -5.898   1.000 -33.621  1.00  0.00     0.286 C 
HETATM    3  O   UNL     1      -6.680   1.770 -34.179  1.00  0.00    -0.264 OA
HETATM    4  H   UNL     1      -4.300   0.829 -32.248  1.00  0.00     0.190 HD
ENDROOT
BRANCH   1   5
HETATM    5  N   UNL     1      -4.888   2.800 -32.398  1.00  0.00    -0.267 N 
HETATM    6  C   UNL     1      -3.826   3.215 -31.620  1.00  0.00     0.245 C 
HETATM    7  O   UNL     1      -2.926   2.445 -31.278  1.00  0.00    -0.271 OA
HETATM    8  H   UNL     1      -5.728   3.367 -32.516  1.00  0.00     0.190 HD
BRANCH   6   9
HETATM    9  C   UNL     1      -3.787   4.699 -31.313  1.00  0.00     0.184 C 
BRANCH   9  10
HETATM   10  S   UNL     1      -2.613   5.565 -32.406  1.00  0.00    -0.121 SA
BRANCH  10  11
HETATM   11  C   UNL     1      -1.543   6.294 -31.179  1.00  0.00     0.001 A 
HETATM   12  C   UNL     1      -0.165   6.332 -31.409  1.00  0.00     0.019 A 
HETATM   13  C   UNL     1       0.694   6.909 -30.469  1.00  0.00     0.008 A 
HETATM   14  C   UNL     1       0.187   7.459 -29.287  1.00  0.00    -0.062 A 
HETATM   15  C   UNL     1       1.095   8.095 -28.277  1.00  0.00     0.048 C 
HETATM   16  C   UNL     1      -1.195   7.436 -29.068  1.00  0.00     0.008 A 
HETATM   17  C   UNL     1      -2.053   6.863 -30.009  1.00  0.00     0.019 A 
ENDBRANCH  10  11
ENDBRANCH   9  10
ENDBRANCH   6   9
ENDBRANCH   1   5
BRANCH   2  18
HETATM   18  C   UNL     1      -5.847  -0.412 -33.925  1.00  0.00     0.103 A 
HETATM   19  N   UNL     1      -4.725  -1.166 -33.652  1.00  0.00    -0.351 N 
HETATM   20  H   UNL     1      -3.883  -0.787 -33.238  1.00  0.00     0.166 HD
HETATM   21  C   UNL     1      -4.913  -2.481 -34.004  1.00  0.00     0.043 A 
HETATM   22  C   UNL     1      -6.195  -2.579 -34.536  1.00  0.00    -0.007 A 
HETATM   23  C   UNL     1      -4.054  -3.581 -33.892  1.00  0.00     0.030 A 
HETATM   24  C   UNL     1      -6.771  -1.279 -34.486  1.00  0.00     0.049 A 
HETATM   25  C   UNL     1      -6.650  -3.835 -34.984  1.00  0.00     0.014 A 
HETATM   26  C   UNL     1      -5.805  -4.946 -34.879  1.00  0.00     0.001 A 
HETATM   27  C   UNL     1      -4.526  -4.817 -34.341  1.00  0.00     0.002 A 
ENDBRANCH   2  18
TORSDOF 5
ENDMDL
MODEL 4
REMARK VINA RESULT:      -8.4      1.555      2.243
REMARK  5 active torsions:
REMARK  status: ('A' for Active; 'I' for Inactive)
REMARK    1  A    between atoms: C_5  and  S_6 
REMARK    2  A    between atoms: S_6  and  C_7 
REMARK    3  A    between atoms: C_7  and  C_8 
REMARK       I    between atoms: C_8  and  N_9 
REMARK    4  A    between atoms: N_9  and  N_10 
REMARK       I    between atoms: N_10  and  C_11 
REMARK    5  A    between atoms: C_11  and  C_12 
ROOT
HETATM    1  N   UNL     1      -3.875   2.206 -31.173  1.00  0.00    -0.262 N 
HETATM    2  C   UNL     1      -4.619   1.588 -32.155  1.00  0.00     0.286 C 
HETATM    3  O   UNL     1      -5.461   2.197 -32.815  1.00  0.00    -0.264 OA
HETATM    4  H   UNL     1      -3.124   1.743 -30.668  1.00  0.00     0.190 HD
ENDROOT
BRANCH   1   5
HETATM    5  N   UNL     1      -3.986   3.589 -30.991  1.00  0.00    -0.267 N 
HETATM    6  C   UNL     1      -2.860   4.357 -31.205  1.00  0.00     0.245 C 
HETATM    7  O   UNL     1      -1.823   3.881 -31.671  1.00  0.00    -0.271 OA
HETATM    8  H   UNL     1      -4.769   3.920 -30.426  1.00  0.00     0.190 HD
BRANCH   6   9
HETATM    9  C   UNL     1      -3.024   5.839 -30.933  1.00  0.00     0.184 C 
BRANCH   9  10
HETATM   10  S   UNL     1      -1.602   6.786 -31.571  1.00  0.00    -0.121 SA
BRANCH  10  11
HETATM   11  C   UNL     1      -0.699   7.031 -30.053  1.00  0.00     0.001 A 
HETATM   12  C   UNL     1       0.065   5.983 -29.534  1.00  0.00     0.019 A 
HETATM   13  C   UNL     1       0.793   6.154 -28.352  1.00  0.00     0.008 A 
HETATM   14  C   UNL     1       0.768   7.377 -27.674  1.00  0.00    -0.062 A 
HETATM   15  C   UNL     1       1.555   7.580 -26.414  1.00  0.00     0.048 C 
HETATM   16  C   UNL     1       0.017   8.431 -28.206  1.00  0.00     0.008 A 
HETATM   17  C   UNL     1      -0.707   8.261 -29.389  1.00  0.00     0.019 A 
ENDBRANCH  10  11
ENDBRANCH   9  10
ENDBRANCH   6   9
ENDBRANCH   1   5
BRANCH   2  18
HETATM   18  C   UNL     1      -4.334   0.186 -32.359  1.00  0.00     0.103 A 
HETATM   19  N   UNL     1      -4.764  -0.478 -33.488  1.00  0.00    -0.351 N 
HETATM   20  H   UNL     1      -5.301  -0.040 -34.225  1.00  0.00     0.166 HD
HETATM   21  C   UNL     1      -4.359  -1.791 -33.475  1.00  0.00     0.043 A 
HETATM   22  C   UNL     1      -3.653  -1.987 -32.291  1.00  0.00    -0.007 A 
HETATM   23  C   UNL     1      -4.560  -2.810 -34.414  1.00  0.00     0.030 A 
HETATM   24  C   UNL     1      -3.646  -0.745 -31.598  1.00  0.00     0.049 A 
HETATM   25  C   UNL     1      -3.120  -3.262 -32.022  1.00  0.00     0.014 A 
HETATM   26  C   UNL     1      -3.311  -4.293 -32.949  1.00  0.00     0.001 A 
HETATM   27  C   UNL     1      -4.021  -4.068 -34.126  1.00  0.00     0.002 A 
ENDBRANCH   2  18
TORSDOF 5
ENDMDL
MODEL 5
REMARK VINA RESULT:      -8.4      6.981     10.104
REMARK  5 active torsions:
REMARK  status: ('A' for Active; 'I' for Inactive)
REMARK    1  A    between atoms: C_5  and  S_6 
REMARK    2  A    between atoms: S_6  and  C_7 
REMARK    3  A    between atoms: C_7  and  C_8 
REMARK       I    between atoms: C_8  and  N_9 
REMARK    4  A    between atoms: N_9  and  N_10 
REMARK       I    between atoms: N_10  and  C_11 
REMARK    5  A    between atoms: C_11  and  C_12 
ROOT
HETATM    1  N   UNL     1      -8.747   0.678 -34.866  1.00  0.00    -0.262 N 
HETATM    2  C   UNL     1      -7.395   0.797 -34.627  1.00  0.00     0.286 C 
HETATM    3  O   UNL     1      -6.845   1.893 -34.526  1.00  0.00    -0.264 OA
HETATM    4  H   UNL     1      -9.235  -0.214 -34.879  1.00  0.00     0.190 HD
ENDROOT
BRANCH   1   5
HETATM    5  N   UNL     1      -9.549   1.825 -34.878  1.00  0.00    -0.267 N 
HETATM    6  C   UNL     1     -10.621   1.868 -34.009  1.00  0.00     0.245 C 
HETATM    7  O   UNL     1     -10.803   1.002 -33.152  1.00  0.00    -0.271 OA
HETATM    8  H   UNL     1      -9.500   2.415 -35.709  1.00  0.00     0.190 HD
BRANCH   6   9
HETATM    9  C   UNL     1     -11.488   3.107 -34.110  1.00  0.00     0.184 C 
BRANCH   9  10
HETATM   10  S   UNL     1     -11.785   3.837 -32.466  1.00  0.00    -0.121 SA
BRANCH  10  11
HETATM   11  C   UNL     1     -13.542   3.562 -32.328  1.00  0.00     0.001 A 
HETATM   12  C   UNL     1     -14.057   2.288 -32.583  1.00  0.00     0.019 A 
HETATM   13  C   UNL     1     -15.429   2.043 -32.469  1.00  0.00     0.008 A 
HETATM   14  C   UNL     1     -16.304   3.068 -32.096  1.00  0.00    -0.062 A 
HETATM   15  C   UNL     1     -17.776   2.816 -31.955  1.00  0.00     0.048 C 
HETATM   16  C   UNL     1     -15.784   4.338 -31.823  1.00  0.00     0.008 A 
HETATM   17  C   UNL     1     -14.412   4.581 -31.933  1.00  0.00     0.019 A 
ENDBRANCH  10  11
ENDBRANCH   9  10
ENDBRANCH   6   9
ENDBRANCH   1   5
BRANCH   2  18
HETATM   18  C   UNL     1      -6.677  -0.450 -34.496  1.00  0.00     0.103 A 
HETATM   19  N   UNL     1      -7.232  -1.646 -34.901  1.00  0.00    -0.351 N 
HETATM   20  H   UNL     1      -8.159  -1.726 -35.299  1.00  0.00     0.166 HD
HETATM   21  C   UNL     1      -6.362  -2.690 -34.701  1.00  0.00     0.043 A 
HETATM   22  C   UNL     1      -5.208  -2.154 -34.135  1.00  0.00    -0.007 A 
HETATM   23  C   UNL     1      -6.506  -4.055 -34.977  1.00  0.00     0.030 A 
HETATM   24  C   UNL     1      -5.416  -0.753 -34.007  1.00  0.00     0.049 A 
HETATM   25  C   UNL     1      -4.141  -3.018 -33.823  1.00  0.00     0.014 A 
HETATM   26  C   UNL     1      -4.266  -4.386 -34.092  1.00  0.00     0.001 A 
HETATM   27  C   UNL     1      -5.433  -4.894 -34.660  1.00  0.00     0.002 A 
ENDBRANCH   2  18
TORSDOF 5
ENDMDL
MODEL 6
REMARK VINA RESULT:      -8.2      2.258      2.866
REMARK  5 active torsions:
REMARK  status: ('A' for Active; 'I' for Inactive)
REMARK    1  A    between atoms: C_5  and  S_6 
REMARK    2  A    between atoms: S_6  and  C_7 
REMARK    3  A    between atoms: C_7  and  C_8 
REMARK       I    between atoms: C_8  and  N_9 
REMARK    4  A    between atoms: N_9  and  N_10 
REMARK       I    between atoms: N_10  and  C_11 
REMARK    5  A    between atoms: C_11  and  C_12 
ROOT
HETATM    1  N   UNL     1      -5.308   1.292 -32.446  1.00  0.00    -0.262 N 
HETATM    2  C   UNL     1      -5.917   0.940 -33.632  1.00  0.00     0.286 C 
HETATM    3  O   UNL     1      -6.441   1.774 -34.369  1.00  0.00    -0.264 OA
HETATM    4  H   UNL     1      -4.805   0.633 -31.860  1.00  0.00     0.190 HD
ENDROOT
BRANCH   1   5
HETATM    5  N   UNL     1      -5.172   2.646 -32.118  1.00  0.00    -0.267 N 
HETATM    6  C   UNL     1      -5.474   3.027 -30.826  1.00  0.00     0.245 C 
HETATM    7  O   UNL     1      -5.724   2.205 -29.943  1.00  0.00    -0.271 OA
HETATM    8  H   UNL     1      -5.164   3.311 -32.892  1.00  0.00     0.190 HD
BRANCH   6   9
HETATM    9  C   UNL     1      -5.368   4.513 -30.546  1.00  0.00     0.184 C 
BRANCH   9  10
HETATM   10  S   UNL     1      -5.050   5.449 -32.078  1.00  0.00    -0.121 SA
BRANCH  10  11
HETATM   11  C   UNL     1      -3.327   5.844 -31.838  1.00  0.00     0.001 A 
HETATM   12  C   UNL     1      -2.973   7.118 -31.388  1.00  0.00     0.019 A 
HETATM   13  C   UNL     1      -1.630   7.448 -31.180  1.00  0.00     0.008 A 
HETATM   14  C   UNL     1      -0.623   6.507 -31.416  1.00  0.00    -0.062 A 
HETATM   15  C   UNL     1       0.820   6.842 -31.182  1.00  0.00     0.048 C 
HETATM   16  C   UNL     1      -0.982   5.225 -31.848  1.00  0.00     0.008 A 
HETATM   17  C   UNL     1      -2.324   4.895 -32.053  1.00  0.00     0.019 A 
ENDBRANCH  10  11
ENDBRANCH   9  10
ENDBRANCH   6   9
ENDBRANCH   1   5
BRANCH   2  18
HETATM   18  C   UNL     1      -5.886  -0.470 -33.948  1.00  0.00     0.103 A 
HETATM   19  N   UNL     1      -4.773  -1.241 -33.688  1.00  0.00    -0.351 N 
HETATM   20  H   UNL     1      -3.923  -0.877 -33.277  1.00  0.00     0.166 HD
HETATM   21  C   UNL     1      -4.980  -2.550 -34.050  1.00  0.00     0.043 A 
HETATM   22  C   UNL     1      -6.268  -2.627 -34.575  1.00  0.00    -0.007 A 
HETATM   23  C   UNL     1      -4.135  -3.662 -33.953  1.00  0.00     0.030 A 
HETATM   24  C   UNL     1      -6.825  -1.320 -34.510  1.00  0.00     0.049 A 
HETATM   25  C   UNL     1      -6.742  -3.873 -35.029  1.00  0.00     0.014 A 
HETATM   26  C   UNL     1      -5.912  -4.996 -34.940  1.00  0.00     0.001 A 
HETATM   27  C   UNL     1      -4.627  -4.889 -34.409  1.00  0.00     0.002 A 
ENDBRANCH   2  18
TORSDOF 5
ENDMDL
MODEL 7
REMARK VINA RESULT:      -7.9      3.565      4.421
REMARK  5 active torsions:
REMARK  status: ('A' for Active; 'I' for Inactive)
REMARK    1  A    between atoms: C_5  and  S_6 
REMARK    2  A    between atoms: S_6  and  C_7 
REMARK    3  A    between atoms: C_7  and  C_8 
REMARK       I    between atoms: C_8  and  N_9 
REMARK    4  A    between atoms: N_9  and  N_10 
REMARK       I    between atoms: N_10  and  C_11 
REMARK    5  A    between atoms: C_11  and  C_12 
ROOT
HETATM    1  N   UNL     1      -6.444   1.427 -32.194  1.00  0.00    -0.262 N 
HETATM    2  C   UNL     1      -5.326   0.895 -32.800  1.00  0.00     0.286 C 
HETATM    3  O   UNL     1      -4.262   1.511 -32.861  1.00  0.00    -0.264 OA
HETATM    4  H   UNL     1      -7.309   0.909 -32.066  1.00  0.00     0.190 HD
ENDROOT
BRANCH   1   5
HETATM    5  N   UNL     1      -6.348   2.651 -31.522  1.00  0.00    -0.267 N 
HETATM    6  C   UNL     1      -7.356   3.573 -31.719  1.00  0.00     0.245 C 
HETATM    7  O   UNL     1      -8.379   3.299 -32.348  1.00  0.00    -0.271 OA
HETATM    8  H   UNL     1      -5.423   2.922 -31.185  1.00  0.00     0.190 HD
BRANCH   6   9
HETATM    9  C   UNL     1      -7.166   4.902 -31.015  1.00  0.00     0.184 C 
BRANCH   9  10
HETATM   10  S   UNL     1      -7.105   6.276 -32.211  1.00  0.00    -0.121 SA
BRANCH  10  11
HETATM   11  C   UNL     1      -5.512   5.963 -32.948  1.00  0.00     0.001 A 
HETATM   12  C   UNL     1      -5.436   5.200 -34.117  1.00  0.00     0.019 A 
HETATM   13  C   UNL     1      -4.200   4.951 -34.721  1.00  0.00     0.008 A 
HETATM   14  C   UNL     1      -3.023   5.463 -34.167  1.00  0.00    -0.062 A 
HETATM   15  C   UNL     1      -1.692   5.217 -34.813  1.00  0.00     0.048 C 
HETATM   16  C   UNL     1      -3.103   6.243 -33.007  1.00  0.00     0.008 A 
HETATM   17  C   UNL     1      -4.338   6.494 -32.405  1.00  0.00     0.019 A 
ENDBRANCH  10  11
ENDBRANCH   9  10
ENDBRANCH   6   9
ENDBRANCH   1   5
BRANCH   2  18
HETATM   18  C   UNL     1      -5.490  -0.433 -33.346  1.00  0.00     0.103 A 
HETATM   19  N   UNL     1      -4.471  -1.361 -33.299  1.00  0.00    -0.351 N 
HETATM   20  H   UNL     1      -3.562  -1.173 -32.896  1.00  0.00     0.166 HD
HETATM   21  C   UNL     1      -4.861  -2.554 -33.856  1.00  0.00     0.043 A 
HETATM   22  C   UNL     1      -6.173  -2.390 -34.291  1.00  0.00    -0.007 A 
HETATM   23  C   UNL     1      -4.159  -3.757 -34.006  1.00  0.00     0.030 A 
HETATM   24  C   UNL     1      -6.557  -1.058 -33.970  1.00  0.00     0.049 A 
HETATM   25  C   UNL     1      -6.825  -3.475 -34.909  1.00  0.00     0.014 A 
HETATM   26  C   UNL     1      -6.139  -4.685 -35.067  1.00  0.00     0.001 A 
HETATM   27  C   UNL     1      -4.826  -4.821 -34.621  1.00  0.00     0.002 A 
ENDBRANCH   2  18
TORSDOF 5
ENDMDL
MODEL 8
REMARK VINA RESULT:      -7.9      2.607      9.563
REMARK  5 active torsions:
REMARK  status: ('A' for Active; 'I' for Inactive)
REMARK    1  A    between atoms: C_5  and  S_6 
REMARK    2  A    between atoms: S_6  and  C_7 
REMARK    3  A    between atoms: C_7  and  C_8 
REMARK       I    between atoms: C_8  and  N_9 
REMARK    4  A    between atoms: N_9  and  N_10 
REMARK       I    between atoms: N_10  and  C_11 
REMARK    5  A    between atoms: C_11  and  C_12 
ROOT
HETATM    1  N   UNL     1      -4.592   4.150 -32.317  1.00  0.00    -0.262 N 
HETATM    2  C   UNL     1      -3.302   3.697 -32.144  1.00  0.00     0.286 C 
HETATM    3  O   UNL     1      -2.961   2.560 -32.468  1.00  0.00    -0.264 OA
HETATM    4  H   UNL     1      -4.877   5.107 -32.127  1.00  0.00     0.190 HD
ENDROOT
BRANCH   1   5
HETATM    5  N   UNL     1      -5.520   3.347 -32.988  1.00  0.00    -0.267 N 
HETATM    6  C   UNL     1      -6.818   3.335 -32.519  1.00  0.00     0.245 C 
HETATM    7  O   UNL     1      -7.199   4.100 -31.630  1.00  0.00    -0.271 OA
HETATM    8  H   UNL     1      -5.147   2.595 -33.569  1.00  0.00     0.190 HD
BRANCH   6   9
HETATM    9  C   UNL     1      -7.763   2.400 -33.246  1.00  0.00     0.184 C 
BRANCH   9  10
HETATM   10  S   UNL     1      -8.168   0.947 -32.222  1.00  0.00    -0.121 SA
BRANCH  10  11
HETATM   11  C   UNL     1      -7.066  -0.251 -32.953  1.00  0.00     0.001 A 
HETATM   12  C   UNL     1      -5.759  -0.362 -32.472  1.00  0.00     0.019 A 
HETATM   13  C   UNL     1      -4.880  -1.302 -33.019  1.00  0.00     0.008 A 
HETATM   14  C   UNL     1      -5.297  -2.145 -34.054  1.00  0.00    -0.062 A 
HETATM   15  C   UNL     1      -4.371  -3.168 -34.640  1.00  0.00     0.048 C 
HETATM   16  C   UNL     1      -6.613  -2.045 -34.522  1.00  0.00     0.008 A 
HETATM   17  C   UNL     1      -7.492  -1.109 -33.972  1.00  0.00     0.019 A 
ENDBRANCH  10  11
ENDBRANCH   9  10
ENDBRANCH   6   9
ENDBRANCH   1   5
BRANCH   2  18
HETATM   18  C   UNL     1      -2.383   4.651 -31.566  1.00  0.00     0.103 A 
HETATM   19  N   UNL     1      -2.756   5.466 -30.518  1.00  0.00    -0.351 N 
HETATM   20  H   UNL     1      -3.679   5.455 -30.102  1.00  0.00     0.166 HD
HETATM   21  C   UNL     1      -1.717   6.271 -30.121  1.00  0.00     0.043 A 
HETATM   22  C   UNL     1      -0.637   5.978 -30.949  1.00  0.00    -0.007 A 
HETATM   23  C   UNL     1      -1.650   7.228 -29.101  1.00  0.00     0.030 A 
HETATM   24  C   UNL     1      -1.064   4.965 -31.851  1.00  0.00     0.049 A 
HETATM   25  C   UNL     1       0.575   6.671 -30.756  1.00  0.00     0.014 A 
HETATM   26  C   UNL     1       0.660   7.630 -29.741  1.00  0.00     0.001 A 
HETATM   27  C   UNL     1      -0.438   7.903 -28.927  1.00  0.00     0.002 A 
ENDBRANCH   2  18
TORSDOF 5
ENDMDL
MODEL 9
REMARK VINA RESULT:      -7.8      6.948      8.953
REMARK  5 active torsions:
REMARK  status: ('A' for Active; 'I' for Inactive)
REMARK    1  A    between atoms: C_5  and  S_6 
REMARK    2  A    between atoms: S_6  and  C_7 
REMARK    3  A    between atoms: C_7  and  C_8 
REMARK       I    between atoms: C_8  and  N_9 
REMARK    4  A    between atoms: N_9  and  N_10 
REMARK       I    between atoms: N_10  and  C_11 
REMARK    5  A    between atoms: C_11  and  C_12 
ROOT
HETATM    1  N   UNL     1      -8.351   0.325 -34.965  1.00  0.00    -0.262 N 
HETATM    2  C   UNL     1      -7.035   0.324 -34.554  1.00  0.00     0.286 C 
HETATM    3  O   UNL     1      -6.441   1.363 -34.266  1.00  0.00    -0.264 OA
HETATM    4  H   UNL     1      -8.883  -0.524 -35.135  1.00  0.00     0.190 HD
ENDROOT
BRANCH   1   5
HETATM    5  N   UNL     1      -9.077   1.521 -34.947  1.00  0.00    -0.267 N 
HETATM    6  C   UNL     1     -10.156   1.603 -34.090  1.00  0.00     0.245 C 
HETATM    7  O   UNL     1     -10.405   0.722 -33.265  1.00  0.00    -0.271 OA
HETATM    8  H   UNL     1      -8.980   2.135 -35.757  1.00  0.00     0.190 HD
BRANCH   6   9
HETATM    9  C   UNL     1     -10.942   2.898 -34.158  1.00  0.00     0.184 C 
BRANCH   9  10
HETATM   10  S   UNL     1      -9.836   4.324 -34.417  1.00  0.00    -0.121 SA
BRANCH  10  11
HETATM   11  C   UNL     1     -10.995   5.475 -35.136  1.00  0.00     0.001 A 
HETATM   12  C   UNL     1     -12.330   5.094 -35.293  1.00  0.00     0.019 A 
HETATM   13  C   UNL     1     -13.260   5.982 -35.842  1.00  0.00     0.008 A 
HETATM   14  C   UNL     1     -12.868   7.264 -36.239  1.00  0.00    -0.062 A 
HETATM   15  C   UNL     1     -13.857   8.233 -36.816  1.00  0.00     0.048 C 
HETATM   16  C   UNL     1     -11.534   7.650 -36.064  1.00  0.00     0.008 A 
HETATM   17  C   UNL     1     -10.606   6.764 -35.512  1.00  0.00     0.019 A 
ENDBRANCH  10  11
ENDBRANCH   9  10
ENDBRANCH   6   9
ENDBRANCH   1   5
BRANCH   2  18
HETATM   18  C   UNL     1      -6.412  -0.977 -34.476  1.00  0.00     0.103 A 
HETATM   19  N   UNL     1      -5.211  -1.162 -33.823  1.00  0.00    -0.351 N 
HETATM   20  H   UNL     1      -4.698  -0.414 -33.374  1.00  0.00     0.166 HD
HETATM   21  C   UNL     1      -4.825  -2.479 -33.858  1.00  0.00     0.043 A 
HETATM   22  C   UNL     1      -5.802  -3.170 -34.570  1.00  0.00    -0.007 A 
HETATM   23  C   UNL     1      -3.696  -3.108 -33.319  1.00  0.00     0.030 A 
HETATM   24  C   UNL     1      -6.789  -2.222 -34.955  1.00  0.00     0.049 A 
HETATM   25  C   UNL     1      -5.650  -4.558 -34.759  1.00  0.00     0.014 A 
HETATM   26  C   UNL     1      -4.529  -5.203 -34.226  1.00  0.00     0.001 A 
HETATM   27  C   UNL     1      -3.567  -4.486 -33.517  1.00  0.00     0.002 A 
ENDBRANCH   2  18
TORSDOF 5
ENDMDL
MODEL 10
REMARK VINA RESULT:      -7.7      2.622      9.774
REMARK  5 active torsions:
REMARK  status: ('A' for Active; 'I' for Inactive)
REMARK    1  A    between atoms: C_5  and  S_6 
REMARK    2  A    between atoms: S_6  and  C_7 
REMARK    3  A    between atoms: C_7  and  C_8 
REMARK       I    between atoms: C_8  and  N_9 
REMARK    4  A    between atoms: N_9  and  N_10 
REMARK       I    between atoms: N_10  and  C_11 
REMARK    5  A    between atoms: C_11  and  C_12 
ROOT
HETATM    1  N   UNL     1      -4.791   3.463 -32.574  1.00  0.00    -0.262 N 
HETATM    2  C   UNL     1      -4.909   4.441 -31.610  1.00  0.00     0.286 C 
HETATM    3  O   UNL     1      -5.992   4.730 -31.103  1.00  0.00    -0.264 OA
HETATM    4  H   UNL     1      -3.899   3.156 -32.951  1.00  0.00     0.190 HD
ENDROOT
BRANCH   1   5
HETATM    5  N   UNL     1      -5.907   2.688 -32.909  1.00  0.00    -0.267 N 
HETATM    6  C   UNL     1      -5.986   1.414 -32.383  1.00  0.00     0.245 C 
HETATM    7  O   UNL     1      -5.187   1.004 -31.540  1.00  0.00    -0.271 OA
HETATM    8  H   UNL     1      -6.429   2.964 -33.742  1.00  0.00     0.190 HD
BRANCH   6   9
HETATM    9  C   UNL     1      -7.184   0.601 -32.830  1.00  0.00     0.184 C 
BRANCH   9  10
HETATM   10  S   UNL     1      -7.058   0.161 -34.595  1.00  0.00    -0.121 SA
BRANCH  10  11
HETATM   11  C   UNL     1      -6.245  -1.421 -34.453  1.00  0.00     0.001 A 
HETATM   12  C   UNL     1      -6.930  -2.579 -34.831  1.00  0.00     0.019 A 
HETATM   13  C   UNL     1      -6.311  -3.829 -34.741  1.00  0.00     0.008 A 
HETATM   14  C   UNL     1      -4.997  -3.938 -34.274  1.00  0.00    -0.062 A 
HETATM   15  C   UNL     1      -4.315  -5.271 -34.187  1.00  0.00     0.048 C 
HETATM   16  C   UNL     1      -4.307  -2.775 -33.915  1.00  0.00     0.008 A 
HETATM   17  C   UNL     1      -4.925  -1.526 -34.008  1.00  0.00     0.019 A 
ENDBRANCH  10  11
ENDBRANCH   9  10
ENDBRANCH   6   9
ENDBRANCH   1   5
BRANCH   2  18
HETATM   18  C   UNL     1      -3.674   5.091 -31.233  1.00  0.00     0.103 A 
HETATM   19  N   UNL     1      -2.452   4.611 -31.653  1.00  0.00    -0.351 N 
HETATM   20  H   UNL     1      -2.342   3.788 -32.232  1.00  0.00     0.166 HD
HETATM   21  C   UNL     1      -1.425   5.399 -31.193  1.00  0.00     0.043 A 
HETATM   22  C   UNL     1      -2.001   6.417 -30.438  1.00  0.00    -0.007 A 
HETATM   23  C   UNL     1      -0.042   5.291 -31.386  1.00  0.00     0.030 A 
HETATM   24  C   UNL     1      -3.409   6.214 -30.465  1.00  0.00     0.049 A 
HETATM   25  C   UNL     1      -1.162   7.378 -29.840  1.00  0.00     0.014 A 
HETATM   26  C   UNL     1       0.222   7.286 -30.024  1.00  0.00     0.001 A 
HETATM   27  C   UNL     1       0.771   6.256 -30.786  1.00  0.00     0.002 A 
ENDBRANCH   2  18
TORSDOF 5
ENDMDL
