MODEL 1
REMARK VINA RESULT:      -9.0      0.000      0.000
REMARK  6 active torsions:
REMARK  status: ('A' for Active; 'I' for Inactive)
REMARK    1  A    between atoms: C_5  and  C_6 
REMARK    2  A    between atoms: C_6  and  O_7 
REMARK    3  A    between atoms: C_6  and  C_8 
REMARK    4  A    between atoms: C_8  and  N_9 
REMARK       I    between atoms: N_9  and  C_10 
REMARK    5  A    between atoms: C_10  and  C_11 
REMARK    6  A    between atoms: C_11  and  C_12 
ROOT
HETATM    1  N   UNL     1      -5.686   3.430 -34.103  1.00  0.00    -0.358 N 
HETATM    2  C   UNL     1      -6.078   2.608 -33.068  1.00  0.00     0.222 C 
HETATM    3  O   UNL     1      -5.740   2.801 -31.904  1.00  0.00    -0.273 OA
HETATM    4  H   UNL     1      -6.194   3.367 -34.978  1.00  0.00     0.162 HD
ENDROOT
BRANCH   1   5
HETATM    5  C   UNL     1      -4.994   4.690 -33.831  1.00  0.00     0.159 C 
BRANCH   5   6
HETATM    6  C   UNL     1      -3.622   4.808 -34.529  1.00  0.00     0.169 C 
BRANCH   6   7
HETATM    7  C   UNL     1      -2.567   5.312 -33.565  1.00  0.00    -0.028 A 
HETATM    8  C   UNL     1      -2.180   4.582 -32.434  1.00  0.00     0.010 A 
HETATM    9  C   UNL     1      -1.185   5.063 -31.578  1.00  0.00     0.007 A 
HETATM   10  C   UNL     1      -0.559   6.287 -31.833  1.00  0.00    -0.062 A 
HETATM   11  C   UNL     1       0.531   6.793 -30.937  1.00  0.00     0.048 C 
HETATM   12  C   UNL     1      -0.931   7.014 -32.970  1.00  0.00     0.007 A 
HETATM   13  C   UNL     1      -1.927   6.534 -33.823  1.00  0.00     0.010 A 
ENDBRANCH   6   7
BRANCH   6  14
HETATM   14  O   UNL     1      -3.750   5.690 -35.652  1.00  0.00    -0.389 OA
HETATM   15  H   UNL     1      -3.448   5.169 -36.417  1.00  0.00     0.210 HD
ENDBRANCH   6  14
ENDBRANCH   5   6
ENDBRANCH   1   5
BRANCH   2  16
HETATM   16  C   UNL     1      -6.975   1.452 -33.473  1.00  0.00     0.142 C 
BRANCH  16  17
HETATM   17  C   UNL     1      -6.268   0.128 -33.608  1.00  0.00    -0.031 A 
HETATM   18  C   UNL     1      -4.908  -0.035 -33.374  1.00  0.00     0.125 A 
HETATM   19  N   UNL     1      -4.240  -1.202 -33.523  1.00  0.00    -0.260 NA
HETATM   20  C   UNL     1      -4.923  -2.274 -33.960  1.00  0.00     0.066 A 
HETATM   21  C   UNL     1      -6.299  -2.218 -34.254  1.00  0.00    -0.007 A 
HETATM   22  C   UNL     1      -4.259  -3.480 -34.139  1.00  0.00     0.032 A 
HETATM   23  C   UNL     1      -6.962  -0.994 -34.070  1.00  0.00     0.022 A 
HETATM   24  C   UNL     1      -6.968  -3.363 -34.724  1.00  0.00     0.014 A 
HETATM   25  C   UNL     1      -6.277  -4.560 -34.900  1.00  0.00     0.001 A 
HETATM   26  C   UNL     1      -4.920  -4.620 -34.606  1.00  0.00     0.002 A 
ENDBRANCH  16  17
ENDBRANCH   2  16
TORSDOF 6
ENDMDL
MODEL 2
REMARK VINA RESULT:      -9.0      4.937      8.334
REMARK  6 active torsions:
REMARK  status: ('A' for Active; 'I' for Inactive)
REMARK    1  A    between atoms: C_5  and  C_6 
REMARK    2  A    between atoms: C_6  and  O_7 
REMARK    3  A    between atoms: C_6  and  C_8 
REMARK    4  A    between atoms: C_8  and  N_9 
REMARK       I    between atoms: N_9  and  C_10 
REMARK    5  A    between atoms: C_10  and  C_11 
REMARK    6  A    between atoms: C_11  and  C_12 
ROOT
HETATM    1  N   UNL     1      -9.495   1.335 -34.671  1.00  0.00    -0.358 N 
HETATM    2  C   UNL     1      -8.420   1.228 -33.814  1.00  0.00     0.222 C 
HETATM    3  O   UNL     1      -8.548   1.166 -32.595  1.00  0.00    -0.273 OA
HETATM    4  H   UNL     1      -9.343   1.128 -35.651  1.00  0.00     0.162 HD
ENDROOT
BRANCH   1   5
HETATM    5  C   UNL     1     -10.862   1.192 -34.171  1.00  0.00     0.159 C 
BRANCH   5   6
HETATM    6  C   UNL     1     -11.870   2.152 -34.838  1.00  0.00     0.169 C 
BRANCH   6   7
HETATM    7  C   UNL     1     -13.153   2.233 -34.035  1.00  0.00    -0.028 A 
HETATM    8  C   UNL     1     -13.382   3.245 -33.094  1.00  0.00     0.010 A 
HETATM    9  C   UNL     1     -14.587   3.306 -32.388  1.00  0.00     0.007 A 
HETATM   10  C   UNL     1     -15.586   2.352 -32.605  1.00  0.00    -0.062 A 
HETATM   11  C   UNL     1     -16.893   2.431 -31.875  1.00  0.00     0.048 C 
HETATM   12  C   UNL     1     -15.369   1.347 -33.554  1.00  0.00     0.007 A 
HETATM   13  C   UNL     1     -14.164   1.285 -34.257  1.00  0.00     0.010 A 
ENDBRANCH   6   7
BRANCH   6  14
HETATM   14  O   UNL     1     -12.130   1.694 -36.171  1.00  0.00    -0.389 OA
HETATM   15  H   UNL     1     -13.081   1.490 -36.186  1.00  0.00     0.210 HD
ENDBRANCH   6  14
ENDBRANCH   5   6
ENDBRANCH   1   5
BRANCH   2  16
HETATM   16  C   UNL     1      -7.063   1.173 -34.492  1.00  0.00     0.142 C 
BRANCH  16  17
HETATM   17  C   UNL     1      -6.313  -0.118 -34.290  1.00  0.00    -0.031 A 
HETATM   18  C   UNL     1      -5.038  -0.178 -33.741  1.00  0.00     0.125 A 
HETATM   19  N   UNL     1      -4.326  -1.318 -33.582  1.00  0.00    -0.260 NA
HETATM   20  C   UNL     1      -4.866  -2.470 -34.012  1.00  0.00     0.066 A 
HETATM   21  C   UNL     1      -6.141  -2.524 -34.609  1.00  0.00    -0.007 A 
HETATM   22  C   UNL     1      -4.152  -3.652 -33.878  1.00  0.00     0.032 A 
HETATM   23  C   UNL     1      -6.858  -1.324 -34.741  1.00  0.00     0.022 A 
HETATM   24  C   UNL     1      -6.659  -3.752 -35.059  1.00  0.00     0.014 A 
HETATM   25  C   UNL     1      -5.917  -4.924 -34.917  1.00  0.00     0.001 A 
HETATM   26  C   UNL     1      -4.662  -4.874 -34.324  1.00  0.00     0.002 A 
ENDBRANCH  16  17
ENDBRANCH   2  16
TORSDOF 6
ENDMDL
MODEL 3
REMARK VINA RESULT:      -8.8      2.372      7.566
REMARK  6 active torsions:
REMARK  status: ('A' for Active; 'I' for Inactive)
REMARK    1  A    between atoms: C_5  and  C_6 
REMARK    2  A    between atoms: C_6  and  O_7 
REMARK    3  A    between atoms: C_6  and  C_8 
REMARK    4  A    between atoms: C_8  and  N_9 
REMARK       I    between atoms: N_9  and  C_10 
REMARK    5  A    between atoms: C_10  and  C_11 
REMARK    6  A    between atoms: C_11  and  C_12 
ROOT
HETATM    1  N   UNL     1      -7.916   0.902 -32.621  1.00  0.00    -0.358 N 
HETATM    2  C   UNL     1      -7.134   0.817 -31.488  1.00  0.00     0.222 C 
HETATM    3  O   UNL     1      -6.830  -0.255 -30.972  1.00  0.00    -0.273 OA
HETATM    4  H   UNL     1      -7.917   1.778 -33.132  1.00  0.00     0.162 HD
ENDROOT
BRANCH   1   5
HETATM    5  C   UNL     1      -8.269  -0.301 -33.373  1.00  0.00     0.159 C 
BRANCH   5   6
HETATM    6  C   UNL     1      -7.439  -0.494 -34.661  1.00  0.00     0.169 C 
BRANCH   6   7
HETATM    7  C   UNL     1      -6.390  -1.571 -34.472  1.00  0.00    -0.028 A 
HETATM    8  C   UNL     1      -5.152  -1.310 -33.870  1.00  0.00     0.010 A 
HETATM    9  C   UNL     1      -4.215  -2.332 -33.688  1.00  0.00     0.007 A 
HETATM   10  C   UNL     1      -4.496  -3.636 -34.110  1.00  0.00    -0.062 A 
HETATM   11  C   UNL     1      -3.509  -4.742 -33.888  1.00  0.00     0.048 C 
HETATM   12  C   UNL     1      -5.736  -3.905 -34.698  1.00  0.00     0.007 A 
HETATM   13  C   UNL     1      -6.671  -2.883 -34.883  1.00  0.00     0.010 A 
ENDBRANCH   6   7
BRANCH   6  14
HETATM   14  O   UNL     1      -6.830   0.757 -35.008  1.00  0.00    -0.389 OA
HETATM   15  H   UNL     1      -6.339   1.027 -34.213  1.00  0.00     0.210 HD
ENDBRANCH   6  14
ENDBRANCH   5   6
ENDBRANCH   1   5
BRANCH   2  16
HETATM   16  C   UNL     1      -6.660   2.149 -30.935  1.00  0.00     0.142 C 
BRANCH  16  17
HETATM   17  C   UNL     1      -5.422   2.697 -31.596  1.00  0.00    -0.031 A 
HETATM   18  C   UNL     1      -4.143   2.508 -31.089  1.00  0.00     0.125 A 
HETATM   19  N   UNL     1      -3.017   3.019 -31.640  1.00  0.00    -0.260 NA
HETATM   20  C   UNL     1      -3.138   3.791 -32.732  1.00  0.00     0.066 A 
HETATM   21  C   UNL     1      -4.389   4.072 -33.317  1.00  0.00    -0.007 A 
HETATM   22  C   UNL     1      -2.003   4.343 -33.308  1.00  0.00     0.032 A 
HETATM   23  C   UNL     1      -5.532   3.510 -32.728  1.00  0.00     0.022 A 
HETATM   24  C   UNL     1      -4.467   4.900 -34.452  1.00  0.00     0.014 A 
HETATM   25  C   UNL     1      -3.311   5.447 -35.007  1.00  0.00     0.001 A 
HETATM   26  C   UNL     1      -2.076   5.166 -34.435  1.00  0.00     0.002 A 
ENDBRANCH  16  17
ENDBRANCH   2  16
TORSDOF 6
ENDMDL
MODEL 4
REMARK VINA RESULT:      -8.8      3.715      4.482
REMARK  6 active torsions:
REMARK  status: ('A' for Active; 'I' for Inactive)
REMARK    1  A    between atoms: C_5  and  C_6 
REMARK    2  A    between atoms: C_6  and  O_7 
REMARK    3  A    between atoms: C_6  and  C_8 
REMARK    4  A    between atoms: C_8  and  N_9 
REMARK       I    between atoms: N_9  and  C_10 
REMARK    5  A    between atoms: C_10  and  C_11 
REMARK    6  A    between atoms: C_11  and  C_12 
ROOT
HETATM    1  N   UNL     1      -8.095   2.078 -33.691  1.00  0.00    -0.358 N 
HETATM    2  C   UNL     1      -8.659   0.865 -34.027  1.00  0.00     0.222 C 
HETATM    3  O   UNL     1      -9.650   0.415 -33.460  1.00  0.00    -0.273 OA
HETATM    4  H   UNL     1      -7.451   2.501 -34.350  1.00  0.00     0.162 HD
ENDROOT
BRANCH   1   5
HETATM    5  C   UNL     1      -8.771   2.980 -32.759  1.00  0.00     0.159 C 
BRANCH   5   6
HETATM    6  C   UNL     1      -8.412   2.726 -31.279  1.00  0.00     0.169 C 
BRANCH   6   7
HETATM    7  C   UNL     1      -7.045   2.083 -31.158  1.00  0.00    -0.028 A 
HETATM    8  C   UNL     1      -6.879   0.754 -30.747  1.00  0.00     0.010 A 
HETATM    9  C   UNL     1      -5.605   0.183 -30.669  1.00  0.00     0.007 A 
HETATM   10  C   UNL     1      -4.470   0.931 -30.996  1.00  0.00    -0.062 A 
HETATM   11  C   UNL     1      -3.105   0.315 -30.946  1.00  0.00     0.048 C 
HETATM   12  C   UNL     1      -4.630   2.255 -31.421  1.00  0.00     0.007 A 
HETATM   13  C   UNL     1      -5.903   2.826 -31.496  1.00  0.00     0.010 A 
ENDBRANCH   6   7
BRANCH   6  14
HETATM   14  O   UNL     1      -9.422   1.893 -30.696  1.00  0.00    -0.389 OA
HETATM   15  H   UNL     1      -9.446   2.147 -29.757  1.00  0.00     0.210 HD
ENDBRANCH   6  14
ENDBRANCH   5   6
ENDBRANCH   1   5
BRANCH   2  16
HETATM   16  C   UNL     1      -7.971   0.132 -35.164  1.00  0.00     0.142 C 
BRANCH  16  17
HETATM   17  C   UNL     1      -6.877  -0.810 -34.732  1.00  0.00    -0.031 A 
HETATM   18  C   UNL     1      -5.682  -0.379 -34.171  1.00  0.00     0.125 A 
HETATM   19  N   UNL     1      -4.667  -1.198 -33.808  1.00  0.00    -0.260 NA
HETATM   20  C   UNL     1      -4.802  -2.515 -34.034  1.00  0.00     0.066 A 
HETATM   21  C   UNL     1      -5.960  -3.061 -34.622  1.00  0.00    -0.007 A 
HETATM   22  C   UNL     1      -3.770  -3.377 -33.688  1.00  0.00     0.032 A 
HETATM   23  C   UNL     1      -6.999  -2.183 -34.969  1.00  0.00     0.022 A 
HETATM   24  C   UNL     1      -6.049  -4.446 -34.854  1.00  0.00     0.014 A 
HETATM   25  C   UNL     1      -4.995  -5.288 -34.502  1.00  0.00     0.001 A 
HETATM   26  C   UNL     1      -3.854  -4.753 -33.916  1.00  0.00     0.002 A 
ENDBRANCH  16  17
ENDBRANCH   2  16
TORSDOF 6
ENDMDL
MODEL 5
REMARK VINA RESULT:      -8.7      1.687      2.698
REMARK  6 active torsions:
REMARK  status: ('A' for Active; 'I' for Inactive)
REMARK    1  A    between atoms: C_5  and  C_6 
REMARK    2  A    between atoms: C_6  and  O_7 
REMARK    3  A    between atoms: C_6  and  C_8 
REMARK    4  A    between atoms: C_8  and  N_9 
REMARK       I    between atoms: N_9  and  C_10 
REMARK    5  A    between atoms: C_10  and  C_11 
REMARK    6  A    between atoms: C_11  and  C_12 
ROOT
HETATM    1  N   UNL     1      -2.799   3.925 -33.032  1.00  0.00    -0.358 N 
HETATM    2  C   UNL     1      -3.397   3.540 -31.850  1.00  0.00     0.222 C 
HETATM    3  O   UNL     1      -3.966   4.333 -31.106  1.00  0.00    -0.273 OA
HETATM    4  H   UNL     1      -2.577   3.203 -33.708  1.00  0.00     0.162 HD
ENDROOT
BRANCH   1   5
HETATM    5  C   UNL     1      -2.980   5.281 -33.549  1.00  0.00     0.159 C 
BRANCH   5   6
HETATM    6  C   UNL     1      -1.659   6.065 -33.707  1.00  0.00     0.169 C 
BRANCH   6   7
HETATM    7  C   UNL     1      -1.068   6.408 -32.354  1.00  0.00    -0.028 A 
HETATM    8  C   UNL     1       0.001   5.689 -31.803  1.00  0.00     0.010 A 
HETATM    9  C   UNL     1       0.540   6.047 -30.563  1.00  0.00     0.007 A 
HETATM   10  C   UNL     1       0.016   7.128 -29.847  1.00  0.00    -0.062 A 
HETATM   11  C   UNL     1       0.611   7.536 -28.532  1.00  0.00     0.048 C 
HETATM   12  C   UNL     1      -1.042   7.858 -30.398  1.00  0.00     0.007 A 
HETATM   13  C   UNL     1      -1.582   7.499 -31.636  1.00  0.00     0.010 A 
ENDBRANCH   6   7
BRANCH   6  14
HETATM   14  O   UNL     1      -1.916   7.253 -34.467  1.00  0.00    -0.389 OA
HETATM   15  H   UNL     1      -1.252   7.895 -34.164  1.00  0.00     0.210 HD
ENDBRANCH   6  14
ENDBRANCH   5   6
ENDBRANCH   1   5
BRANCH   2  16
HETATM   16  C   UNL     1      -3.314   2.055 -31.545  1.00  0.00     0.142 C 
BRANCH  16  17
HETATM   17  C   UNL     1      -4.275   1.199 -32.329  1.00  0.00    -0.031 A 
HETATM   18  C   UNL     1      -5.591   1.568 -32.578  1.00  0.00     0.125 A 
HETATM   19  N   UNL     1      -6.486   0.804 -33.246  1.00  0.00    -0.260 NA
HETATM   20  C   UNL     1      -6.096  -0.409 -33.671  1.00  0.00     0.066 A 
HETATM   21  C   UNL     1      -4.793  -0.897 -33.451  1.00  0.00    -0.007 A 
HETATM   22  C   UNL     1      -6.998  -1.221 -34.345  1.00  0.00     0.032 A 
HETATM   23  C   UNL     1      -3.886  -0.069 -32.770  1.00  0.00     0.022 A 
HETATM   24  C   UNL     1      -4.434  -2.181 -33.900  1.00  0.00     0.014 A 
HETATM   25  C   UNL     1      -5.362  -2.978 -34.569  1.00  0.00     0.001 A 
HETATM   26  C   UNL     1      -6.647  -2.496 -34.793  1.00  0.00     0.002 A 
ENDBRANCH  16  17
ENDBRANCH   2  16
TORSDOF 6
ENDMDL
MODEL 6
REMARK VINA RESULT:      -8.6      3.907      7.559
REMARK  6 active torsions:
REMARK  status: ('A' for Active; 'I' for Inactive)
REMARK    1  A    between atoms: C_5  and  C_6 
REMARK    2  A    between atoms: C_6  and  O_7 
REMARK    3  A    between atoms: C_6  and  C_8 
REMARK    4  A    between atoms: C_8  and  N_9 
REMARK       I    between atoms: N_9  and  C_10 
REMARK    5  A    between atoms: C_10  and  C_11 
REMARK    6  A    between atoms: C_11  and  C_12 
ROOT
HETATM    1  N   UNL     1      -7.348   1.824 -33.339  1.00  0.00    -0.358 N 
HETATM    2  C   UNL     1      -6.403   1.639 -32.352  1.00  0.00     0.222 C 
HETATM    3  O   UNL     1      -6.665   1.741 -31.157  1.00  0.00    -0.273 OA
HETATM    4  H   UNL     1      -7.135   1.482 -34.270  1.00  0.00     0.162 HD
ENDROOT
BRANCH   1   5
HETATM    5  C   UNL     1      -8.763   1.970 -32.997  1.00  0.00     0.159 C 
BRANCH   5   6
HETATM    6  C   UNL     1      -9.473   0.629 -32.711  1.00  0.00     0.169 C 
BRANCH   6   7
HETATM    7  C   UNL     1     -10.928   0.688 -33.129  1.00  0.00    -0.028 A 
HETATM    8  C   UNL     1     -11.549   1.886 -33.502  1.00  0.00     0.010 A 
HETATM    9  C   UNL     1     -12.888   1.902 -33.907  1.00  0.00     0.007 A 
HETATM   10  C   UNL     1     -13.634   0.720 -33.941  1.00  0.00    -0.062 A 
HETATM   11  C   UNL     1     -15.059   0.726 -34.405  1.00  0.00     0.048 C 
HETATM   12  C   UNL     1     -13.014  -0.483 -33.584  1.00  0.00     0.007 A 
HETATM   13  C   UNL     1     -11.678  -0.498 -33.177  1.00  0.00     0.010 A 
ENDBRANCH   6   7
BRANCH   6  14
HETATM   14  O   UNL     1      -9.354   0.334 -31.314  1.00  0.00    -0.389 OA
HETATM   15  H   UNL     1      -8.508   0.731 -31.043  1.00  0.00     0.210 HD
ENDBRANCH   6  14
ENDBRANCH   5   6
ENDBRANCH   1   5
BRANCH   2  16
HETATM   16  C   UNL     1      -5.015   1.281 -32.852  1.00  0.00     0.142 C 
BRANCH  16  17
HETATM   17  C   UNL     1      -4.767  -0.197 -33.006  1.00  0.00    -0.031 A 
HETATM   18  C   UNL     1      -3.700  -0.854 -32.406  1.00  0.00     0.125 A 
HETATM   19  N   UNL     1      -3.430  -2.172 -32.557  1.00  0.00    -0.260 NA
HETATM   20  C   UNL     1      -4.223  -2.894 -33.366  1.00  0.00     0.066 A 
HETATM   21  C   UNL     1      -5.318  -2.327 -34.046  1.00  0.00    -0.007 A 
HETATM   22  C   UNL     1      -3.960  -4.244 -33.552  1.00  0.00     0.032 A 
HETATM   23  C   UNL     1      -5.577  -0.960 -33.852  1.00  0.00     0.022 A 
HETATM   24  C   UNL     1      -6.110  -3.120 -34.896  1.00  0.00     0.014 A 
HETATM   25  C   UNL     1      -5.820  -4.472 -35.070  1.00  0.00     0.001 A 
HETATM   26  C   UNL     1      -4.744  -5.036 -34.396  1.00  0.00     0.002 A 
ENDBRANCH  16  17
ENDBRANCH   2  16
TORSDOF 6
ENDMDL
MODEL 7
REMARK VINA RESULT:      -8.6      1.966      3.431
REMARK  6 active torsions:
REMARK  status: ('A' for Active; 'I' for Inactive)
REMARK    1  A    between atoms: C_5  and  C_6 
REMARK    2  A    between atoms: C_6  and  O_7 
REMARK    3  A    between atoms: C_6  and  C_8 
REMARK    4  A    between atoms: C_8  and  N_9 
REMARK       I    between atoms: N_9  and  C_10 
REMARK    5  A    between atoms: C_10  and  C_11 
REMARK    6  A    between atoms: C_11  and  C_12 
ROOT
HETATM    1  N   UNL     1      -2.616   5.166 -32.967  1.00  0.00    -0.358 N 
HETATM    2  C   UNL     1      -3.862   5.213 -33.557  1.00  0.00     0.222 C 
HETATM    3  O   UNL     1      -4.047   5.676 -34.678  1.00  0.00    -0.273 OA
HETATM    4  H   UNL     1      -2.492   4.554 -32.168  1.00  0.00     0.162 HD
ENDROOT
BRANCH   1   5
HETATM    5  C   UNL     1      -1.417   5.501 -33.734  1.00  0.00     0.159 C 
BRANCH   5   6
HETATM    6  C   UNL     1      -0.906   6.937 -33.492  1.00  0.00     0.169 C 
BRANCH   6   7
HETATM    7  C   UNL     1      -0.771   7.220 -32.009  1.00  0.00    -0.028 A 
HETATM    8  C   UNL     1       0.294   6.721 -31.248  1.00  0.00     0.010 A 
HETATM    9  C   UNL     1       0.403   7.021 -29.887  1.00  0.00     0.007 A 
HETATM   10  C   UNL     1      -0.554   7.824 -29.257  1.00  0.00    -0.062 A 
HETATM   11  C   UNL     1      -0.425   8.176 -27.806  1.00  0.00     0.048 C 
HETATM   12  C   UNL     1      -1.612   8.337 -30.015  1.00  0.00     0.007 A 
HETATM   13  C   UNL     1      -1.723   8.034 -31.375  1.00  0.00     0.010 A 
ENDBRANCH   6   7
BRANCH   6  14
HETATM   14  O   UNL     1      -1.815   7.859 -34.107  1.00  0.00    -0.389 OA
HETATM   15  H   UNL     1      -1.249   8.490 -34.584  1.00  0.00     0.210 HD
ENDBRANCH   6  14
ENDBRANCH   5   6
ENDBRANCH   1   5
BRANCH   2  16
HETATM   16  C   UNL     1      -4.989   4.631 -32.722  1.00  0.00     0.142 C 
BRANCH  16  17
HETATM   17  C   UNL     1      -5.207   3.152 -32.907  1.00  0.00    -0.031 A 
HETATM   18  C   UNL     1      -4.431   2.185 -32.282  1.00  0.00     0.125 A 
HETATM   19  N   UNL     1      -4.580   0.852 -32.459  1.00  0.00    -0.260 NA
HETATM   20  C   UNL     1      -5.516   0.426 -33.322  1.00  0.00     0.066 A 
HETATM   21  C   UNL     1      -6.343   1.317 -34.033  1.00  0.00    -0.007 A 
HETATM   22  C   UNL     1      -5.679  -0.936 -33.536  1.00  0.00     0.032 A 
HETATM   23  C   UNL     1      -6.171   2.693 -33.810  1.00  0.00     0.022 A 
HETATM   24  C   UNL     1      -7.298   0.825 -34.940  1.00  0.00     0.014 A 
HETATM   25  C   UNL     1      -7.438  -0.548 -35.140  1.00  0.00     0.001 A 
HETATM   26  C   UNL     1      -6.627  -1.430 -34.436  1.00  0.00     0.002 A 
ENDBRANCH  16  17
ENDBRANCH   2  16
TORSDOF 6
ENDMDL
MODEL 8
REMARK VINA RESULT:      -8.5      2.005      2.395
REMARK  6 active torsions:
REMARK  status: ('A' for Active; 'I' for Inactive)
REMARK    1  A    between atoms: C_5  and  C_6 
REMARK    2  A    between atoms: C_6  and  O_7 
REMARK    3  A    between atoms: C_6  and  C_8 
REMARK    4  A    between atoms: C_8  and  N_9 
REMARK       I    between atoms: N_9  and  C_10 
REMARK    5  A    between atoms: C_10  and  C_11 
REMARK    6  A    between atoms: C_11  and  C_12 
ROOT
HETATM    1  N   UNL     1      -6.463   3.197 -32.496  1.00  0.00    -0.358 N 
HETATM    2  C   UNL     1      -6.862   1.878 -32.549  1.00  0.00     0.222 C 
HETATM    3  O   UNL     1      -7.292   1.276 -31.570  1.00  0.00    -0.273 OA
HETATM    4  H   UNL     1      -6.363   3.699 -33.371  1.00  0.00     0.162 HD
ENDROOT
BRANCH   1   5
HETATM    5  C   UNL     1      -6.712   4.001 -31.300  1.00  0.00     0.159 C 
BRANCH   5   6
HETATM    6  C   UNL     1      -5.427   4.541 -30.637  1.00  0.00     0.169 C 
BRANCH   6   7
HETATM    7  C   UNL     1      -4.338   4.761 -31.667  1.00  0.00    -0.028 A 
HETATM    8  C   UNL     1      -3.231   3.909 -31.777  1.00  0.00     0.010 A 
HETATM    9  C   UNL     1      -2.256   4.126 -32.755  1.00  0.00     0.007 A 
HETATM   10  C   UNL     1      -2.366   5.202 -33.642  1.00  0.00    -0.062 A 
HETATM   11  C   UNL     1      -1.341   5.420 -34.713  1.00  0.00     0.048 C 
HETATM   12  C   UNL     1      -3.476   6.047 -33.546  1.00  0.00     0.007 A 
HETATM   13  C   UNL     1      -4.449   5.833 -32.566  1.00  0.00     0.010 A 
ENDBRANCH   6   7
BRANCH   6  14
HETATM   14  O   UNL     1      -5.000   3.610 -29.634  1.00  0.00    -0.389 OA
HETATM   15  H   UNL     1      -4.244   4.038 -29.197  1.00  0.00     0.210 HD
ENDBRANCH   6  14
ENDBRANCH   5   6
ENDBRANCH   1   5
BRANCH   2  16
HETATM   16  C   UNL     1      -6.745   1.229 -33.917  1.00  0.00     0.142 C 
BRANCH  16  17
HETATM   17  C   UNL     1      -6.078  -0.122 -33.914  1.00  0.00    -0.031 A 
HETATM   18  C   UNL     1      -4.756  -0.316 -33.534  1.00  0.00     0.125 A 
HETATM   19  N   UNL     1      -4.121  -1.511 -33.557  1.00  0.00    -0.260 NA
HETATM   20  C   UNL     1      -4.795  -2.581 -34.008  1.00  0.00     0.066 A 
HETATM   21  C   UNL     1      -6.131  -2.497 -34.445  1.00  0.00    -0.007 A 
HETATM   22  C   UNL     1      -4.162  -3.816 -34.059  1.00  0.00     0.032 A 
HETATM   23  C   UNL     1      -6.764  -1.244 -34.390  1.00  0.00     0.022 A 
HETATM   24  C   UNL     1      -6.791  -3.642 -34.926  1.00  0.00     0.014 A 
HETATM   25  C   UNL     1      -6.131  -4.869 -34.971  1.00  0.00     0.001 A 
HETATM   26  C   UNL     1      -4.814  -4.956 -34.536  1.00  0.00     0.002 A 
ENDBRANCH  16  17
ENDBRANCH   2  16
TORSDOF 6
ENDMDL
MODEL 9
REMARK VINA RESULT:      -8.5      1.385      1.846
REMARK  6 active torsions:
REMARK  status: ('A' for Active; 'I' for Inactive)
REMARK    1  A    between atoms: C_5  and  C_6 
REMARK    2  A    between atoms: C_6  and  O_7 
REMARK    3  A    between atoms: C_6  and  C_8 
REMARK    4  A    between atoms: C_8  and  N_9 
REMARK       I    between atoms: N_9  and  C_10 
REMARK    5  A    between atoms: C_10  and  C_11 
REMARK    6  A    between atoms: C_11  and  C_12 
ROOT
HETATM    1  N   UNL     1      -3.926   4.172 -32.629  1.00  0.00    -0.358 N 
HETATM    2  C   UNL     1      -5.038   3.475 -33.055  1.00  0.00     0.222 C 
HETATM    3  O   UNL     1      -5.618   3.731 -34.106  1.00  0.00    -0.273 OA
HETATM    4  H   UNL     1      -3.356   3.756 -31.901  1.00  0.00     0.162 HD
ENDROOT
BRANCH   1   5
HETATM    5  C   UNL     1      -3.270   5.136 -33.511  1.00  0.00     0.159 C 
BRANCH   5   6
HETATM    6  C   UNL     1      -1.730   5.028 -33.512  1.00  0.00     0.169 C 
BRANCH   6   7
HETATM    7  C   UNL     1      -1.141   5.680 -32.278  1.00  0.00    -0.028 A 
HETATM    8  C   UNL     1      -0.127   5.073 -31.525  1.00  0.00     0.010 A 
HETATM    9  C   UNL     1       0.412   5.713 -30.405  1.00  0.00     0.007 A 
HETATM   10  C   UNL     1      -0.054   6.972 -30.012  1.00  0.00    -0.062 A 
HETATM   11  C   UNL     1       0.543   7.676 -28.832  1.00  0.00     0.048 C 
HETATM   12  C   UNL     1      -1.056   7.589 -30.769  1.00  0.00     0.007 A 
HETATM   13  C   UNL     1      -1.597   6.948 -31.886  1.00  0.00     0.010 A 
ENDBRANCH   6   7
BRANCH   6  14
HETATM   14  O   UNL     1      -1.225   5.643 -34.705  1.00  0.00    -0.389 OA
HETATM   15  H   UNL     1      -0.396   6.074 -34.434  1.00  0.00     0.210 HD
ENDBRANCH   6  14
ENDBRANCH   5   6
ENDBRANCH   1   5
BRANCH   2  16
HETATM   16  C   UNL     1      -5.483   2.354 -32.133  1.00  0.00     0.142 C 
BRANCH  16  17
HETATM   17  C   UNL     1      -5.204   0.968 -32.654  1.00  0.00    -0.031 A 
HETATM   18  C   UNL     1      -3.924   0.439 -32.761  1.00  0.00     0.125 A 
HETATM   19  N   UNL     1      -3.641  -0.787 -33.259  1.00  0.00    -0.260 NA
HETATM   20  C   UNL     1      -4.657  -1.537 -33.715  1.00  0.00     0.066 A 
HETATM   21  C   UNL     1      -5.993  -1.092 -33.682  1.00  0.00    -0.007 A 
HETATM   22  C   UNL     1      -4.394  -2.792 -34.248  1.00  0.00     0.032 A 
HETATM   23  C   UNL     1      -6.250   0.178 -33.142  1.00  0.00     0.022 A 
HETATM   24  C   UNL     1      -7.022  -1.908 -34.187  1.00  0.00     0.014 A 
HETATM   25  C   UNL     1      -6.729  -3.162 -34.722  1.00  0.00     0.001 A 
HETATM   26  C   UNL     1      -5.413  -3.606 -34.751  1.00  0.00     0.002 A 
ENDBRANCH  16  17
ENDBRANCH   2  16
TORSDOF 6
ENDMDL
MODEL 10
REMARK VINA RESULT:      -8.4      2.404      9.446
REMARK  6 active torsions:
REMARK  status: ('A' for Active; 'I' for Inactive)
REMARK    1  A    between atoms: C_5  and  C_6 
REMARK    2  A    between atoms: C_6  and  O_7 
REMARK    3  A    between atoms: C_6  and  C_8 
REMARK    4  A    between atoms: C_8  and  N_9 
REMARK       I    between atoms: N_9  and  C_10 
REMARK    5  A    between atoms: C_10  and  C_11 
REMARK    6  A    between atoms: C_11  and  C_12 
ROOT
HETATM    1  N   UNL     1      -4.517   2.419 -32.659  1.00  0.00    -0.358 N 
HETATM    2  C   UNL     1      -3.421   3.041 -32.100  1.00  0.00     0.222 C 
HETATM    3  O   UNL     1      -2.750   2.528 -31.210  1.00  0.00    -0.273 OA
HETATM    4  H   UNL     1      -4.865   2.773 -33.543  1.00  0.00     0.162 HD
ENDROOT
BRANCH   1   5
HETATM    5  C   UNL     1      -4.822   1.024 -32.341  1.00  0.00     0.159 C 
BRANCH   5   6
HETATM    6  C   UNL     1      -3.866   0.012 -33.010  1.00  0.00     0.169 C 
BRANCH   6   7
HETATM    7  C   UNL     1      -4.637  -1.147 -33.607  1.00  0.00    -0.028 A 
HETATM    8  C   UNL     1      -5.926  -0.994 -34.135  1.00  0.00     0.010 A 
HETATM    9  C   UNL     1      -6.600  -2.079 -34.702  1.00  0.00     0.007 A 
HETATM   10  C   UNL     1      -6.002  -3.342 -34.749  1.00  0.00    -0.062 A 
HETATM   11  C   UNL     1      -6.707  -4.502 -35.385  1.00  0.00     0.048 C 
HETATM   12  C   UNL     1      -4.709  -3.498 -34.236  1.00  0.00     0.007 A 
HETATM   13  C   UNL     1      -4.037  -2.414 -33.667  1.00  0.00     0.010 A 
ENDBRANCH   6   7
BRANCH   6  14
HETATM   14  O   UNL     1      -2.927  -0.450 -32.031  1.00  0.00    -0.389 OA
HETATM   15  H   UNL     1      -2.235  -0.906 -32.541  1.00  0.00     0.210 HD
ENDBRANCH   6  14
ENDBRANCH   5   6
ENDBRANCH   1   5
BRANCH   2  16
HETATM   16  C   UNL     1      -3.094   4.405 -32.681  1.00  0.00     0.142 C 
BRANCH  16  17
HETATM   17  C   UNL     1      -2.119   5.216 -31.867  1.00  0.00    -0.031 A 
HETATM   18  C   UNL     1      -0.743   5.147 -32.041  1.00  0.00     0.125 A 
HETATM   19  N   UNL     1       0.158   5.834 -31.300  1.00  0.00    -0.260 NA
HETATM   20  C   UNL     1      -0.299   6.611 -30.304  1.00  0.00     0.066 A 
HETATM   21  C   UNL     1      -1.673   6.736 -30.020  1.00  0.00    -0.007 A 
HETATM   22  C   UNL     1       0.603   7.314 -29.517  1.00  0.00     0.032 A 
HETATM   23  C   UNL     1      -2.579   6.022 -30.821  1.00  0.00     0.022 A 
HETATM   24  C   UNL     1      -2.103   7.549 -28.956  1.00  0.00     0.014 A 
HETATM   25  C   UNL     1      -1.176   8.240 -28.177  1.00  0.00     0.001 A 
HETATM   26  C   UNL     1       0.180   8.123 -28.459  1.00  0.00     0.002 A 
ENDBRANCH  16  17
ENDBRANCH   2  16
TORSDOF 6
ENDMDL
