MODEL 1
REMARK VINA RESULT:      -8.6      0.000      0.000
REMARK  4 active torsions:
REMARK  status: ('A' for Active; 'I' for Inactive)
REMARK    1  A    between atoms: C_2  and  N_3 
REMARK    2  A    between atoms: N_7  and  C_8 
REMARK    3  A    between atoms: C_11  and  N_12 
REMARK    4  A    between atoms: C_13  and  C_14 
ROOT
HETATM    1  C   UNL     1     -11.618   1.678 -34.008  1.00  0.00     0.030 A 
HETATM    2  C   UNL     1     -10.371   2.075 -34.507  1.00  0.00     0.031 A 
HETATM    3  C   UNL     1      -9.201   1.360 -34.206  1.00  0.00     0.034 A 
HETATM    4  C   UNL     1      -9.238   0.220 -33.407  1.00  0.00     0.056 A 
HETATM    5  C   UNL     1     -10.474  -0.199 -32.917  1.00  0.00     0.034 A 
HETATM    6  C   UNL     1     -11.639   0.526 -33.205  1.00  0.00     0.031 A 
ENDROOT
BRANCH   4   7
HETATM    7  N   UNL     1      -8.051  -0.500 -33.229  1.00  0.00    -0.260 NA
HETATM    8  C   UNL     1      -7.163  -0.495 -34.168  1.00  0.00     0.131 C 
BRANCH   8   9
HETATM    9  C   UNL     1      -5.917  -1.207 -33.970  1.00  0.00     0.009 A 
HETATM   10  C   UNL     1      -5.651  -2.589 -34.238  1.00  0.00     0.004 A 
HETATM   11  C   UNL     1      -4.314  -2.828 -33.913  1.00  0.00     0.043 A 
HETATM   12  C   UNL     1      -6.417  -3.664 -34.741  1.00  0.00     0.014 A 
HETATM   13  C   UNL     1      -3.706  -4.081 -34.062  1.00  0.00     0.030 A 
HETATM   14  N   UNL     1      -3.788  -1.641 -33.459  1.00  0.00    -0.364 N 
HETATM   15  C   UNL     1      -4.487  -5.124 -34.564  1.00  0.00     0.002 A 
HETATM   16  C   UNL     1      -5.824  -4.921 -34.899  1.00  0.00     0.001 A 
HETATM   17  H   UNL     1      -2.832  -1.516 -33.155  1.00  0.00     0.165 HD
HETATM   18  C   UNL     1      -4.740  -0.660 -33.493  1.00  0.00     0.102 A 
ENDBRANCH   8   9
ENDBRANCH   4   7
BRANCH   1  19
HETATM   19  N   UNL     1     -12.807   2.330 -34.319  1.00  0.00    -0.378 N 
HETATM   20  C   UNL     1     -13.149   3.617 -33.698  1.00  0.00     0.150 C 
HETATM   21  C   UNL     1     -14.146   3.438 -32.536  1.00  0.00     0.254 C 
HETATM   22  N   UNL     1     -15.379   2.654 -33.004  1.00  0.00    -0.068 N 
HETATM   23  H   UNL     1     -15.801   3.184 -33.777  1.00  0.00     0.280 HD
HETATM   24  C   UNL     1     -14.945   1.301 -33.592  1.00  0.00     0.254 C 
HETATM   25  C   UNL     1     -13.950   1.508 -34.755  1.00  0.00     0.150 C 
BRANCH  22  26
HETATM   26  C   UNL     1     -16.424   2.477 -31.929  1.00  0.00     0.230 C 
HETATM   27  C   UNL     1     -17.795   2.875 -32.441  1.00  0.00     0.034 C 
ENDBRANCH  22  26
ENDBRANCH   1  19
TORSDOF 4
ENDMDL
MODEL 2
REMARK VINA RESULT:      -8.4      6.431     10.030
REMARK  4 active torsions:
REMARK  status: ('A' for Active; 'I' for Inactive)
REMARK    1  A    between atoms: C_2  and  N_3 
REMARK    2  A    between atoms: N_7  and  C_8 
REMARK    3  A    between atoms: C_11  and  N_12 
REMARK    4  A    between atoms: C_13  and  C_14 
ROOT
HETATM    1  C   UNL     1      -2.539   5.433 -31.256  1.00  0.00     0.030 A 
HETATM    2  C   UNL     1      -2.111   4.378 -32.073  1.00  0.00     0.031 A 
HETATM    3  C   UNL     1      -3.004   3.397 -32.531  1.00  0.00     0.034 A 
HETATM    4  C   UNL     1      -4.355   3.440 -32.197  1.00  0.00     0.056 A 
HETATM    5  C   UNL     1      -4.802   4.493 -31.400  1.00  0.00     0.034 A 
HETATM    6  C   UNL     1      -3.905   5.463 -30.930  1.00  0.00     0.031 A 
ENDROOT
BRANCH   4   7
HETATM    7  N   UNL     1      -5.207   2.488 -32.769  1.00  0.00    -0.260 NA
HETATM    8  C   UNL     1      -5.054   1.241 -32.466  1.00  0.00     0.131 C 
BRANCH   8   9
HETATM    9  C   UNL     1      -5.959   0.258 -33.026  1.00  0.00     0.009 A 
HETATM   10  C   UNL     1      -5.622  -1.008 -33.606  1.00  0.00     0.004 A 
HETATM   11  C   UNL     1      -6.816  -1.620 -33.993  1.00  0.00     0.043 A 
HETATM   12  C   UNL     1      -4.413  -1.701 -33.829  1.00  0.00     0.014 A 
HETATM   13  C   UNL     1      -6.862  -2.886 -34.591  1.00  0.00     0.030 A 
HETATM   14  N   UNL     1      -7.838  -0.761 -33.668  1.00  0.00    -0.364 N 
HETATM   15  C   UNL     1      -5.651  -3.550 -34.797  1.00  0.00     0.002 A 
HETATM   16  C   UNL     1      -4.442  -2.969 -34.423  1.00  0.00     0.001 A 
HETATM   17  H   UNL     1      -8.819  -0.947 -33.832  1.00  0.00     0.165 HD
HETATM   18  C   UNL     1      -7.336   0.369 -33.083  1.00  0.00     0.102 A 
ENDBRANCH   8   9
ENDBRANCH   4   7
BRANCH   1  19
HETATM   19  N   UNL     1      -1.698   6.450 -30.820  1.00  0.00    -0.378 N 
HETATM   20  C   UNL     1      -0.240   6.267 -30.791  1.00  0.00     0.150 C 
HETATM   21  C   UNL     1       0.261   5.938 -29.370  1.00  0.00     0.254 C 
HETATM   22  N   UNL     1      -0.229   6.995 -28.372  1.00  0.00    -0.068 N 
HETATM   23  H   UNL     1       0.130   7.905 -28.691  1.00  0.00     0.280 HD
HETATM   24  C   UNL     1      -1.762   7.092 -28.424  1.00  0.00     0.254 C 
HETATM   25  C   UNL     1      -2.238   7.425 -29.855  1.00  0.00     0.150 C 
BRANCH  22  26
HETATM   26  C   UNL     1       0.261   6.765 -26.963  1.00  0.00     0.230 C 
HETATM   27  C   UNL     1       1.496   7.599 -26.679  1.00  0.00     0.034 C 
ENDBRANCH  22  26
ENDBRANCH   1  19
TORSDOF 4
ENDMDL
MODEL 3
REMARK VINA RESULT:      -8.3      1.346      2.063
REMARK  4 active torsions:
REMARK  status: ('A' for Active; 'I' for Inactive)
REMARK    1  A    between atoms: C_2  and  N_3 
REMARK    2  A    between atoms: N_7  and  C_8 
REMARK    3  A    between atoms: C_11  and  N_12 
REMARK    4  A    between atoms: C_13  and  C_14 
ROOT
HETATM    1  C   UNL     1     -11.702   2.361 -33.995  1.00  0.00     0.030 A 
HETATM    2  C   UNL     1     -11.752   1.062 -33.473  1.00  0.00     0.031 A 
HETATM    3  C   UNL     1     -10.597   0.273 -33.359  1.00  0.00     0.034 A 
HETATM    4  C   UNL     1      -9.352   0.757 -33.753  1.00  0.00     0.056 A 
HETATM    5  C   UNL     1      -9.281   2.054 -34.258  1.00  0.00     0.034 A 
HETATM    6  C   UNL     1     -10.439   2.835 -34.387  1.00  0.00     0.031 A 
ENDROOT
BRANCH   4   7
HETATM    7  N   UNL     1      -8.228  -0.045 -33.520  1.00  0.00    -0.260 NA
HETATM    8  C   UNL     1      -7.287  -0.086 -34.405  1.00  0.00     0.131 C 
BRANCH   8   9
HETATM    9  C   UNL     1      -6.105  -0.884 -34.147  1.00  0.00     0.009 A 
HETATM   10  C   UNL     1      -5.947  -2.295 -34.341  1.00  0.00     0.004 A 
HETATM   11  C   UNL     1      -4.638  -2.621 -33.977  1.00  0.00     0.043 A 
HETATM   12  C   UNL     1      -6.788  -3.330 -34.804  1.00  0.00     0.014 A 
HETATM   13  C   UNL     1      -4.131  -3.924 -34.052  1.00  0.00     0.030 A 
HETATM   14  N   UNL     1      -4.027  -1.458 -33.573  1.00  0.00    -0.364 N 
HETATM   15  C   UNL     1      -4.985  -4.927 -34.517  1.00  0.00     0.002 A 
HETATM   16  C   UNL     1      -6.295  -4.637 -34.888  1.00  0.00     0.001 A 
HETATM   17  H   UNL     1      -3.068  -1.394 -33.256  1.00  0.00     0.165 HD
HETATM   18  C   UNL     1      -4.897  -0.408 -33.674  1.00  0.00     0.102 A 
ENDBRANCH   8   9
ENDBRANCH   4   7
BRANCH   1  19
HETATM   19  N   UNL     1     -12.813   3.192 -34.082  1.00  0.00    -0.378 N 
HETATM   20  C   UNL     1     -12.669   4.613 -34.430  1.00  0.00     0.150 C 
HETATM   21  C   UNL     1     -12.732   5.511 -33.178  1.00  0.00     0.254 C 
HETATM   22  N   UNL     1     -14.004   5.218 -32.372  1.00  0.00    -0.068 N 
HETATM   23  H   UNL     1     -14.805   5.391 -32.994  1.00  0.00     0.280 HD
HETATM   24  C   UNL     1     -14.057   3.726 -32.003  1.00  0.00     0.254 C 
HETATM   25  C   UNL     1     -13.995   2.850 -33.272  1.00  0.00     0.150 C 
BRANCH  22  26
HETATM   26  C   UNL     1     -14.159   6.092 -31.152  1.00  0.00     0.230 C 
HETATM   27  C   UNL     1     -13.774   5.336 -29.895  1.00  0.00     0.034 C 
ENDBRANCH  22  26
ENDBRANCH   1  19
TORSDOF 4
ENDMDL
MODEL 4
REMARK VINA RESULT:      -8.0      1.944      2.983
REMARK  4 active torsions:
REMARK  status: ('A' for Active; 'I' for Inactive)
REMARK    1  A    between atoms: C_2  and  N_3 
REMARK    2  A    between atoms: N_7  and  C_8 
REMARK    3  A    between atoms: C_11  and  N_12 
REMARK    4  A    between atoms: C_13  and  C_14 
ROOT
HETATM    1  C   UNL     1     -11.166   2.812 -32.885  1.00  0.00     0.030 A 
HETATM    2  C   UNL     1      -9.978   3.109 -32.205  1.00  0.00     0.031 A 
HETATM    3  C   UNL     1      -8.927   2.183 -32.129  1.00  0.00     0.034 A 
HETATM    4  C   UNL     1      -9.020   0.934 -32.737  1.00  0.00     0.056 A 
HETATM    5  C   UNL     1     -10.188   0.629 -33.434  1.00  0.00     0.034 A 
HETATM    6  C   UNL     1     -11.245   1.549 -33.494  1.00  0.00     0.031 A 
ENDROOT
BRANCH   4   7
HETATM    7  N   UNL     1      -7.897   0.099 -32.707  1.00  0.00    -0.260 NA
HETATM    8  C   UNL     1      -7.214  -0.080 -33.789  1.00  0.00     0.131 C 
BRANCH   8   9
HETATM    9  C   UNL     1      -6.029  -0.912 -33.750  1.00  0.00     0.009 A 
HETATM   10  C   UNL     1      -5.918  -2.290 -34.126  1.00  0.00     0.004 A 
HETATM   11  C   UNL     1      -4.586  -2.668 -33.940  1.00  0.00     0.043 A 
HETATM   12  C   UNL     1      -6.823  -3.255 -34.621  1.00  0.00     0.014 A 
HETATM   13  C   UNL     1      -4.115  -3.956 -34.221  1.00  0.00     0.030 A 
HETATM   14  N   UNL     1      -3.915  -1.567 -33.464  1.00  0.00    -0.364 N 
HETATM   15  C   UNL     1      -5.031  -4.889 -34.712  1.00  0.00     0.002 A 
HETATM   16  C   UNL     1      -6.366  -4.546 -34.910  1.00  0.00     0.001 A 
HETATM   17  H   UNL     1      -2.928  -1.549 -33.242  1.00  0.00     0.165 HD
HETATM   18  C   UNL     1      -4.769  -0.506 -33.350  1.00  0.00     0.102 A 
ENDBRANCH   8   9
ENDBRANCH   4   7
BRANCH   1  19
HETATM   19  N   UNL     1     -12.213   3.717 -33.025  1.00  0.00    -0.378 N 
HETATM   20  C   UNL     1     -13.115   3.657 -34.184  1.00  0.00     0.150 C 
HETATM   21  C   UNL     1     -12.741   4.709 -35.247  1.00  0.00     0.254 C 
HETATM   22  N   UNL     1     -12.668   6.105 -34.617  1.00  0.00    -0.068 N 
HETATM   23  H   UNL     1     -13.591   6.303 -34.208  1.00  0.00     0.280 HD
HETATM   24  C   UNL     1     -11.669   6.100 -33.449  1.00  0.00     0.254 C 
HETATM   25  C   UNL     1     -12.067   5.042 -32.397  1.00  0.00     0.150 C 
BRANCH  22  26
HETATM   26  C   UNL     1     -12.350   7.197 -35.609  1.00  0.00     0.230 C 
HETATM   27  C   UNL     1     -13.320   7.165 -36.775  1.00  0.00     0.034 C 
ENDBRANCH  22  26
ENDBRANCH   1  19
TORSDOF 4
ENDMDL
MODEL 5
REMARK VINA RESULT:      -7.7      6.844     10.017
REMARK  4 active torsions:
REMARK  status: ('A' for Active; 'I' for Inactive)
REMARK    1  A    between atoms: C_2  and  N_3 
REMARK    2  A    between atoms: N_7  and  C_8 
REMARK    3  A    between atoms: C_11  and  N_12 
REMARK    4  A    between atoms: C_13  and  C_14 
ROOT
HETATM    1  C   UNL     1      -2.999   6.034 -30.791  1.00  0.00     0.030 A 
HETATM    2  C   UNL     1      -4.132   5.239 -30.579  1.00  0.00     0.031 A 
HETATM    3  C   UNL     1      -4.277   3.989 -31.200  1.00  0.00     0.034 A 
HETATM    4  C   UNL     1      -3.291   3.486 -32.046  1.00  0.00     0.056 A 
HETATM    5  C   UNL     1      -2.148   4.257 -32.254  1.00  0.00     0.034 A 
HETATM    6  C   UNL     1      -2.013   5.513 -31.645  1.00  0.00     0.031 A 
ENDROOT
BRANCH   4   7
HETATM    7  N   UNL     1      -3.454   2.191 -32.553  1.00  0.00    -0.260 NA
HETATM    8  C   UNL     1      -3.631   1.210 -31.731  1.00  0.00     0.131 C 
BRANCH   8   9
HETATM    9  C   UNL     1      -3.839  -0.125 -32.255  1.00  0.00     0.009 A 
HETATM   10  C   UNL     1      -4.855  -0.554 -33.170  1.00  0.00     0.004 A 
HETATM   11  C   UNL     1      -4.656  -1.916 -33.406  1.00  0.00     0.043 A 
HETATM   12  C   UNL     1      -5.923   0.089 -33.834  1.00  0.00     0.014 A 
HETATM   13  C   UNL     1      -5.467  -2.665 -34.267  1.00  0.00     0.030 A 
HETATM   14  N   UNL     1      -3.568  -2.303 -32.660  1.00  0.00    -0.364 N 
HETATM   15  C   UNL     1      -6.514  -2.002 -34.912  1.00  0.00     0.002 A 
HETATM   16  C   UNL     1      -6.741  -0.645 -34.700  1.00  0.00     0.001 A 
HETATM   17  H   UNL     1      -3.191  -3.241 -32.639  1.00  0.00     0.165 HD
HETATM   18  C   UNL     1      -3.066  -1.235 -31.969  1.00  0.00     0.102 A 
ENDBRANCH   8   9
ENDBRANCH   4   7
BRANCH   1  19
HETATM   19  N   UNL     1      -2.794   7.256 -30.160  1.00  0.00    -0.378 N 
HETATM   20  C   UNL     1      -1.578   8.043 -30.410  1.00  0.00     0.150 C 
HETATM   21  C   UNL     1      -0.546   7.865 -29.278  1.00  0.00     0.254 C 
HETATM   22  N   UNL     1      -1.186   8.169 -27.917  1.00  0.00    -0.068 N 
HETATM   23  H   UNL     1      -1.534   9.136 -27.954  1.00  0.00     0.280 HD
HETATM   24  C   UNL     1      -2.417   7.273 -27.707  1.00  0.00     0.254 C 
HETATM   25  C   UNL     1      -3.436   7.472 -28.850  1.00  0.00     0.150 C 
BRANCH  22  26
HETATM   26  C   UNL     1      -0.222   8.059 -26.761  1.00  0.00     0.230 C 
HETATM   27  C   UNL     1       1.167   7.694 -27.251  1.00  0.00     0.034 C 
ENDBRANCH  22  26
ENDBRANCH   1  19
TORSDOF 4
ENDMDL
MODEL 6
REMARK VINA RESULT:      -7.7      6.351      8.601
REMARK  4 active torsions:
REMARK  status: ('A' for Active; 'I' for Inactive)
REMARK    1  A    between atoms: C_2  and  N_3 
REMARK    2  A    between atoms: N_7  and  C_8 
REMARK    3  A    between atoms: C_11  and  N_12 
REMARK    4  A    between atoms: C_13  and  C_14 
ROOT
HETATM    1  C   UNL     1      -4.122   4.303 -31.980  1.00  0.00     0.030 A 
HETATM    2  C   UNL     1      -3.283   3.410 -31.301  1.00  0.00     0.031 A 
HETATM    3  C   UNL     1      -3.479   2.022 -31.373  1.00  0.00     0.034 A 
HETATM    4  C   UNL     1      -4.513   1.478 -32.131  1.00  0.00     0.056 A 
HETATM    5  C   UNL     1      -5.347   2.353 -32.828  1.00  0.00     0.034 A 
HETATM    6  C   UNL     1      -5.159   3.739 -32.741  1.00  0.00     0.031 A 
ENDROOT
BRANCH   4   7
HETATM    7  N   UNL     1      -4.591   0.085 -32.239  1.00  0.00    -0.260 NA
HETATM    8  C   UNL     1      -3.638  -0.556 -32.832  1.00  0.00     0.131 C 
BRANCH   8   9
HETATM    9  C   UNL     1      -3.697  -2.002 -32.910  1.00  0.00     0.009 A 
HETATM   10  C   UNL     1      -4.518  -2.796 -33.775  1.00  0.00     0.004 A 
HETATM   11  C   UNL     1      -4.226  -4.136 -33.512  1.00  0.00     0.043 A 
HETATM   12  C   UNL     1      -5.476  -2.504 -34.770  1.00  0.00     0.014 A 
HETATM   13  C   UNL     1      -4.842  -5.195 -34.190  1.00  0.00     0.030 A 
HETATM   14  N   UNL     1      -3.272  -4.158 -32.523  1.00  0.00    -0.364 N 
HETATM   15  C   UNL     1      -5.784  -4.877 -35.171  1.00  0.00     0.002 A 
HETATM   16  C   UNL     1      -6.099  -3.551 -35.459  1.00  0.00     0.001 A 
HETATM   17  H   UNL     1      -2.868  -5.000 -32.134  1.00  0.00     0.165 HD
HETATM   18  C   UNL     1      -2.943  -2.883 -32.156  1.00  0.00     0.102 A 
ENDBRANCH   8   9
ENDBRANCH   4   7
BRANCH   1  19
HETATM   19  N   UNL     1      -3.935   5.681 -31.973  1.00  0.00    -0.378 N 
HETATM   20  C   UNL     1      -2.827   6.298 -32.717  1.00  0.00     0.150 C 
HETATM   21  C   UNL     1      -1.647   6.647 -31.788  1.00  0.00     0.254 C 
HETATM   22  N   UNL     1      -2.128   7.505 -30.611  1.00  0.00    -0.068 N 
HETATM   23  H   UNL     1      -2.553   8.354 -31.007  1.00  0.00     0.280 HD
HETATM   24  C   UNL     1      -3.247   6.773 -29.854  1.00  0.00     0.254 C 
HETATM   25  C   UNL     1      -4.417   6.437 -30.804  1.00  0.00     0.150 C 
BRANCH  22  26
HETATM   26  C   UNL     1      -1.017   7.925 -29.680  1.00  0.00     0.230 C 
HETATM   27  C   UNL     1      -0.082   6.765 -29.398  1.00  0.00     0.034 C 
ENDBRANCH  22  26
ENDBRANCH   1  19
TORSDOF 4
ENDMDL
MODEL 7
REMARK VINA RESULT:      -7.6      5.449     10.166
REMARK  4 active torsions:
REMARK  status: ('A' for Active; 'I' for Inactive)
REMARK    1  A    between atoms: C_2  and  N_3 
REMARK    2  A    between atoms: N_7  and  C_8 
REMARK    3  A    between atoms: C_11  and  N_12 
REMARK    4  A    between atoms: C_13  and  C_14 
ROOT
HETATM    1  C   UNL     1      -4.034   5.342 -33.129  1.00  0.00     0.030 A 
HETATM    2  C   UNL     1      -4.503   4.942 -31.871  1.00  0.00     0.031 A 
HETATM    3  C   UNL     1      -5.697   4.217 -31.731  1.00  0.00     0.034 A 
HETATM    4  C   UNL     1      -6.456   3.857 -32.841  1.00  0.00     0.056 A 
HETATM    5  C   UNL     1      -5.994   4.231 -34.102  1.00  0.00     0.034 A 
HETATM    6  C   UNL     1      -4.811   4.970 -34.239  1.00  0.00     0.031 A 
ENDROOT
BRANCH   4   7
HETATM    7  N   UNL     1      -7.581   3.049 -32.638  1.00  0.00    -0.260 NA
HETATM    8  C   UNL     1      -8.180   2.532 -33.660  1.00  0.00     0.131 C 
BRANCH   8   9
HETATM    9  C   UNL     1      -9.321   1.663 -33.449  1.00  0.00     0.009 A 
HETATM   10  C   UNL     1     -10.642   1.816 -33.980  1.00  0.00     0.004 A 
HETATM   11  C   UNL     1     -11.401   0.734 -33.526  1.00  0.00     0.043 A 
HETATM   12  C   UNL     1     -11.268   2.766 -34.816  1.00  0.00     0.014 A 
HETATM   13  C   UNL     1     -12.749   0.556 -33.864  1.00  0.00     0.030 A 
HETATM   14  N   UNL     1     -10.577  -0.041 -32.746  1.00  0.00    -0.364 N 
HETATM   15  C   UNL     1     -13.340   1.510 -34.695  1.00  0.00     0.002 A 
HETATM   16  C   UNL     1     -12.613   2.600 -35.166  1.00  0.00     0.001 A 
HETATM   17  H   UNL     1     -10.861  -0.897 -32.286  1.00  0.00     0.165 HD
HETATM   18  C   UNL     1      -9.325   0.504 -32.695  1.00  0.00     0.102 A 
ENDBRANCH   8   9
ENDBRANCH   4   7
BRANCH   1  19
HETATM   19  N   UNL     1      -2.835   6.020 -33.316  1.00  0.00    -0.378 N 
HETATM   20  C   UNL     1      -1.576   5.289 -33.525  1.00  0.00     0.150 C 
HETATM   21  C   UNL     1      -0.743   5.217 -32.229  1.00  0.00     0.254 C 
HETATM   22  N   UNL     1      -0.530   6.621 -31.650  1.00  0.00    -0.068 N 
HETATM   23  H   UNL     1      -0.050   7.177 -32.369  1.00  0.00     0.280 HD
HETATM   24  C   UNL     1      -1.889   7.299 -31.412  1.00  0.00     0.254 C 
HETATM   25  C   UNL     1      -2.702   7.363 -32.722  1.00  0.00     0.150 C 
BRANCH  22  26
HETATM   26  C   UNL     1       0.318   6.634 -30.402  1.00  0.00     0.230 C 
HETATM   27  C   UNL     1       0.332   5.267 -29.745  1.00  0.00     0.034 C 
ENDBRANCH  22  26
ENDBRANCH   1  19
TORSDOF 4
ENDMDL
MODEL 8
REMARK VINA RESULT:      -7.3      1.552      2.617
REMARK  4 active torsions:
REMARK  status: ('A' for Active; 'I' for Inactive)
REMARK    1  A    between atoms: C_2  and  N_3 
REMARK    2  A    between atoms: N_7  and  C_8 
REMARK    3  A    between atoms: C_11  and  N_12 
REMARK    4  A    between atoms: C_13  and  C_14 
ROOT
HETATM    1  C   UNL     1     -11.679   2.193 -33.895  1.00  0.00     0.030 A 
HETATM    2  C   UNL     1     -10.512   2.941 -34.100  1.00  0.00     0.031 A 
HETATM    3  C   UNL     1      -9.240   2.389 -33.882  1.00  0.00     0.034 A 
HETATM    4  C   UNL     1      -9.090   1.070 -33.459  1.00  0.00     0.056 A 
HETATM    5  C   UNL     1     -10.240   0.306 -33.268  1.00  0.00     0.034 A 
HETATM    6  C   UNL     1     -11.510   0.865 -33.470  1.00  0.00     0.031 A 
ENDROOT
BRANCH   4   7
HETATM    7  N   UNL     1      -7.792   0.554 -33.357  1.00  0.00    -0.260 NA
HETATM    8  C   UNL     1      -7.596  -0.706 -33.568  1.00  0.00     0.131 C 
BRANCH   8   9
HETATM    9  C   UNL     1      -6.248  -1.235 -33.501  1.00  0.00     0.009 A 
HETATM   10  C   UNL     1      -5.177  -0.787 -32.662  1.00  0.00     0.004 A 
HETATM   11  C   UNL     1      -4.073  -1.601 -32.926  1.00  0.00     0.043 A 
HETATM   12  C   UNL     1      -5.042   0.227 -31.689  1.00  0.00     0.014 A 
HETATM   13  C   UNL     1      -2.845  -1.452 -32.270  1.00  0.00     0.030 A 
HETATM   14  N   UNL     1      -4.454  -2.502 -33.891  1.00  0.00    -0.364 N 
HETATM   15  C   UNL     1      -2.740  -0.442 -31.310  1.00  0.00     0.002 A 
HETATM   16  C   UNL     1      -3.821   0.386 -31.022  1.00  0.00     0.001 A 
HETATM   17  H   UNL     1      -3.853  -3.219 -34.276  1.00  0.00     0.165 HD
HETATM   18  C   UNL     1      -5.759  -2.295 -34.242  1.00  0.00     0.102 A 
ENDBRANCH   8   9
ENDBRANCH   4   7
BRANCH   1  19
HETATM   19  N   UNL     1     -12.955   2.686 -34.144  1.00  0.00    -0.378 N 
HETATM   20  C   UNL     1     -13.166   4.098 -34.496  1.00  0.00     0.150 C 
HETATM   21  C   UNL     1     -13.640   4.919 -33.281  1.00  0.00     0.254 C 
HETATM   22  N   UNL     1     -14.876   4.270 -32.646  1.00  0.00    -0.068 N 
HETATM   23  H   UNL     1     -15.604   4.226 -33.371  1.00  0.00     0.280 HD
HETATM   24  C   UNL     1     -14.563   2.816 -32.258  1.00  0.00     0.254 C 
HETATM   25  C   UNL     1     -14.093   2.014 -33.491  1.00  0.00     0.150 C 
BRANCH  22  26
HETATM   26  C   UNL     1     -15.428   5.045 -31.474  1.00  0.00     0.230 C 
HETATM   27  C   UNL     1     -16.665   5.824 -31.877  1.00  0.00     0.034 C 
ENDBRANCH  22  26
ENDBRANCH   1  19
TORSDOF 4
ENDMDL
MODEL 9
REMARK VINA RESULT:      -7.2      6.394     10.819
REMARK  4 active torsions:
REMARK  status: ('A' for Active; 'I' for Inactive)
REMARK    1  A    between atoms: C_2  and  N_3 
REMARK    2  A    between atoms: N_7  and  C_8 
REMARK    3  A    between atoms: C_11  and  N_12 
REMARK    4  A    between atoms: C_13  and  C_14 
ROOT
HETATM    1  C   UNL     1      -2.843   5.346 -31.398  1.00  0.00     0.030 A 
HETATM    2  C   UNL     1      -3.008   3.979 -31.653  1.00  0.00     0.031 A 
HETATM    3  C   UNL     1      -4.281   3.388 -31.683  1.00  0.00     0.034 A 
HETATM    4  C   UNL     1      -5.431   4.143 -31.471  1.00  0.00     0.056 A 
HETATM    5  C   UNL     1      -5.286   5.509 -31.234  1.00  0.00     0.034 A 
HETATM    6  C   UNL     1      -4.012   6.095 -31.187  1.00  0.00     0.031 A 
ENDROOT
BRANCH   4   7
HETATM    7  N   UNL     1      -6.672   3.511 -31.614  1.00  0.00    -0.260 NA
HETATM    8  C   UNL     1      -6.731   2.363 -32.204  1.00  0.00     0.131 C 
BRANCH   8   9
HETATM    9  C   UNL     1      -8.008   1.688 -32.318  1.00  0.00     0.009 A 
HETATM   10  C   UNL     1      -9.111   2.047 -33.160  1.00  0.00     0.004 A 
HETATM   11  C   UNL     1     -10.119   1.103 -32.950  1.00  0.00     0.043 A 
HETATM   12  C   UNL     1      -9.347   3.079 -34.094  1.00  0.00     0.014 A 
HETATM   13  C   UNL     1     -11.347   1.140 -33.623  1.00  0.00     0.030 A 
HETATM   14  N   UNL     1      -9.652   0.211 -32.015  1.00  0.00    -0.364 N 
HETATM   15  C   UNL     1     -11.551   2.170 -34.543  1.00  0.00     0.002 A 
HETATM   16  C   UNL     1     -10.567   3.128 -34.777  1.00  0.00     0.001 A 
HETATM   17  H   UNL     1     -10.173  -0.586 -31.671  1.00  0.00     0.165 HD
HETATM   18  C   UNL     1      -8.385   0.550 -31.631  1.00  0.00     0.102 A 
ENDBRANCH   8   9
ENDBRANCH   4   7
BRANCH   1  19
HETATM   19  N   UNL     1      -1.605   5.980 -31.405  1.00  0.00    -0.378 N 
HETATM   20  C   UNL     1      -0.364   5.220 -31.192  1.00  0.00     0.150 C 
HETATM   21  C   UNL     1       0.143   5.361 -29.743  1.00  0.00     0.254 C 
HETATM   22  N   UNL     1       0.276   6.841 -29.363  1.00  0.00    -0.068 N 
HETATM   23  H   UNL     1       0.932   7.269 -30.030  1.00  0.00     0.280 HD
HETATM   24  C   UNL     1      -1.071   7.555 -29.564  1.00  0.00     0.254 C 
HETATM   25  C   UNL     1      -1.556   7.402 -31.021  1.00  0.00     0.150 C 
BRANCH  22  26
HETATM   26  C   UNL     1       0.813   7.060 -27.970  1.00  0.00     0.230 C 
HETATM   27  C   UNL     1       1.452   8.430 -27.847  1.00  0.00     0.034 C 
ENDBRANCH  22  26
ENDBRANCH   1  19
TORSDOF 4
ENDMDL
MODEL 10
REMARK VINA RESULT:      -7.1      6.339     10.660
REMARK  4 active torsions:
REMARK  status: ('A' for Active; 'I' for Inactive)
REMARK    1  A    between atoms: C_2  and  N_3 
REMARK    2  A    between atoms: N_7  and  C_8 
REMARK    3  A    between atoms: C_11  and  N_12 
REMARK    4  A    between atoms: C_13  and  C_14 
ROOT
HETATM    1  C   UNL     1      -3.233   6.786 -32.716  1.00  0.00     0.030 A 
HETATM    2  C   UNL     1      -4.498   6.941 -32.134  1.00  0.00     0.031 A 
HETATM    3  C   UNL     1      -5.625   6.278 -32.644  1.00  0.00     0.034 A 
HETATM    4  C   UNL     1      -5.526   5.430 -33.745  1.00  0.00     0.056 A 
HETATM    5  C   UNL     1      -4.271   5.250 -34.324  1.00  0.00     0.034 A 
HETATM    6  C   UNL     1      -3.150   5.927 -33.824  1.00  0.00     0.031 A 
ENDROOT
BRANCH   4   7
HETATM    7  N   UNL     1      -6.669   4.724 -34.139  1.00  0.00    -0.260 NA
HETATM    8  C   UNL     1      -7.647   4.589 -33.305  1.00  0.00     0.131 C 
BRANCH   8   9
HETATM    9  C   UNL     1      -8.846   3.893 -33.724  1.00  0.00     0.009 A 
HETATM   10  C   UNL     1      -9.253   2.566 -33.368  1.00  0.00     0.004 A 
HETATM   11  C   UNL     1     -10.481   2.326 -33.990  1.00  0.00     0.043 A 
HETATM   12  C   UNL     1      -8.702   1.546 -32.564  1.00  0.00     0.014 A 
HETATM   13  C   UNL     1     -11.181   1.121 -33.850  1.00  0.00     0.030 A 
HETATM   14  N   UNL     1     -10.805   3.457 -34.701  1.00  0.00    -0.364 N 
HETATM   15  C   UNL     1     -10.613   0.131 -33.046  1.00  0.00     0.002 A 
HETATM   16  C   UNL     1      -9.391   0.337 -32.411  1.00  0.00     0.001 A 
HETATM   17  H   UNL     1     -11.647   3.568 -35.250  1.00  0.00     0.165 HD
HETATM   18  C   UNL     1      -9.832   4.406 -34.546  1.00  0.00     0.102 A 
ENDBRANCH   8   9
ENDBRANCH   4   7
BRANCH   1  19
HETATM   19  N   UNL     1      -2.084   7.387 -32.214  1.00  0.00    -0.378 N 
HETATM   20  C   UNL     1      -0.750   6.879 -32.565  1.00  0.00     0.150 C 
HETATM   21  C   UNL     1      -0.166   6.000 -31.440  1.00  0.00     0.254 C 
HETATM   22  N   UNL     1      -0.186   6.756 -30.106  1.00  0.00    -0.068 N 
HETATM   23  H   UNL     1       0.368   7.613 -30.233  1.00  0.00     0.280 HD
HETATM   24  C   UNL     1      -1.619   7.209 -29.784  1.00  0.00     0.254 C 
HETATM   25  C   UNL     1      -2.180   8.089 -30.922  1.00  0.00     0.150 C 
BRANCH  22  26
HETATM   26  C   UNL     1       0.414   5.974 -28.962  1.00  0.00     0.230 C 
HETATM   27  C   UNL     1       1.094   4.716 -29.468  1.00  0.00     0.034 C 
ENDBRANCH  22  26
ENDBRANCH   1  19
TORSDOF 4
ENDMDL
