MODEL 1
REMARK VINA RESULT:     -10.8      0.000      0.000
REMARK  4 active torsions:
REMARK  status: ('A' for Active; 'I' for Inactive)
REMARK    1  A    between atoms: C_4  and  C_5 
REMARK    2  A    between atoms: C_16  and  C_17 
REMARK    3  A    between atoms: C_20  and  C_21 
REMARK    4  A    between atoms: C_21  and  N_22 
REMARK       I    between atoms: N_22  and  C_23 
REMARK       I    between atoms: C_23  and  N_24 
ROOT
HETATM    1  C   UNL     1      -8.855   3.749 -31.503  1.00  0.00     0.067 C 
HETATM    2  C   UNL     1      -8.481   5.207 -31.837  1.00  0.00     0.001 C 
HETATM    3  C   UNL     1      -6.963   5.450 -31.694  1.00  0.00     0.040 C 
HETATM    4  C   UNL     1      -6.483   5.192 -30.255  1.00  0.00     0.206 C 
HETATM    5  N   UNL     1      -7.676   4.645 -29.491  1.00  0.00    -0.065 N 
HETATM    6  H   UNL     1      -7.330   4.361 -28.548  1.00  0.00     0.280 HD
HETATM    7  C   UNL     1      -8.262   3.395 -30.110  1.00  0.00     0.246 C 
HETATM    8  C   UNL     1      -9.172   6.106 -30.773  1.00  0.00     0.033 C 
HETATM    9  C   UNL     1      -8.744   5.699 -29.355  1.00  0.00     0.236 C 
ENDROOT
BRANCH   1  10
HETATM   10  C   UNL     1      -8.584   2.619 -32.464  1.00  0.00     0.038 C 
HETATM   11  N   UNL     1      -9.058   2.334 -33.724  1.00  0.00    -0.277 N 
HETATM   12  C   UNL     1     -10.154   2.881 -34.486  1.00  0.00     0.179 C 
HETATM   13  N   UNL     1      -8.346   1.372 -34.342  1.00  0.00    -0.172 NA
HETATM   14  C   UNL     1      -7.565   0.837 -33.398  1.00  0.00     0.089 C 
HETATM   15  C   UNL     1      -7.706   1.574 -32.202  1.00  0.00     0.061 C 
BRANCH  14  16
HETATM   16  C   UNL     1      -6.664  -0.288 -33.649  1.00  0.00    -0.005 A 
HETATM   17  C   UNL     1      -7.155  -1.483 -34.196  1.00  0.00     0.026 A 
HETATM   18  C   UNL     1      -6.321  -2.603 -34.370  1.00  0.00    -0.025 A 
HETATM   19  C   UNL     1      -4.962  -2.519 -33.992  1.00  0.00    -0.026 A 
HETATM   20  C   UNL     1      -6.814  -3.805 -34.903  1.00  0.00     0.012 A 
HETATM   21  C   UNL     1      -4.469  -1.313 -33.471  1.00  0.00     0.013 A 
HETATM   22  C   UNL     1      -4.138  -3.645 -34.145  1.00  0.00     0.012 A 
HETATM   23  C   UNL     1      -5.312  -0.208 -33.305  1.00  0.00     0.014 A 
HETATM   24  C   UNL     1      -4.645  -4.835 -34.668  1.00  0.00     0.001 A 
HETATM   25  C   UNL     1      -5.980  -4.914 -35.049  1.00  0.00     0.001 A 
ENDBRANCH  14  16
ENDBRANCH   1  10
BRANCH   4  26
HETATM   26  C   UNL     1      -5.234   4.274 -30.217  1.00  0.00     0.157 C 
BRANCH  26  27
HETATM   27  N   UNL     1      -4.051   4.753 -30.913  1.00  0.00    -0.341 N 
HETATM   28  C   UNL     1      -3.706   4.423 -32.190  1.00  0.00     0.318 C 
HETATM   29  N   UNL     1      -2.777   5.250 -32.787  1.00  0.00    -0.330 N 
HETATM   30  O   UNL     1      -4.195   3.436 -32.736  1.00  0.00    -0.247 OA
HETATM   31  C   UNL     1      -2.672   6.687 -32.470  1.00  0.00     0.153 C 
HETATM   32  C   UNL     1      -2.417   4.938 -34.177  1.00  0.00     0.153 C 
HETATM   33  C   UNL     1      -1.357   7.293 -32.970  1.00  0.00     0.187 C 
HETATM   34  O   UNL     1      -1.167   7.026 -34.364  1.00  0.00    -0.388 OA
HETATM   35  C   UNL     1      -1.112   5.614 -34.600  1.00  0.00     0.187 C 
HETATM   36  H   UNL     1      -3.405   5.335 -30.399  1.00  0.00     0.164 HD
ENDBRANCH  26  27
ENDBRANCH   4  26
TORSDOF 4
ENDMDL
MODEL 2
REMARK VINA RESULT:     -10.5      2.843      6.240
REMARK  4 active torsions:
REMARK  status: ('A' for Active; 'I' for Inactive)
REMARK    1  A    between atoms: C_4  and  C_5 
REMARK    2  A    between atoms: C_16  and  C_17 
REMARK    3  A    between atoms: C_20  and  C_21 
REMARK    4  A    between atoms: C_21  and  N_22 
REMARK       I    between atoms: N_22  and  C_23 
REMARK       I    between atoms: C_23  and  N_24 
ROOT
HETATM    1  C   UNL     1      -5.881   4.786 -31.963  1.00  0.00     0.067 C 
HETATM    2  C   UNL     1      -7.093   4.929 -31.020  1.00  0.00     0.001 C 
HETATM    3  C   UNL     1      -8.410   4.541 -31.728  1.00  0.00     0.040 C 
HETATM    4  C   UNL     1      -8.687   5.447 -32.940  1.00  0.00     0.206 C 
HETATM    5  N   UNL     1      -7.469   6.341 -33.101  1.00  0.00    -0.065 N 
HETATM    6  H   UNL     1      -7.601   6.878 -33.987  1.00  0.00     0.280 HD
HETATM    7  C   UNL     1      -6.179   5.570 -33.271  1.00  0.00     0.246 C 
HETATM    8  C   UNL     1      -7.212   6.438 -30.664  1.00  0.00     0.033 C 
HETATM    9  C   UNL     1      -7.352   7.288 -31.936  1.00  0.00     0.236 C 
ENDROOT
BRANCH   1  10
HETATM   10  C   UNL     1      -5.299   3.439 -32.309  1.00  0.00     0.038 C 
HETATM   11  N   UNL     1      -4.069   2.867 -32.074  1.00  0.00    -0.277 N 
HETATM   12  C   UNL     1      -2.818   3.427 -31.621  1.00  0.00     0.179 C 
HETATM   13  N   UNL     1      -4.058   1.540 -32.309  1.00  0.00    -0.172 NA
HETATM   14  C   UNL     1      -5.204   1.277 -32.946  1.00  0.00     0.089 C 
HETATM   15  C   UNL     1      -5.995   2.446 -32.989  1.00  0.00     0.061 C 
BRANCH  14  16
HETATM   16  C   UNL     1      -5.561  -0.056 -33.430  1.00  0.00    -0.005 A 
HETATM   17  C   UNL     1      -4.666  -1.128 -33.286  1.00  0.00     0.026 A 
HETATM   18  C   UNL     1      -4.956  -2.398 -33.816  1.00  0.00    -0.025 A 
HETATM   19  C   UNL     1      -6.177  -2.600 -34.499  1.00  0.00    -0.026 A 
HETATM   20  C   UNL     1      -4.055  -3.467 -33.688  1.00  0.00     0.012 A 
HETATM   21  C   UNL     1      -7.081  -1.533 -34.616  1.00  0.00     0.013 A 
HETATM   22  C   UNL     1      -6.455  -3.862 -35.047  1.00  0.00     0.012 A 
HETATM   23  C   UNL     1      -6.777  -0.275 -34.083  1.00  0.00     0.014 A 
HETATM   24  C   UNL     1      -5.545  -4.912 -34.918  1.00  0.00     0.001 A 
HETATM   25  C   UNL     1      -4.348  -4.716 -34.237  1.00  0.00     0.001 A 
ENDBRANCH  14  16
ENDBRANCH   1  10
BRANCH   4  26
HETATM   26  C   UNL     1      -9.040   4.626 -34.207  1.00  0.00     0.157 C 
BRANCH  26  27
HETATM   27  N   UNL     1     -10.352   4.002 -34.236  1.00  0.00    -0.341 N 
HETATM   28  C   UNL     1     -10.584   2.660 -34.170  1.00  0.00     0.318 C 
HETATM   29  N   UNL     1     -11.872   2.294 -33.841  1.00  0.00    -0.330 N 
HETATM   30  O   UNL     1      -9.685   1.857 -34.415  1.00  0.00    -0.247 OA
HETATM   31  C   UNL     1     -12.731   3.113 -32.963  1.00  0.00     0.153 C 
HETATM   32  C   UNL     1     -12.138   0.854 -33.727  1.00  0.00     0.153 C 
HETATM   33  C   UNL     1     -14.202   2.697 -33.048  1.00  0.00     0.187 C 
HETATM   34  O   UNL     1     -14.354   1.294 -32.805  1.00  0.00    -0.388 OA
HETATM   35  C   UNL     1     -13.632   0.537 -33.784  1.00  0.00     0.187 C 
HETATM   36  H   UNL     1     -11.156   4.600 -34.363  1.00  0.00     0.164 HD
ENDBRANCH  26  27
ENDBRANCH   4  26
TORSDOF 4
ENDMDL
MODEL 3
REMARK VINA RESULT:     -10.2      2.439      5.321
REMARK  4 active torsions:
REMARK  status: ('A' for Active; 'I' for Inactive)
REMARK    1  A    between atoms: C_4  and  C_5 
REMARK    2  A    between atoms: C_16  and  C_17 
REMARK    3  A    between atoms: C_20  and  C_21 
REMARK    4  A    between atoms: C_21  and  N_22 
REMARK       I    between atoms: N_22  and  C_23 
REMARK       I    between atoms: C_23  and  N_24 
ROOT
HETATM    1  C   UNL     1      -3.279   3.903 -31.504  1.00  0.00     0.067 C 
HETATM    2  C   UNL     1      -3.882   5.108 -30.754  1.00  0.00     0.001 C 
HETATM    3  C   UNL     1      -5.165   5.621 -31.444  1.00  0.00     0.040 C 
HETATM    4  C   UNL     1      -4.884   6.093 -32.880  1.00  0.00     0.206 C 
HETATM    5  N   UNL     1      -3.431   5.756 -33.172  1.00  0.00    -0.065 N 
HETATM    6  H   UNL     1      -3.265   5.969 -34.181  1.00  0.00     0.280 HD
HETATM    7  C   UNL     1      -3.112   4.287 -33.001  1.00  0.00     0.246 C 
HETATM    8  C   UNL     1      -2.843   6.261 -30.846  1.00  0.00     0.033 C 
HETATM    9  C   UNL     1      -2.515   6.584 -32.311  1.00  0.00     0.236 C 
ENDROOT
BRANCH   1  10
HETATM   10  C   UNL     1      -3.883   2.524 -31.406  1.00  0.00     0.038 C 
HETATM   11  N   UNL     1      -4.983   2.035 -30.741  1.00  0.00    -0.277 N 
HETATM   12  C   UNL     1      -5.821   2.607 -29.714  1.00  0.00     0.179 C 
HETATM   13  N   UNL     1      -5.327   0.797 -31.145  1.00  0.00    -0.172 NA
HETATM   14  C   UNL     1      -4.305   0.363 -31.889  1.00  0.00     0.089 C 
HETATM   15  C   UNL     1      -3.369   1.407 -32.053  1.00  0.00     0.061 C 
BRANCH  14  16
HETATM   16  C   UNL     1      -4.260  -0.974 -32.483  1.00  0.00    -0.005 A 
HETATM   17  C   UNL     1      -5.214  -1.360 -33.437  1.00  0.00     0.026 A 
HETATM   18  C   UNL     1      -5.237  -2.666 -33.960  1.00  0.00    -0.025 A 
HETATM   19  C   UNL     1      -4.275  -3.603 -33.521  1.00  0.00    -0.026 A 
HETATM   20  C   UNL     1      -6.200  -3.060 -34.903  1.00  0.00     0.012 A 
HETATM   21  C   UNL     1      -3.305  -3.205 -32.587  1.00  0.00     0.013 A 
HETATM   22  C   UNL     1      -4.313  -4.912 -34.026  1.00  0.00     0.012 A 
HETATM   23  C   UNL     1      -3.297  -1.902 -32.077  1.00  0.00     0.014 A 
HETATM   24  C   UNL     1      -5.282  -5.290 -34.957  1.00  0.00     0.001 A 
HETATM   25  C   UNL     1      -6.223  -4.364 -35.396  1.00  0.00     0.001 A 
ENDBRANCH  14  16
ENDBRANCH   1  10
BRANCH   4  26
HETATM   26  C   UNL     1      -5.888   5.489 -33.895  1.00  0.00     0.157 C 
BRANCH  26  27
HETATM   27  N   UNL     1      -6.880   4.569 -33.363  1.00  0.00    -0.341 N 
HETATM   28  C   UNL     1      -8.135   4.394 -33.865  1.00  0.00     0.318 C 
HETATM   29  N   UNL     1      -8.778   3.239 -33.469  1.00  0.00    -0.330 N 
HETATM   30  O   UNL     1      -8.639   5.241 -34.601  1.00  0.00    -0.247 OA
HETATM   31  C   UNL     1      -8.053   1.990 -33.169  1.00  0.00     0.153 C 
HETATM   32  C   UNL     1     -10.118   3.010 -34.026  1.00  0.00     0.153 C 
HETATM   33  C   UNL     1      -8.928   0.985 -32.412  1.00  0.00     0.187 C 
HETATM   34  O   UNL     1     -10.157   0.750 -33.106  1.00  0.00    -0.388 OA
HETATM   35  C   UNL     1     -10.903   1.967 -33.229  1.00  0.00     0.187 C 
HETATM   36  H   UNL     1      -6.644   4.052 -32.528  1.00  0.00     0.164 HD
ENDBRANCH  26  27
ENDBRANCH   4  26
TORSDOF 4
ENDMDL
MODEL 4
REMARK VINA RESULT:     -10.1      2.038      2.343
REMARK  4 active torsions:
REMARK  status: ('A' for Active; 'I' for Inactive)
REMARK    1  A    between atoms: C_4  and  C_5 
REMARK    2  A    between atoms: C_16  and  C_17 
REMARK    3  A    between atoms: C_20  and  C_21 
REMARK    4  A    between atoms: C_21  and  N_22 
REMARK       I    between atoms: N_22  and  C_23 
REMARK       I    between atoms: C_23  and  N_24 
ROOT
HETATM    1  C   UNL     1      -8.353   4.316 -32.379  1.00  0.00     0.067 C 
HETATM    2  C   UNL     1      -7.922   5.574 -33.159  1.00  0.00     0.001 C 
HETATM    3  C   UNL     1      -6.384   5.692 -33.239  1.00  0.00     0.040 C 
HETATM    4  C   UNL     1      -5.752   5.803 -31.841  1.00  0.00     0.206 C 
HETATM    5  N   UNL     1      -6.879   5.617 -30.840  1.00  0.00    -0.065 N 
HETATM    6  H   UNL     1      -6.442   5.578 -29.892  1.00  0.00     0.280 HD
HETATM    7  C   UNL     1      -7.621   4.310 -31.008  1.00  0.00     0.246 C 
HETATM    8  C   UNL     1      -8.414   6.802 -32.341  1.00  0.00     0.033 C 
HETATM    9  C   UNL     1      -7.846   6.769 -30.914  1.00  0.00     0.236 C 
ENDROOT
BRANCH   1  10
HETATM   10  C   UNL     1      -8.280   2.939 -32.991  1.00  0.00     0.038 C 
HETATM   11  N   UNL     1      -9.073   2.283 -33.904  1.00  0.00    -0.277 N 
HETATM   12  C   UNL     1     -10.383   2.580 -34.431  1.00  0.00     0.179 C 
HETATM   13  N   UNL     1      -8.494   1.166 -34.388  1.00  0.00    -0.172 NA
HETATM   14  C   UNL     1      -7.434   0.942 -33.607  1.00  0.00     0.089 C 
HETATM   15  C   UNL     1      -7.282   2.016 -32.702  1.00  0.00     0.061 C 
BRANCH  14  16
HETATM   16  C   UNL     1      -6.555  -0.217 -33.765  1.00  0.00    -0.005 A 
HETATM   17  C   UNL     1      -7.041  -1.406 -34.330  1.00  0.00     0.026 A 
HETATM   18  C   UNL     1      -6.236  -2.556 -34.418  1.00  0.00    -0.025 A 
HETATM   19  C   UNL     1      -4.910  -2.510 -33.934  1.00  0.00    -0.026 A 
HETATM   20  C   UNL     1      -6.726  -3.751 -34.968  1.00  0.00     0.012 A 
HETATM   21  C   UNL     1      -4.418  -1.311 -33.395  1.00  0.00     0.013 A 
HETATM   22  C   UNL     1      -4.115  -3.665 -34.001  1.00  0.00     0.012 A 
HETATM   23  C   UNL     1      -5.232  -0.175 -33.316  1.00  0.00     0.014 A 
HETATM   24  C   UNL     1      -4.620  -4.848 -34.543  1.00  0.00     0.001 A 
HETATM   25  C   UNL     1      -5.923  -4.890 -35.028  1.00  0.00     0.001 A 
ENDBRANCH  14  16
ENDBRANCH   1  10
BRANCH   4  26
HETATM   26  C   UNL     1      -4.575   4.810 -31.658  1.00  0.00     0.157 C 
BRANCH  26  27
HETATM   27  N   UNL     1      -3.531   5.202 -30.725  1.00  0.00    -0.341 N 
HETATM   28  C   UNL     1      -2.306   5.685 -31.079  1.00  0.00     0.318 C 
HETATM   29  N   UNL     1      -1.613   6.336 -30.080  1.00  0.00    -0.330 N 
HETATM   30  O   UNL     1      -1.870   5.514 -32.216  1.00  0.00    -0.247 OA
HETATM   31  C   UNL     1      -2.288   7.090 -29.006  1.00  0.00     0.153 C 
HETATM   32  C   UNL     1      -0.306   6.898 -30.446  1.00  0.00     0.153 C 
HETATM   33  C   UNL     1      -1.344   7.400 -27.840  1.00  0.00     0.187 C 
HETATM   34  O   UNL     1      -0.156   8.052 -28.300  1.00  0.00    -0.388 OA
HETATM   35  C   UNL     1       0.552   7.210 -29.219  1.00  0.00     0.187 C 
HETATM   36  H   UNL     1      -3.701   5.062 -29.740  1.00  0.00     0.164 HD
ENDBRANCH  26  27
ENDBRANCH   4  26
TORSDOF 4
ENDMDL
MODEL 5
REMARK VINA RESULT:      -9.9      2.418      7.926
REMARK  4 active torsions:
REMARK  status: ('A' for Active; 'I' for Inactive)
REMARK    1  A    between atoms: C_4  and  C_5 
REMARK    2  A    between atoms: C_16  and  C_17 
REMARK    3  A    between atoms: C_20  and  C_21 
REMARK    4  A    between atoms: C_21  and  N_22 
REMARK       I    between atoms: N_22  and  C_23 
REMARK       I    between atoms: C_23  and  N_24 
ROOT
HETATM    1  C   UNL     1      -9.148   3.414 -32.628  1.00  0.00     0.067 C 
HETATM    2  C   UNL     1      -9.629   2.015 -32.190  1.00  0.00     0.001 C 
HETATM    3  C   UNL     1      -8.683   0.906 -32.699  1.00  0.00     0.040 C 
HETATM    4  C   UNL     1      -8.614   0.885 -34.236  1.00  0.00     0.206 C 
HETATM    5  N   UNL     1      -9.414   2.080 -34.723  1.00  0.00    -0.065 N 
HETATM    6  H   UNL     1      -9.278   2.138 -35.756  1.00  0.00     0.280 HD
HETATM    7  C   UNL     1      -8.922   3.398 -34.165  1.00  0.00     0.246 C 
HETATM    8  C   UNL     1     -11.002   1.773 -32.879  1.00  0.00     0.033 C 
HETATM    9  C   UNL     1     -10.875   1.901 -34.404  1.00  0.00     0.236 C 
ENDROOT
BRANCH   1  10
HETATM   10  C   UNL     1      -7.984   4.099 -31.959  1.00  0.00     0.038 C 
HETATM   11  N   UNL     1      -7.865   4.790 -30.775  1.00  0.00    -0.277 N 
HETATM   12  C   UNL     1      -8.853   5.310 -29.860  1.00  0.00     0.179 C 
HETATM   13  N   UNL     1      -6.582   5.000 -30.421  1.00  0.00    -0.172 NA
HETATM   14  C   UNL     1      -5.854   4.679 -31.495  1.00  0.00     0.089 C 
HETATM   15  C   UNL     1      -6.699   4.136 -32.488  1.00  0.00     0.061 C 
BRANCH  14  16
HETATM   16  C   UNL     1      -4.398   4.816 -31.544  1.00  0.00    -0.005 A 
HETATM   17  C   UNL     1      -3.747   5.771 -30.749  1.00  0.00     0.026 A 
HETATM   18  C   UNL     1      -2.358   5.974 -30.841  1.00  0.00    -0.025 A 
HETATM   19  C   UNL     1      -1.605   5.194 -31.747  1.00  0.00    -0.026 A 
HETATM   20  C   UNL     1      -1.707   6.940 -30.058  1.00  0.00     0.012 A 
HETATM   21  C   UNL     1      -2.255   4.221 -32.520  1.00  0.00     0.013 A 
HETATM   22  C   UNL     1      -0.222   5.413 -31.854  1.00  0.00     0.012 A 
HETATM   23  C   UNL     1      -3.638   4.032 -32.416  1.00  0.00     0.014 A 
HETATM   24  C   UNL     1       0.409   6.384 -31.074  1.00  0.00     0.001 A 
HETATM   25  C   UNL     1      -0.332   7.144 -30.175  1.00  0.00     0.001 A 
ENDBRANCH  14  16
ENDBRANCH   1  10
BRANCH   4  26
HETATM   26  C   UNL     1      -7.151   0.854 -34.748  1.00  0.00     0.157 C 
BRANCH  26  27
HETATM   27  N   UNL     1      -6.583  -0.456 -35.023  1.00  0.00    -0.341 N 
HETATM   28  C   UNL     1      -5.587  -1.045 -34.302  1.00  0.00     0.318 C 
HETATM   29  N   UNL     1      -5.447  -2.406 -34.481  1.00  0.00    -0.330 N 
HETATM   30  O   UNL     1      -4.865  -0.373 -33.567  1.00  0.00    -0.247 OA
HETATM   31  C   UNL     1      -6.589  -3.287 -34.791  1.00  0.00     0.153 C 
HETATM   32  C   UNL     1      -4.405  -3.069 -33.687  1.00  0.00     0.153 C 
HETATM   33  C   UNL     1      -6.136  -4.659 -35.298  1.00  0.00     0.187 C 
HETATM   34  O   UNL     1      -5.212  -5.263 -34.388  1.00  0.00    -0.388 OA
HETATM   35  C   UNL     1      -4.043  -4.446 -34.246  1.00  0.00     0.187 C 
HETATM   36  H   UNL     1      -6.914  -0.953 -35.838  1.00  0.00     0.164 HD
ENDBRANCH  26  27
ENDBRANCH   4  26
TORSDOF 4
ENDMDL
MODEL 6
REMARK VINA RESULT:      -9.9      1.678      2.269
REMARK  4 active torsions:
REMARK  status: ('A' for Active; 'I' for Inactive)
REMARK    1  A    between atoms: C_4  and  C_5 
REMARK    2  A    between atoms: C_16  and  C_17 
REMARK    3  A    between atoms: C_20  and  C_21 
REMARK    4  A    between atoms: C_21  and  N_22 
REMARK       I    between atoms: N_22  and  C_23 
REMARK       I    between atoms: C_23  and  N_24 
ROOT
HETATM    1  C   UNL     1      -7.050   4.525 -29.239  1.00  0.00     0.067 C 
HETATM    2  C   UNL     1      -8.133   5.613 -29.093  1.00  0.00     0.001 C 
HETATM    3  C   UNL     1      -8.270   6.453 -30.381  1.00  0.00     0.040 C 
HETATM    4  C   UNL     1      -6.959   7.182 -30.721  1.00  0.00     0.206 C 
HETATM    5  N   UNL     1      -5.922   6.701 -29.720  1.00  0.00    -0.065 N 
HETATM    6  H   UNL     1      -5.005   7.103 -30.014  1.00  0.00     0.280 HD
HETATM    7  C   UNL     1      -5.737   5.199 -29.725  1.00  0.00     0.246 C 
HETATM    8  C   UNL     1      -7.648   6.586 -27.982  1.00  0.00     0.033 C 
HETATM    9  C   UNL     1      -6.272   7.170 -28.332  1.00  0.00     0.236 C 
ENDROOT
BRANCH   1  10
HETATM   10  C   UNL     1      -7.290   3.267 -30.035  1.00  0.00     0.038 C 
HETATM   11  N   UNL     1      -8.421   2.725 -30.601  1.00  0.00    -0.277 N 
HETATM   12  C   UNL     1      -9.822   3.038 -30.444  1.00  0.00     0.179 C 
HETATM   13  N   UNL     1      -8.145   1.727 -31.463  1.00  0.00    -0.172 NA
HETATM   14  C   UNL     1      -6.855   1.434 -31.273  1.00  0.00     0.089 C 
HETATM   15  C   UNL     1      -6.292   2.358 -30.366  1.00  0.00     0.061 C 
BRANCH  14  16
HETATM   16  C   UNL     1      -6.167   0.357 -31.987  1.00  0.00    -0.005 A 
HETATM   17  C   UNL     1      -6.862  -0.447 -32.903  1.00  0.00     0.026 A 
HETATM   18  C   UNL     1      -6.240  -1.536 -33.538  1.00  0.00    -0.025 A 
HETATM   19  C   UNL     1      -4.886  -1.822 -33.253  1.00  0.00    -0.026 A 
HETATM   20  C   UNL     1      -6.939  -2.351 -34.443  1.00  0.00     0.012 A 
HETATM   21  C   UNL     1      -4.186  -0.999 -32.357  1.00  0.00     0.013 A 
HETATM   22  C   UNL     1      -4.274  -2.924 -33.870  1.00  0.00     0.012 A 
HETATM   23  C   UNL     1      -4.820   0.082 -31.734  1.00  0.00     0.014 A 
HETATM   24  C   UNL     1      -4.984  -3.730 -34.761  1.00  0.00     0.001 A 
HETATM   25  C   UNL     1      -6.315  -3.442 -35.049  1.00  0.00     0.001 A 
ENDBRANCH  14  16
ENDBRANCH   1  10
BRANCH   4  26
HETATM   26  C   UNL     1      -6.549   6.976 -32.202  1.00  0.00     0.157 C 
BRANCH  26  27
HETATM   27  N   UNL     1      -5.166   6.608 -32.451  1.00  0.00    -0.341 N 
HETATM   28  C   UNL     1      -4.725   5.906 -33.534  1.00  0.00     0.318 C 
HETATM   29  N   UNL     1      -3.369   5.978 -33.777  1.00  0.00    -0.330 N 
HETATM   30  O   UNL     1      -5.509   5.246 -34.214  1.00  0.00    -0.247 OA
HETATM   31  C   UNL     1      -2.564   7.169 -33.443  1.00  0.00     0.153 C 
HETATM   32  C   UNL     1      -2.875   5.260 -34.960  1.00  0.00     0.153 C 
HETATM   33  C   UNL     1      -1.062   6.873 -33.465  1.00  0.00     0.187 C 
HETATM   34  O   UNL     1      -0.672   6.282 -34.709  1.00  0.00    -0.388 OA
HETATM   35  C   UNL     1      -1.362   5.042 -34.912  1.00  0.00     0.187 C 
HETATM   36  H   UNL     1      -4.480   6.844 -31.748  1.00  0.00     0.164 HD
ENDBRANCH  26  27
ENDBRANCH   4  26
TORSDOF 4
ENDMDL
MODEL 7
REMARK VINA RESULT:      -9.9      2.801      3.488
REMARK  4 active torsions:
REMARK  status: ('A' for Active; 'I' for Inactive)
REMARK    1  A    between atoms: C_4  and  C_5 
REMARK    2  A    between atoms: C_16  and  C_17 
REMARK    3  A    between atoms: C_20  and  C_21 
REMARK    4  A    between atoms: C_21  and  N_22 
REMARK       I    between atoms: N_22  and  C_23 
REMARK       I    between atoms: C_23  and  N_24 
ROOT
HETATM    1  C   UNL     1      -6.874   5.049 -31.505  1.00  0.00     0.067 C 
HETATM    2  C   UNL     1      -6.479   5.928 -32.708  1.00  0.00     0.001 C 
HETATM    3  C   UNL     1      -4.977   5.795 -33.039  1.00  0.00     0.040 C 
HETATM    4  C   UNL     1      -4.097   6.245 -31.859  1.00  0.00     0.206 C 
HETATM    5  N   UNL     1      -5.039   6.542 -30.705  1.00  0.00    -0.065 N 
HETATM    6  H   UNL     1      -4.444   6.738 -29.869  1.00  0.00     0.280 HD
HETATM    7  C   UNL     1      -5.912   5.366 -30.326  1.00  0.00     0.246 C 
HETATM    8  C   UNL     1      -6.706   7.406 -32.281  1.00  0.00     0.033 C 
HETATM    9  C   UNL     1      -5.897   7.739 -31.019  1.00  0.00     0.236 C 
ENDROOT
BRANCH   1  10
HETATM   10  C   UNL     1      -7.034   3.555 -31.631  1.00  0.00     0.038 C 
HETATM   11  N   UNL     1      -8.064   2.699 -31.317  1.00  0.00    -0.277 N 
HETATM   12  C   UNL     1      -9.268   2.884 -30.542  1.00  0.00     0.179 C 
HETATM   13  N   UNL     1      -7.902   1.472 -31.848  1.00  0.00    -0.172 NA
HETATM   14  C   UNL     1      -6.643   1.436 -32.296  1.00  0.00     0.089 C 
HETATM   15  C   UNL     1      -6.059   2.714 -32.153  1.00  0.00     0.061 C 
BRANCH  14  16
HETATM   16  C   UNL     1      -6.045   0.248 -32.905  1.00  0.00    -0.005 A 
HETATM   17  C   UNL     1      -6.858  -0.762 -33.442  1.00  0.00     0.026 A 
HETATM   18  C   UNL     1      -6.306  -1.947 -33.959  1.00  0.00    -0.025 A 
HETATM   19  C   UNL     1      -4.904  -2.120 -33.943  1.00  0.00    -0.026 A 
HETATM   20  C   UNL     1      -7.119  -2.966 -34.482  1.00  0.00     0.012 A 
HETATM   21  C   UNL     1      -4.092  -1.097 -33.431  1.00  0.00     0.013 A 
HETATM   22  C   UNL     1      -4.355  -3.314 -34.438  1.00  0.00     0.012 A 
HETATM   23  C   UNL     1      -4.658   0.077 -32.921  1.00  0.00     0.014 A 
HETATM   24  C   UNL     1      -5.178  -4.321 -34.947  1.00  0.00     0.001 A 
HETATM   25  C   UNL     1      -6.558  -4.145 -34.971  1.00  0.00     0.001 A 
ENDBRANCH  14  16
ENDBRANCH   1  10
BRANCH   4  26
HETATM   26  C   UNL     1      -2.999   5.202 -31.526  1.00  0.00     0.157 C 
BRANCH  26  27
HETATM   27  N   UNL     1      -2.179   5.470 -30.356  1.00  0.00    -0.341 N 
HETATM   28  C   UNL     1      -1.077   6.271 -30.339  1.00  0.00     0.318 C 
HETATM   29  N   UNL     1      -0.664   6.689 -29.090  1.00  0.00    -0.330 N 
HETATM   30  O   UNL     1      -0.499   6.565 -31.384  1.00  0.00    -0.247 OA
HETATM   31  C   UNL     1      -1.606   6.909 -27.976  1.00  0.00     0.153 C 
HETATM   32  C   UNL     1       0.500   7.583 -29.048  1.00  0.00     0.153 C 
HETATM   33  C   UNL     1      -0.887   7.006 -26.626  1.00  0.00     0.187 C 
HETATM   34  O   UNL     1       0.150   7.991 -26.667  1.00  0.00    -0.388 OA
HETATM   35  C   UNL     1       1.129   7.646 -27.655  1.00  0.00     0.187 C 
HETATM   36  H   UNL     1      -2.410   4.989 -29.498  1.00  0.00     0.164 HD
ENDBRANCH  26  27
ENDBRANCH   4  26
TORSDOF 4
ENDMDL
MODEL 8
REMARK VINA RESULT:      -9.8      1.957      2.880
REMARK  4 active torsions:
REMARK  status: ('A' for Active; 'I' for Inactive)
REMARK    1  A    between atoms: C_4  and  C_5 
REMARK    2  A    between atoms: C_16  and  C_17 
REMARK    3  A    between atoms: C_20  and  C_21 
REMARK    4  A    between atoms: C_21  and  N_22 
REMARK       I    between atoms: N_22  and  C_23 
REMARK       I    between atoms: C_23  and  N_24 
ROOT
HETATM    1  C   UNL     1      -5.894   4.016 -29.722  1.00  0.00     0.067 C 
HETATM    2  C   UNL     1      -7.388   4.370 -29.581  1.00  0.00     0.001 C 
HETATM    3  C   UNL     1      -7.862   5.295 -30.724  1.00  0.00     0.040 C 
HETATM    4  C   UNL     1      -7.093   6.627 -30.727  1.00  0.00     0.206 C 
HETATM    5  N   UNL     1      -6.016   6.510 -29.662  1.00  0.00    -0.065 N 
HETATM    6  H   UNL     1      -5.419   7.364 -29.737  1.00  0.00     0.280 HD
HETATM    7  C   UNL     1      -5.087   5.335 -29.877  1.00  0.00     0.246 C 
HETATM    8  C   UNL     1      -7.536   5.186 -28.266  1.00  0.00     0.033 C 
HETATM    9  C   UNL     1      -6.636   6.430 -28.292  1.00  0.00     0.236 C 
ENDROOT
BRANCH   1  10
HETATM   10  C   UNL     1      -5.409   3.011 -30.737  1.00  0.00     0.038 C 
HETATM   11  N   UNL     1      -4.177   2.782 -31.305  1.00  0.00    -0.277 N 
HETATM   12  C   UNL     1      -2.961   3.560 -31.314  1.00  0.00     0.179 C 
HETATM   13  N   UNL     1      -4.116   1.605 -31.959  1.00  0.00    -0.172 NA
HETATM   14  C   UNL     1      -5.379   1.176 -32.047  1.00  0.00     0.089 C 
HETATM   15  C   UNL     1      -6.220   2.043 -31.317  1.00  0.00     0.061 C 
BRANCH  14  16
HETATM   16  C   UNL     1      -5.757  -0.057 -32.738  1.00  0.00    -0.005 A 
HETATM   17  C   UNL     1      -4.833  -1.103 -32.884  1.00  0.00     0.026 A 
HETATM   18  C   UNL     1      -5.150  -2.262 -33.615  1.00  0.00    -0.025 A 
HETATM   19  C   UNL     1      -6.428  -2.377 -34.207  1.00  0.00    -0.026 A 
HETATM   20  C   UNL     1      -4.222  -3.302 -33.775  1.00  0.00     0.012 A 
HETATM   21  C   UNL     1      -7.359  -1.341 -34.036  1.00  0.00     0.013 A 
HETATM   22  C   UNL     1      -6.735  -3.524 -34.956  1.00  0.00     0.012 A 
HETATM   23  C   UNL     1      -7.027  -0.194 -33.306  1.00  0.00     0.014 A 
HETATM   24  C   UNL     1      -5.798  -4.546 -35.113  1.00  0.00     0.001 A 
HETATM   25  C   UNL     1      -4.543  -4.437 -34.521  1.00  0.00     0.001 A 
ENDBRANCH  14  16
ENDBRANCH   1  10
BRANCH   4  26
HETATM   26  C   UNL     1      -6.551   6.979 -32.137  1.00  0.00     0.157 C 
BRANCH  26  27
HETATM   27  N   UNL     1      -5.181   6.589 -32.425  1.00  0.00    -0.341 N 
HETATM   28  C   UNL     1      -4.778   5.903 -33.532  1.00  0.00     0.318 C 
HETATM   29  N   UNL     1      -3.426   5.955 -33.805  1.00  0.00    -0.330 N 
HETATM   30  O   UNL     1      -5.589   5.273 -34.209  1.00  0.00    -0.247 OA
HETATM   31  C   UNL     1      -2.591   7.122 -33.463  1.00  0.00     0.153 C 
HETATM   32  C   UNL     1      -2.972   5.254 -35.014  1.00  0.00     0.153 C 
HETATM   33  C   UNL     1      -1.096   6.798 -33.525  1.00  0.00     0.187 C 
HETATM   34  O   UNL     1      -0.746   6.228 -34.790  1.00  0.00    -0.388 OA
HETATM   35  C   UNL     1      -1.464   5.006 -35.004  1.00  0.00     0.187 C 
HETATM   36  H   UNL     1      -4.475   6.797 -31.733  1.00  0.00     0.164 HD
ENDBRANCH  26  27
ENDBRANCH   4  26
TORSDOF 4
ENDMDL
MODEL 9
REMARK VINA RESULT:      -9.7      2.095      5.330
REMARK  4 active torsions:
REMARK  status: ('A' for Active; 'I' for Inactive)
REMARK    1  A    between atoms: C_4  and  C_5 
REMARK    2  A    between atoms: C_16  and  C_17 
REMARK    3  A    between atoms: C_20  and  C_21 
REMARK    4  A    between atoms: C_21  and  N_22 
REMARK       I    between atoms: N_22  and  C_23 
REMARK       I    between atoms: C_23  and  N_24 
ROOT
HETATM    1  C   UNL     1      -2.663   3.795 -32.145  1.00  0.00     0.067 C 
HETATM    2  C   UNL     1      -2.395   4.825 -31.029  1.00  0.00     0.001 C 
HETATM    3  C   UNL     1      -3.534   5.863 -30.931  1.00  0.00     0.040 C 
HETATM    4  C   UNL     1      -3.685   6.661 -32.238  1.00  0.00     0.206 C 
HETATM    5  N   UNL     1      -2.726   6.039 -33.239  1.00  0.00    -0.065 N 
HETATM    6  H   UNL     1      -2.904   6.500 -34.159  1.00  0.00     0.280 HD
HETATM    7  C   UNL     1      -2.967   4.562 -33.462  1.00  0.00     0.246 C 
HETATM    8  C   UNL     1      -1.117   5.611 -31.438  1.00  0.00     0.033 C 
HETATM    9  C   UNL     1      -1.299   6.268 -32.814  1.00  0.00     0.236 C 
ENDROOT
BRANCH   1  10
HETATM   10  C   UNL     1      -3.664   2.681 -31.973  1.00  0.00     0.038 C 
HETATM   11  N   UNL     1      -4.730   2.510 -31.119  1.00  0.00    -0.277 N 
HETATM   12  C   UNL     1      -5.134   3.220 -29.930  1.00  0.00     0.179 C 
HETATM   13  N   UNL     1      -5.533   1.492 -31.487  1.00  0.00    -0.172 NA
HETATM   14  C   UNL     1      -4.862   0.826 -32.431  1.00  0.00     0.089 C 
HETATM   15  C   UNL     1      -3.675   1.524 -32.744  1.00  0.00     0.061 C 
BRANCH  14  16
HETATM   16  C   UNL     1      -5.370  -0.392 -33.064  1.00  0.00    -0.005 A 
HETATM   17  C   UNL     1      -4.567  -1.540 -33.144  1.00  0.00     0.026 A 
HETATM   18  C   UNL     1      -5.006  -2.693 -33.819  1.00  0.00    -0.025 A 
HETATM   19  C   UNL     1      -6.284  -2.696 -34.422  1.00  0.00    -0.026 A 
HETATM   20  C   UNL     1      -4.198  -3.837 -33.915  1.00  0.00     0.012 A 
HETATM   21  C   UNL     1      -7.096  -1.556 -34.316  1.00  0.00     0.013 A 
HETATM   22  C   UNL     1      -6.712  -3.840 -35.115  1.00  0.00     0.012 A 
HETATM   23  C   UNL     1      -6.644  -0.417 -33.640  1.00  0.00     0.014 A 
HETATM   24  C   UNL     1      -5.893  -4.966 -35.207  1.00  0.00     0.001 A 
HETATM   25  C   UNL     1      -4.638  -4.966 -34.606  1.00  0.00     0.001 A 
ENDBRANCH  14  16
ENDBRANCH   1  10
BRANCH   4  26
HETATM   26  C   UNL     1      -5.158   6.708 -32.720  1.00  0.00     0.157 C 
BRANCH  26  27
HETATM   27  N   UNL     1      -6.024   5.628 -32.278  1.00  0.00    -0.341 N 
HETATM   28  C   UNL     1      -7.177   5.789 -31.570  1.00  0.00     0.318 C 
HETATM   29  N   UNL     1      -8.031   4.705 -31.569  1.00  0.00    -0.330 N 
HETATM   30  O   UNL     1      -7.400   6.837 -30.966  1.00  0.00    -0.247 OA
HETATM   31  C   UNL     1      -8.131   3.772 -32.707  1.00  0.00     0.153 C 
HETATM   32  C   UNL     1      -9.298   4.868 -30.843  1.00  0.00     0.153 C 
HETATM   33  C   UNL     1      -8.852   2.475 -32.326  1.00  0.00     0.187 C 
HETATM   34  O   UNL     1     -10.126   2.752 -31.735  1.00  0.00    -0.388 OA
HETATM   35  C   UNL     1      -9.965   3.526 -30.539  1.00  0.00     0.187 C 
HETATM   36  H   UNL     1      -5.729   4.679 -32.464  1.00  0.00     0.164 HD
ENDBRANCH  26  27
ENDBRANCH   4  26
TORSDOF 4
ENDMDL
MODEL 10
REMARK VINA RESULT:      -9.7      3.058      6.505
REMARK  4 active torsions:
REMARK  status: ('A' for Active; 'I' for Inactive)
REMARK    1  A    between atoms: C_4  and  C_5 
REMARK    2  A    between atoms: C_16  and  C_17 
REMARK    3  A    between atoms: C_20  and  C_21 
REMARK    4  A    between atoms: C_21  and  N_22 
REMARK       I    between atoms: N_22  and  C_23 
REMARK       I    between atoms: C_23  and  N_24 
ROOT
HETATM    1  C   UNL     1      -6.142   4.711 -30.505  1.00  0.00     0.067 C 
HETATM    2  C   UNL     1      -7.133   4.220 -29.430  1.00  0.00     0.001 C 
HETATM    3  C   UNL     1      -8.390   3.585 -30.064  1.00  0.00     0.040 C 
HETATM    4  C   UNL     1      -9.153   4.596 -30.937  1.00  0.00     0.206 C 
HETATM    5  N   UNL     1      -8.310   5.859 -30.979  1.00  0.00    -0.065 N 
HETATM    6  H   UNL     1      -8.764   6.507 -31.659  1.00  0.00     0.280 HD
HETATM    7  C   UNL     1      -6.909   5.626 -31.501  1.00  0.00     0.246 C 
HETATM    8  C   UNL     1      -7.620   5.479 -28.656  1.00  0.00     0.033 C 
HETATM    9  C   UNL     1      -8.250   6.498 -29.616  1.00  0.00     0.236 C 
ENDROOT
BRANCH   1  10
HETATM   10  C   UNL     1      -5.269   3.754 -31.276  1.00  0.00     0.038 C 
HETATM   11  N   UNL     1      -3.936   3.776 -31.614  1.00  0.00    -0.277 N 
HETATM   12  C   UNL     1      -2.946   4.824 -31.559  1.00  0.00     0.179 C 
HETATM   13  N   UNL     1      -3.495   2.587 -32.071  1.00  0.00    -0.172 NA
HETATM   14  C   UNL     1      -4.591   1.852 -32.280  1.00  0.00     0.089 C 
HETATM   15  C   UNL     1      -5.724   2.558 -31.819  1.00  0.00     0.061 C 
BRANCH  14  16
HETATM   16  C   UNL     1      -4.551   0.496 -32.830  1.00  0.00    -0.005 A 
HETATM   17  C   UNL     1      -5.692  -0.063 -33.425  1.00  0.00     0.026 A 
HETATM   18  C   UNL     1      -5.698  -1.392 -33.887  1.00  0.00    -0.025 A 
HETATM   19  C   UNL     1      -4.530  -2.175 -33.754  1.00  0.00    -0.026 A 
HETATM   20  C   UNL     1      -6.844  -1.958 -34.469  1.00  0.00     0.012 A 
HETATM   21  C   UNL     1      -3.383  -1.603 -33.183  1.00  0.00     0.013 A 
HETATM   22  C   UNL     1      -4.545  -3.508 -34.194  1.00  0.00     0.012 A 
HETATM   23  C   UNL     1      -3.393  -0.280 -32.729  1.00  0.00     0.014 A 
HETATM   24  C   UNL     1      -5.695  -4.059 -34.763  1.00  0.00     0.001 A 
HETATM   25  C   UNL     1      -6.842  -3.284 -34.903  1.00  0.00     0.001 A 
ENDBRANCH  14  16
ENDBRANCH   1  10
BRANCH   4  26
HETATM   26  C   UNL     1      -9.490   4.016 -32.335  1.00  0.00     0.157 C 
BRANCH  26  27
HETATM   27  N   UNL     1     -10.575   3.050 -32.396  1.00  0.00    -0.341 N 
HETATM   28  C   UNL     1     -11.874   3.348 -32.679  1.00  0.00     0.318 C 
HETATM   29  N   UNL     1     -12.663   2.279 -33.051  1.00  0.00    -0.330 N 
HETATM   30  O   UNL     1     -12.288   4.503 -32.578  1.00  0.00    -0.247 OA
HETATM   31  C   UNL     1     -12.126   1.110 -33.774  1.00  0.00     0.153 C 
HETATM   32  C   UNL     1     -14.058   2.581 -33.397  1.00  0.00     0.153 C 
HETATM   33  C   UNL     1     -13.093  -0.078 -33.745  1.00  0.00     0.187 C 
HETATM   34  O   UNL     1     -14.390   0.305 -34.213  1.00  0.00    -0.388 OA
HETATM   35  C   UNL     1     -14.940   1.332 -33.378  1.00  0.00     0.187 C 
HETATM   36  H   UNL     1     -10.365   2.089 -32.164  1.00  0.00     0.164 HD
ENDBRANCH  26  27
ENDBRANCH   4  26
TORSDOF 4
ENDMDL
