MODEL 1
REMARK VINA RESULT:      -8.2      0.000      0.000
REMARK  3 active torsions:
REMARK  status: ('A' for Active; 'I' for Inactive)
REMARK    1  A    between atoms: C_5  and  N_6 
REMARK       I    between atoms: N_6  and  C_7 
REMARK    2  A    between atoms: C_7  and  C_8 
REMARK    3  A    between atoms: C_8  and  C_9 
ROOT
HETATM    1  C   UNL     1      -5.601   2.863 -31.685  1.00  0.00     0.286 C 
HETATM    2  N   UNL     1      -6.791   2.056 -31.147  1.00  0.00    -0.056 N 
HETATM    3  H   UNL     1      -6.440   1.329 -30.502  1.00  0.00     0.278 HD
HETATM    4  H   UNL     1      -7.388   2.681 -30.590  1.00  0.00     0.278 HD
HETATM    5  C   UNL     1      -7.626   1.362 -32.195  1.00  0.00     0.209 C 
HETATM    6  C   UNL     1      -7.997   2.354 -33.312  1.00  0.00     0.115 C 
HETATM    7  N   UNL     1      -6.824   3.007 -33.864  1.00  0.00    -0.353 N 
HETATM    8  C   UNL     1      -5.743   3.397 -33.124  1.00  0.00     0.249 C 
HETATM    9  O   UNL     1      -4.871   4.096 -33.634  1.00  0.00    -0.271 OA
HETATM   10  C   UNL     1      -8.879   0.776 -31.551  1.00  0.00     0.035 C 
HETATM   11  C   UNL     1      -9.721   0.058 -32.606  1.00  0.00     0.002 C 
HETATM   12  C   UNL     1     -10.034   0.948 -33.811  1.00  0.00     0.002 C 
HETATM   13  C   UNL     1      -8.786   1.613 -34.395  1.00  0.00     0.027 C 
HETATM   14  H   UNL     1      -6.879   3.437 -34.786  1.00  0.00     0.163 HD
ENDROOT
BRANCH   1  15
HETATM   15  C   UNL     1      -4.275   2.109 -31.533  1.00  0.00     0.146 C 
BRANCH  15  16
HETATM   16  C   UNL     1      -4.531   0.634 -31.692  1.00  0.00     0.224 C 
HETATM   17  N   UNL     1      -4.445   0.196 -32.994  1.00  0.00    -0.327 N 
HETATM   18  H   UNL     1      -3.968   0.791 -33.669  1.00  0.00     0.169 HD
HETATM   19  O   UNL     1      -4.956   0.017 -30.717  1.00  0.00    -0.273 OA
BRANCH  17  20
HETATM   20  C   UNL     1      -5.031  -0.965 -33.544  1.00  0.00     0.034 A 
HETATM   21  C   UNL     1      -6.314  -1.009 -34.090  1.00  0.00     0.030 A 
HETATM   22  C   UNL     1      -6.782  -2.176 -34.706  1.00  0.00     0.009 A 
HETATM   23  C   UNL     1      -5.983  -3.322 -34.768  1.00  0.00    -0.062 A 
HETATM   24  C   UNL     1      -6.469  -4.555 -35.472  1.00  0.00     0.048 C 
HETATM   25  C   UNL     1      -4.703  -3.281 -34.210  1.00  0.00     0.009 A 
HETATM   26  C   UNL     1      -4.234  -2.114 -33.598  1.00  0.00     0.030 A 
ENDBRANCH  17  20
ENDBRANCH  15  16
ENDBRANCH   1  15
TORSDOF 3
ENDMDL
MODEL 2
REMARK VINA RESULT:      -8.2      1.448      1.918
REMARK  3 active torsions:
REMARK  status: ('A' for Active; 'I' for Inactive)
REMARK    1  A    between atoms: C_5  and  N_6 
REMARK       I    between atoms: N_6  and  C_7 
REMARK    2  A    between atoms: C_7  and  C_8 
REMARK    3  A    between atoms: C_8  and  C_9 
ROOT
HETATM    1  C   UNL     1      -6.747   2.221 -30.545  1.00  0.00     0.286 C 
HETATM    2  N   UNL     1      -7.658   1.078 -31.013  1.00  0.00    -0.056 N 
HETATM    3  H   UNL     1      -7.072   0.305 -31.367  1.00  0.00     0.278 HD
HETATM    4  H   UNL     1      -8.171   0.711 -30.201  1.00  0.00     0.278 HD
HETATM    5  C   UNL     1      -8.633   1.438 -32.106  1.00  0.00     0.209 C 
HETATM    6  C   UNL     1      -9.389   2.727 -31.732  1.00  0.00     0.115 C 
HETATM    7  N   UNL     1      -8.478   3.809 -31.408  1.00  0.00    -0.353 N 
HETATM    8  C   UNL     1      -7.305   3.647 -30.726  1.00  0.00     0.249 C 
HETATM    9  O   UNL     1      -6.678   4.631 -30.339  1.00  0.00    -0.271 OA
HETATM   10  C   UNL     1      -9.607   0.285 -32.330  1.00  0.00     0.035 C 
HETATM   11  C   UNL     1     -10.588   0.638 -33.449  1.00  0.00     0.002 C 
HETATM   12  C   UNL     1     -11.295   1.973 -33.206  1.00  0.00     0.002 C 
HETATM   13  C   UNL     1     -10.323   3.109 -32.884  1.00  0.00     0.027 C 
HETATM   14  H   UNL     1      -8.812   4.771 -31.445  1.00  0.00     0.163 HD
ENDROOT
BRANCH   1  15
HETATM   15  C   UNL     1      -5.341   2.126 -31.150  1.00  0.00     0.146 C 
BRANCH  15  16
HETATM   16  C   UNL     1      -5.073   0.696 -31.538  1.00  0.00     0.224 C 
HETATM   17  N   UNL     1      -5.062   0.487 -32.899  1.00  0.00    -0.327 N 
HETATM   18  H   UNL     1      -4.954   1.295 -33.507  1.00  0.00     0.169 HD
HETATM   19  O   UNL     1      -5.073  -0.150 -30.647  1.00  0.00    -0.273 OA
BRANCH  17  20
HETATM   20  C   UNL     1      -5.276  -0.734 -33.575  1.00  0.00     0.034 A 
HETATM   21  C   UNL     1      -4.295  -1.710 -33.756  1.00  0.00     0.030 A 
HETATM   22  C   UNL     1      -4.616  -2.937 -34.349  1.00  0.00     0.009 A 
HETATM   23  C   UNL     1      -5.917  -3.199 -34.789  1.00  0.00    -0.062 A 
HETATM   24  C   UNL     1      -6.270  -4.533 -35.380  1.00  0.00     0.048 C 
HETATM   25  C   UNL     1      -6.897  -2.217 -34.618  1.00  0.00     0.009 A 
HETATM   26  C   UNL     1      -6.576  -0.993 -34.022  1.00  0.00     0.030 A 
ENDBRANCH  17  20
ENDBRANCH  15  16
ENDBRANCH   1  15
TORSDOF 3
ENDMDL
MODEL 3
REMARK VINA RESULT:      -8.1      2.926      4.954
REMARK  3 active torsions:
REMARK  status: ('A' for Active; 'I' for Inactive)
REMARK    1  A    between atoms: C_5  and  N_6 
REMARK       I    between atoms: N_6  and  C_7 
REMARK    2  A    between atoms: C_7  and  C_8 
REMARK    3  A    between atoms: C_8  and  C_9 
ROOT
HETATM    1  C   UNL     1      -4.325   3.417 -33.015  1.00  0.00     0.286 C 
HETATM    2  N   UNL     1      -2.926   3.556 -32.398  1.00  0.00    -0.056 N 
HETATM    3  H   UNL     1      -2.902   3.043 -31.502  1.00  0.00     0.278 HD
HETATM    4  H   UNL     1      -2.245   3.099 -33.018  1.00  0.00     0.278 HD
HETATM    5  C   UNL     1      -2.483   4.970 -32.117  1.00  0.00     0.209 C 
HETATM    6  C   UNL     1      -2.707   5.847 -33.363  1.00  0.00     0.115 C 
HETATM    7  N   UNL     1      -4.076   5.767 -33.838  1.00  0.00    -0.353 N 
HETATM    8  C   UNL     1      -4.824   4.624 -33.834  1.00  0.00     0.249 C 
HETATM    9  O   UNL     1      -5.908   4.597 -34.412  1.00  0.00    -0.271 OA
HETATM   10  C   UNL     1      -1.014   4.979 -31.705  1.00  0.00     0.035 C 
HETATM   11  C   UNL     1      -0.564   6.409 -31.404  1.00  0.00     0.002 C 
HETATM   12  C   UNL     1      -0.863   7.371 -32.556  1.00  0.00     0.002 C 
HETATM   13  C   UNL     1      -2.313   7.291 -33.034  1.00  0.00     0.027 C 
HETATM   14  H   UNL     1      -4.440   6.504 -34.440  1.00  0.00     0.163 HD
ENDROOT
BRANCH   1  15
HETATM   15  C   UNL     1      -5.378   3.015 -31.976  1.00  0.00     0.146 C 
BRANCH  15  16
HETATM   16  C   UNL     1      -5.484   1.513 -31.944  1.00  0.00     0.224 C 
HETATM   17  N   UNL     1      -5.124   0.909 -33.127  1.00  0.00    -0.327 N 
HETATM   18  H   UNL     1      -4.578   1.450 -33.794  1.00  0.00     0.169 HD
HETATM   19  O   UNL     1      -6.034   0.998 -30.973  1.00  0.00    -0.273 OA
BRANCH  17  20
HETATM   20  C   UNL     1      -5.505  -0.373 -33.581  1.00  0.00     0.034 A 
HETATM   21  C   UNL     1      -6.786  -0.692 -34.036  1.00  0.00     0.030 A 
HETATM   22  C   UNL     1      -7.054  -1.960 -34.564  1.00  0.00     0.009 A 
HETATM   23  C   UNL     1      -6.054  -2.935 -34.626  1.00  0.00    -0.062 A 
HETATM   24  C   UNL     1      -6.332  -4.278 -35.237  1.00  0.00     0.048 C 
HETATM   25  C   UNL     1      -4.775  -2.619 -34.159  1.00  0.00     0.009 A 
HETATM   26  C   UNL     1      -4.506  -1.350 -33.636  1.00  0.00     0.030 A 
ENDBRANCH  17  20
ENDBRANCH  15  16
ENDBRANCH   1  15
TORSDOF 3
ENDMDL
MODEL 4
REMARK VINA RESULT:      -8.1      3.205      5.464
REMARK  3 active torsions:
REMARK  status: ('A' for Active; 'I' for Inactive)
REMARK    1  A    between atoms: C_5  and  N_6 
REMARK       I    between atoms: N_6  and  C_7 
REMARK    2  A    between atoms: C_7  and  C_8 
REMARK    3  A    between atoms: C_8  and  C_9 
ROOT
HETATM    1  C   UNL     1      -4.273   3.663 -31.828  1.00  0.00     0.286 C 
HETATM    2  N   UNL     1      -2.899   4.016 -32.417  1.00  0.00    -0.056 N 
HETATM    3  H   UNL     1      -2.413   3.145 -32.682  1.00  0.00     0.278 HD
HETATM    4  H   UNL     1      -3.040   4.551 -33.283  1.00  0.00     0.278 HD
HETATM    5  C   UNL     1      -1.981   4.780 -31.495  1.00  0.00     0.209 C 
HETATM    6  C   UNL     1      -2.728   5.980 -30.886  1.00  0.00     0.115 C 
HETATM    7  N   UNL     1      -3.964   5.574 -30.242  1.00  0.00    -0.353 N 
HETATM    8  C   UNL     1      -4.795   4.600 -30.722  1.00  0.00     0.249 C 
HETATM    9  O   UNL     1      -5.903   4.437 -30.218  1.00  0.00    -0.271 OA
HETATM   10  C   UNL     1      -0.747   5.243 -32.264  1.00  0.00     0.035 C 
HETATM   11  C   UNL     1       0.196   6.003 -31.331  1.00  0.00     0.002 C 
HETATM   12  C   UNL     1      -0.507   7.146 -30.594  1.00  0.00     0.002 C 
HETATM   13  C   UNL     1      -1.798   6.700 -29.904  1.00  0.00     0.027 C 
HETATM   14  H   UNL     1      -4.392   6.187 -29.550  1.00  0.00     0.163 HD
ENDROOT
BRANCH   1  15
HETATM   15  C   UNL     1      -4.342   2.205 -31.358  1.00  0.00     0.146 C 
BRANCH  15  16
HETATM   16  C   UNL     1      -5.081   1.393 -32.389  1.00  0.00     0.224 C 
HETATM   17  N   UNL     1      -5.126   0.048 -32.103  1.00  0.00    -0.327 N 
HETATM   18  H   UNL     1      -4.928  -0.246 -31.149  1.00  0.00     0.169 HD
HETATM   19  O   UNL     1      -5.400   1.951 -33.437  1.00  0.00    -0.273 OA
BRANCH  17  20
HETATM   20  C   UNL     1      -5.331  -1.011 -33.014  1.00  0.00     0.034 A 
HETATM   21  C   UNL     1      -4.328  -1.884 -33.438  1.00  0.00     0.030 A 
HETATM   22  C   UNL     1      -4.636  -2.970 -34.265  1.00  0.00     0.009 A 
HETATM   23  C   UNL     1      -5.947  -3.190 -34.697  1.00  0.00    -0.062 A 
HETATM   24  C   UNL     1      -6.282  -4.383 -35.544  1.00  0.00     0.048 C 
HETATM   25  C   UNL     1      -6.950  -2.310 -34.283  1.00  0.00     0.009 A 
HETATM   26  C   UNL     1      -6.642  -1.227 -33.453  1.00  0.00     0.030 A 
ENDBRANCH  17  20
ENDBRANCH  15  16
ENDBRANCH   1  15
TORSDOF 3
ENDMDL
MODEL 5
REMARK VINA RESULT:      -7.9      4.174      7.338
REMARK  3 active torsions:
REMARK  status: ('A' for Active; 'I' for Inactive)
REMARK    1  A    between atoms: C_5  and  N_6 
REMARK       I    between atoms: N_6  and  C_7 
REMARK    2  A    between atoms: C_7  and  C_8 
REMARK    3  A    between atoms: C_8  and  C_9 
ROOT
HETATM    1  C   UNL     1      -5.044   3.377 -32.746  1.00  0.00     0.286 C 
HETATM    2  N   UNL     1      -4.937   1.918 -32.278  1.00  0.00    -0.056 N 
HETATM    3  H   UNL     1      -3.964   1.729 -31.987  1.00  0.00     0.278 HD
HETATM    4  H   UNL     1      -5.524   1.796 -31.442  1.00  0.00     0.278 HD
HETATM    5  C   UNL     1      -5.307   0.882 -33.309  1.00  0.00     0.209 C 
HETATM    6  C   UNL     1      -6.663   1.236 -33.947  1.00  0.00     0.115 C 
HETATM    7  N   UNL     1      -6.672   2.588 -34.475  1.00  0.00    -0.353 N 
HETATM    8  C   UNL     1      -6.056   3.650 -33.876  1.00  0.00     0.249 C 
HETATM    9  O   UNL     1      -6.256   4.790 -34.290  1.00  0.00    -0.271 OA
HETATM   10  C   UNL     1      -5.358  -0.498 -32.659  1.00  0.00     0.035 C 
HETATM   11  C   UNL     1      -5.717  -1.556 -33.704  1.00  0.00     0.002 C 
HETATM   12  C   UNL     1      -6.998  -1.212 -34.468  1.00  0.00     0.002 C 
HETATM   13  C   UNL     1      -6.986   0.208 -35.036  1.00  0.00     0.027 C 
HETATM   14  H   UNL     1      -7.365   2.846 -35.177  1.00  0.00     0.163 HD
ENDROOT
BRANCH   1  15
HETATM   15  C   UNL     1      -3.677   3.968 -33.110  1.00  0.00     0.146 C 
BRANCH  15  16
HETATM   16  C   UNL     1      -2.904   4.229 -31.844  1.00  0.00     0.224 C 
HETATM   17  N   UNL     1      -2.700   5.566 -31.589  1.00  0.00    -0.327 N 
HETATM   18  H   UNL     1      -3.285   6.242 -32.075  1.00  0.00     0.169 HD
HETATM   19  O   UNL     1      -2.389   3.267 -31.279  1.00  0.00    -0.273 OA
BRANCH  17  20
HETATM   20  C   UNL     1      -1.691   6.135 -30.781  1.00  0.00     0.034 A 
HETATM   21  C   UNL     1      -0.335   6.142 -31.113  1.00  0.00     0.030 A 
HETATM   22  C   UNL     1       0.589   6.816 -30.305  1.00  0.00     0.009 A 
HETATM   23  C   UNL     1       0.175   7.476 -29.144  1.00  0.00    -0.062 A 
HETATM   24  C   UNL     1       1.160   8.238 -28.306  1.00  0.00     0.048 C 
HETATM   25  C   UNL     1      -1.181   7.458 -28.805  1.00  0.00     0.009 A 
HETATM   26  C   UNL     1      -2.104   6.788 -29.615  1.00  0.00     0.030 A 
ENDBRANCH  17  20
ENDBRANCH  15  16
ENDBRANCH   1  15
TORSDOF 3
ENDMDL
MODEL 6
REMARK VINA RESULT:      -7.8      1.670      5.732
REMARK  3 active torsions:
REMARK  status: ('A' for Active; 'I' for Inactive)
REMARK    1  A    between atoms: C_5  and  N_6 
REMARK       I    between atoms: N_6  and  C_7 
REMARK    2  A    between atoms: C_7  and  C_8 
REMARK    3  A    between atoms: C_8  and  C_9 
ROOT
HETATM    1  C   UNL     1      -4.630  -0.063 -32.697  1.00  0.00     0.286 C 
HETATM    2  N   UNL     1      -5.507  -0.730 -33.766  1.00  0.00    -0.056 N 
HETATM    3  H   UNL     1      -6.477  -0.390 -33.666  1.00  0.00     0.278 HD
HETATM    4  H   UNL     1      -5.184  -0.428 -34.694  1.00  0.00     0.278 HD
HETATM    5  C   UNL     1      -5.553  -2.237 -33.714  1.00  0.00     0.209 C 
HETATM    6  C   UNL     1      -4.123  -2.803 -33.636  1.00  0.00     0.115 C 
HETATM    7  N   UNL     1      -3.374  -2.221 -32.537  1.00  0.00    -0.353 N 
HETATM    8  C   UNL     1      -3.465  -0.913 -32.154  1.00  0.00     0.249 C 
HETATM    9  O   UNL     1      -2.672  -0.457 -31.332  1.00  0.00    -0.271 OA
HETATM   10  C   UNL     1      -6.282  -2.774 -34.942  1.00  0.00     0.035 C 
HETATM   11  C   UNL     1      -6.346  -4.301 -34.886  1.00  0.00     0.002 C 
HETATM   12  C   UNL     1      -4.967  -4.937 -34.689  1.00  0.00     0.002 C 
HETATM   13  C   UNL     1      -4.197  -4.328 -33.516  1.00  0.00     0.027 C 
HETATM   14  H   UNL     1      -2.552  -2.707 -32.180  1.00  0.00     0.163 HD
ENDROOT
BRANCH   1  15
HETATM   15  C   UNL     1      -5.460   0.496 -31.535  1.00  0.00     0.146 C 
BRANCH  15  16
HETATM   16  C   UNL     1      -6.590   1.320 -32.093  1.00  0.00     0.224 C 
HETATM   17  N   UNL     1      -7.822   0.988 -31.576  1.00  0.00    -0.327 N 
HETATM   18  H   UNL     1      -7.850   0.454 -30.710  1.00  0.00     0.169 HD
HETATM   19  O   UNL     1      -6.348   2.052 -33.050  1.00  0.00    -0.273 OA
BRANCH  17  20
HETATM   20  C   UNL     1      -9.084   1.228 -32.161  1.00  0.00     0.034 A 
HETATM   21  C   UNL     1      -9.650   2.495 -32.308  1.00  0.00     0.030 A 
HETATM   22  C   UNL     1     -10.862   2.656 -32.990  1.00  0.00     0.009 A 
HETATM   23  C   UNL     1     -11.535   1.551 -33.521  1.00  0.00    -0.062 A 
HETATM   24  C   UNL     1     -12.809   1.732 -34.294  1.00  0.00     0.048 C 
HETATM   25  C   UNL     1     -10.974   0.281 -33.364  1.00  0.00     0.009 A 
HETATM   26  C   UNL     1      -9.762   0.121 -32.685  1.00  0.00     0.030 A 
ENDBRANCH  17  20
ENDBRANCH  15  16
ENDBRANCH   1  15
TORSDOF 3
ENDMDL
MODEL 7
REMARK VINA RESULT:      -7.6      1.757      4.132
REMARK  3 active torsions:
REMARK  status: ('A' for Active; 'I' for Inactive)
REMARK    1  A    between atoms: C_5  and  N_6 
REMARK       I    between atoms: N_6  and  C_7 
REMARK    2  A    between atoms: C_7  and  C_8 
REMARK    3  A    between atoms: C_8  and  C_9 
ROOT
HETATM    1  C   UNL     1      -8.208   2.198 -33.110  1.00  0.00     0.286 C 
HETATM    2  N   UNL     1      -7.552   3.458 -33.694  1.00  0.00    -0.056 N 
HETATM    3  H   UNL     1      -7.902   3.605 -34.654  1.00  0.00     0.278 HD
HETATM    4  H   UNL     1      -7.854   4.272 -33.143  1.00  0.00     0.278 HD
HETATM    5  C   UNL     1      -6.046   3.426 -33.764  1.00  0.00     0.209 C 
HETATM    6  C   UNL     1      -5.466   2.992 -32.405  1.00  0.00     0.115 C 
HETATM    7  N   UNL     1      -6.037   1.736 -31.954  1.00  0.00    -0.353 N 
HETATM    8  C   UNL     1      -7.346   1.382 -32.128  1.00  0.00     0.249 C 
HETATM    9  O   UNL     1      -7.791   0.384 -31.565  1.00  0.00    -0.271 OA
HETATM   10  C   UNL     1      -5.519   4.802 -34.163  1.00  0.00     0.035 C 
HETATM   11  C   UNL     1      -3.993   4.772 -34.251  1.00  0.00     0.002 C 
HETATM   12  C   UNL     1      -3.343   4.235 -32.974  1.00  0.00     0.002 C 
HETATM   13  C   UNL     1      -3.941   2.902 -32.520  1.00  0.00     0.027 C 
HETATM   14  H   UNL     1      -5.543   1.186 -31.253  1.00  0.00     0.163 HD
ENDROOT
BRANCH   1  15
HETATM   15  C   UNL     1      -8.772   1.281 -34.202  1.00  0.00     0.146 C 
BRANCH  15  16
HETATM   16  C   UNL     1      -7.651   0.447 -34.766  1.00  0.00     0.224 C 
HETATM   17  N   UNL     1      -7.634  -0.845 -34.291  1.00  0.00    -0.327 N 
HETATM   18  H   UNL     1      -8.478  -1.206 -33.853  1.00  0.00     0.169 HD
HETATM   19  O   UNL     1      -6.785   1.020 -35.423  1.00  0.00    -0.273 OA
BRANCH  17  20
HETATM   20  C   UNL     1      -6.530  -1.725 -34.257  1.00  0.00     0.034 A 
HETATM   21  C   UNL     1      -5.312  -1.428 -33.644  1.00  0.00     0.030 A 
HETATM   22  C   UNL     1      -4.303  -2.395 -33.566  1.00  0.00     0.009 A 
HETATM   23  C   UNL     1      -4.488  -3.666 -34.117  1.00  0.00    -0.062 A 
HETATM   24  C   UNL     1      -3.423  -4.717 -33.990  1.00  0.00     0.048 C 
HETATM   25  C   UNL     1      -5.703  -3.960 -34.741  1.00  0.00     0.009 A 
HETATM   26  C   UNL     1      -6.712  -2.995 -34.815  1.00  0.00     0.030 A 
ENDBRANCH  17  20
ENDBRANCH  15  16
ENDBRANCH   1  15
TORSDOF 3
ENDMDL
MODEL 8
REMARK VINA RESULT:      -7.5      3.136      6.633
REMARK  3 active torsions:
REMARK  status: ('A' for Active; 'I' for Inactive)
REMARK    1  A    between atoms: C_5  and  N_6 
REMARK       I    between atoms: N_6  and  C_7 
REMARK    2  A    between atoms: C_7  and  C_8 
REMARK    3  A    between atoms: C_8  and  C_9 
ROOT
HETATM    1  C   UNL     1      -6.282   1.157 -32.312  1.00  0.00     0.286 C 
HETATM    2  N   UNL     1      -5.156   0.122 -32.446  1.00  0.00    -0.056 N 
HETATM    3  H   UNL     1      -4.260   0.615 -32.586  1.00  0.00     0.278 HD
HETATM    4  H   UNL     1      -5.074  -0.392 -31.559  1.00  0.00     0.278 HD
HETATM    5  C   UNL     1      -5.312  -0.857 -33.583  1.00  0.00     0.209 C 
HETATM    6  C   UNL     1      -6.725  -1.469 -33.560  1.00  0.00     0.115 C 
HETATM    7  N   UNL     1      -7.754  -0.445 -33.549  1.00  0.00    -0.353 N 
HETATM    8  C   UNL     1      -7.657   0.733 -32.863  1.00  0.00     0.249 C 
HETATM    9  O   UNL     1      -8.638   1.467 -32.762  1.00  0.00    -0.271 OA
HETATM   10  C   UNL     1      -4.248  -1.946 -33.477  1.00  0.00     0.035 C 
HETATM   11  C   UNL     1      -4.392  -2.932 -34.638  1.00  0.00     0.002 C 
HETATM   12  C   UNL     1      -5.809  -3.496 -34.753  1.00  0.00     0.002 C 
HETATM   13  C   UNL     1      -6.883  -2.406 -34.761  1.00  0.00     0.027 C 
HETATM   14  H   UNL     1      -8.701  -0.685 -33.839  1.00  0.00     0.163 HD
ENDROOT
BRANCH   1  15
HETATM   15  C   UNL     1      -5.883   2.522 -32.887  1.00  0.00     0.146 C 
BRANCH  15  16
HETATM   16  C   UNL     1      -4.954   3.206 -31.920  1.00  0.00     0.224 C 
HETATM   17  N   UNL     1      -4.287   4.281 -32.463  1.00  0.00    -0.327 N 
HETATM   18  H   UNL     1      -4.653   4.687 -33.322  1.00  0.00     0.169 HD
HETATM   19  O   UNL     1      -4.743   2.658 -30.840  1.00  0.00    -0.273 OA
BRANCH  17  20
HETATM   20  C   UNL     1      -3.075   4.849 -32.013  1.00  0.00     0.034 A 
HETATM   21  C   UNL     1      -1.830   4.591 -32.587  1.00  0.00     0.030 A 
HETATM   22  C   UNL     1      -0.690   5.273 -32.145  1.00  0.00     0.009 A 
HETATM   23  C   UNL     1      -0.774   6.209 -31.110  1.00  0.00    -0.062 A 
HETATM   24  C   UNL     1       0.441   6.974 -30.671  1.00  0.00     0.048 C 
HETATM   25  C   UNL     1      -2.019   6.459 -30.526  1.00  0.00     0.009 A 
HETATM   26  C   UNL     1      -3.158   5.780 -30.971  1.00  0.00     0.030 A 
ENDBRANCH  17  20
ENDBRANCH  15  16
ENDBRANCH   1  15
TORSDOF 3
ENDMDL
MODEL 9
REMARK VINA RESULT:      -7.5      4.034      6.497
REMARK  3 active torsions:
REMARK  status: ('A' for Active; 'I' for Inactive)
REMARK    1  A    between atoms: C_5  and  N_6 
REMARK       I    between atoms: N_6  and  C_7 
REMARK    2  A    between atoms: C_7  and  C_8 
REMARK    3  A    between atoms: C_8  and  C_9 
ROOT
HETATM    1  C   UNL     1      -3.542   5.003 -31.731  1.00  0.00     0.286 C 
HETATM    2  N   UNL     1      -3.371   5.797 -30.428  1.00  0.00    -0.056 N 
HETATM    3  H   UNL     1      -4.176   6.435 -30.315  1.00  0.00     0.278 HD
HETATM    4  H   UNL     1      -3.401   5.142 -29.636  1.00  0.00     0.278 HD
HETATM    5  C   UNL     1      -2.119   6.634 -30.343  1.00  0.00     0.209 C 
HETATM    6  C   UNL     1      -0.893   5.785 -30.723  1.00  0.00     0.115 C 
HETATM    7  N   UNL     1      -1.060   5.148 -32.016  1.00  0.00    -0.353 N 
HETATM    8  C   UNL     1      -2.242   4.634 -32.472  1.00  0.00     0.249 C 
HETATM    9  O   UNL     1      -2.262   3.958 -33.497  1.00  0.00    -0.271 OA
HETATM   10  C   UNL     1      -1.971   7.200 -28.934  1.00  0.00     0.035 C 
HETATM   11  C   UNL     1      -0.712   8.064 -28.846  1.00  0.00     0.002 C 
HETATM   12  C   UNL     1       0.539   7.322 -29.323  1.00  0.00     0.002 C 
HETATM   13  C   UNL     1       0.356   6.672 -30.695  1.00  0.00     0.027 C 
HETATM   14  H   UNL     1      -0.238   4.821 -32.522  1.00  0.00     0.163 HD
ENDROOT
BRANCH   1  15
HETATM   15  C   UNL     1      -4.523   5.679 -32.695  1.00  0.00     0.146 C 
BRANCH  15  16
HETATM   16  C   UNL     1      -5.305   4.617 -33.422  1.00  0.00     0.224 C 
HETATM   17  N   UNL     1      -5.497   3.472 -32.683  1.00  0.00    -0.327 N 
HETATM   18  H   UNL     1      -5.364   3.524 -31.676  1.00  0.00     0.169 HD
HETATM   19  O   UNL     1      -5.528   4.787 -34.619  1.00  0.00    -0.273 OA
BRANCH  17  20
HETATM   20  C   UNL     1      -5.778   2.178 -33.174  1.00  0.00     0.034 A 
HETATM   21  C   UNL     1      -6.764   1.898 -34.121  1.00  0.00     0.030 A 
HETATM   22  C   UNL     1      -6.910   0.602 -34.630  1.00  0.00     0.009 A 
HETATM   23  C   UNL     1      -6.087  -0.437 -34.187  1.00  0.00    -0.062 A 
HETATM   24  C   UNL     1      -6.214  -1.815 -34.770  1.00  0.00     0.048 C 
HETATM   25  C   UNL     1      -5.107  -0.160 -33.230  1.00  0.00     0.009 A 
HETATM   26  C   UNL     1      -4.959   1.136 -32.724  1.00  0.00     0.030 A 
ENDBRANCH  17  20
ENDBRANCH  15  16
ENDBRANCH   1  15
TORSDOF 3
ENDMDL
MODEL 10
REMARK VINA RESULT:      -7.5     14.241     16.864
REMARK  3 active torsions:
REMARK  status: ('A' for Active; 'I' for Inactive)
REMARK    1  A    between atoms: C_5  and  N_6 
REMARK       I    between atoms: N_6  and  C_7 
REMARK    2  A    between atoms: C_7  and  C_8 
REMARK    3  A    between atoms: C_8  and  C_9 
ROOT
HETATM    1  C   UNL     1      -1.091 -13.485 -39.131  1.00  0.00     0.286 C 
HETATM    2  N   UNL     1      -2.025 -13.467 -40.349  1.00  0.00    -0.056 N 
HETATM    3  H   UNL     1      -2.923 -13.035 -40.079  1.00  0.00     0.278 HD
HETATM    4  H   UNL     1      -1.613 -12.863 -41.072  1.00  0.00     0.278 HD
HETATM    5  C   UNL     1      -2.338 -14.819 -40.941  1.00  0.00     0.209 C 
HETATM    6  C   UNL     1      -1.035 -15.610 -41.163  1.00  0.00     0.115 C 
HETATM    7  N   UNL     1      -0.244 -15.693 -39.949  1.00  0.00    -0.353 N 
HETATM    8  C   UNL     1      -0.119 -14.678 -39.043  1.00  0.00     0.249 C 
HETATM    9  O   UNL     1       0.705 -14.764 -38.135  1.00  0.00    -0.271 OA
HETATM   10  C   UNL     1      -3.096 -14.645 -42.254  1.00  0.00     0.035 C 
HETATM   11  C   UNL     1      -3.430 -16.013 -42.850  1.00  0.00     0.002 C 
HETATM   12  C   UNL     1      -2.196 -16.906 -42.992  1.00  0.00     0.002 C 
HETATM   13  C   UNL     1      -1.382 -17.001 -41.701  1.00  0.00     0.027 C 
HETATM   14  H   UNL     1       0.463 -16.422 -39.863  1.00  0.00     0.163 HD
ENDROOT
BRANCH   1  15
HETATM   15  C   UNL     1      -1.859 -13.335 -37.812  1.00  0.00     0.146 C 
BRANCH  15  16
HETATM   16  C   UNL     1      -3.090 -12.502 -38.056  1.00  0.00     0.224 C 
HETATM   17  N   UNL     1      -4.259 -13.230 -38.043  1.00  0.00    -0.327 N 
HETATM   18  H   UNL     1      -4.243 -14.154 -37.616  1.00  0.00     0.169 HD
HETATM   19  O   UNL     1      -2.933 -11.337 -38.412  1.00  0.00    -0.273 OA
BRANCH  17  20
HETATM   20  C   UNL     1      -5.488 -12.880 -38.644  1.00  0.00     0.034 A 
HETATM   21  C   UNL     1      -5.641 -12.600 -40.003  1.00  0.00     0.030 A 
HETATM   22  C   UNL     1      -6.912 -12.359 -40.537  1.00  0.00     0.009 A 
HETATM   23  C   UNL     1      -8.046 -12.376 -39.720  1.00  0.00    -0.062 A 
HETATM   24  C   UNL     1      -9.413 -12.166 -40.305  1.00  0.00     0.048 C 
HETATM   25  C   UNL     1      -7.891 -12.644 -38.357  1.00  0.00     0.009 A 
HETATM   26  C   UNL     1      -6.621 -12.888 -37.824  1.00  0.00     0.030 A 
ENDBRANCH  17  20
ENDBRANCH  15  16
ENDBRANCH   1  15
TORSDOF 3
ENDMDL
