MODEL 1
REMARK VINA RESULT:      -9.2      0.000      0.000
REMARK  6 active torsions:
REMARK  status: ('A' for Active; 'I' for Inactive)
REMARK    1  A    between atoms: C_2  and  C_3 
REMARK    2  A    between atoms: C_3  and  C_4 
REMARK    3  A    between atoms: C_3  and  C_10 
REMARK    4  A    between atoms: C_10  and  C_11 
REMARK       I    between atoms: C_11  and  N_12 
REMARK    5  A    between atoms: N_12  and  C_13 
REMARK    6  A    between atoms: C_20  and  C_21 
REMARK       I    between atoms: C_21  and  N_22 
ROOT
HETATM    1  C   UNL     1      -3.952   3.414 -32.804  1.00  0.00     0.035 A 
HETATM    2  C   UNL     1      -2.777   3.685 -32.091  1.00  0.00     0.046 A 
HETATM    3  C   UNL     1      -2.113   4.917 -32.288  1.00  0.00     0.030 A 
HETATM    4  C   UNL     1      -2.636   5.824 -33.201  1.00  0.00     0.063 A 
HETATM    5  N   UNL     1      -1.786   6.892 -33.183  1.00  0.00    -0.277 N 
HETATM    6  H   UNL     1      -1.855   7.741 -33.733  1.00  0.00     0.189 HD
HETATM    7  N   UNL     1      -0.762   6.774 -32.323  1.00  0.00    -0.168 NA
HETATM    8  C   UNL     1      -0.951   5.559 -31.760  1.00  0.00     0.156 A 
HETATM    9  C   UNL     1      -3.801   5.585 -33.930  1.00  0.00     0.034 A 
HETATM   10  C   UNL     1      -4.451   4.366 -33.706  1.00  0.00     0.032 A 
ENDROOT
BRANCH   1  11
HETATM   11  N   UNL     1      -4.700   2.225 -32.672  1.00  0.00    -0.327 N 
HETATM   12  C   UNL     1      -4.232   0.925 -32.642  1.00  0.00     0.222 C 
HETATM   13  O   UNL     1      -3.055   0.578 -32.696  1.00  0.00    -0.273 OA
HETATM   14  H   UNL     1      -5.701   2.349 -32.648  1.00  0.00     0.169 HD
BRANCH  12  15
HETATM   15  C   UNL     1      -5.323  -0.125 -32.442  1.00  0.00     0.113 C 
BRANCH  15  16
HETATM   16  C   UNL     1      -6.007  -0.626 -33.732  1.00  0.00     0.030 C 
BRANCH  16  17
HETATM   17  C   UNL     1      -7.537  -0.323 -33.796  1.00  0.00    -0.014 C 
HETATM   18  C   UNL     1      -7.876   0.562 -35.004  1.00  0.00     0.010 C 
HETATM   19  C   UNL     1      -8.121   0.311 -32.530  1.00  0.00     0.010 C 
ENDBRANCH  16  17
BRANCH  16  20
HETATM   20  C   UNL     1      -5.713  -2.087 -34.055  1.00  0.00    -0.053 A 
HETATM   21  C   UNL     1      -4.455  -2.667 -33.842  1.00  0.00     0.007 A 
HETATM   22  C   UNL     1      -4.226  -4.009 -34.154  1.00  0.00     0.001 A 
HETATM   23  C   UNL     1      -5.247  -4.789 -34.688  1.00  0.00     0.000 A 
HETATM   24  C   UNL     1      -6.502  -4.230 -34.907  1.00  0.00     0.001 A 
HETATM   25  C   UNL     1      -6.736  -2.891 -34.587  1.00  0.00     0.007 A 
ENDBRANCH  16  20
ENDBRANCH  15  16
ENDBRANCH  12  15
ENDBRANCH   1  11
BRANCH   8  26
HETATM   26  C   UNL     1      -0.031   5.050 -30.732  1.00  0.00     0.270 C 
HETATM   27  N   UNL     1      -0.442   5.291 -29.449  1.00  0.00    -0.365 N 
HETATM   28  H   UNL     1      -1.322   5.771 -29.305  1.00  0.00     0.159 HD
HETATM   29  H   UNL     1       0.113   4.961 -28.676  1.00  0.00     0.159 HD
HETATM   30  O   UNL     1       1.015   4.453 -30.960  1.00  0.00    -0.266 OA
ENDBRANCH   8  26
TORSDOF 6
ENDMDL
MODEL 2
REMARK VINA RESULT:      -8.7      2.906      3.071
REMARK  6 active torsions:
REMARK  status: ('A' for Active; 'I' for Inactive)
REMARK    1  A    between atoms: C_2  and  C_3 
REMARK    2  A    between atoms: C_3  and  C_4 
REMARK    3  A    between atoms: C_3  and  C_10 
REMARK    4  A    between atoms: C_10  and  C_11 
REMARK       I    between atoms: C_11  and  N_12 
REMARK    5  A    between atoms: N_12  and  C_13 
REMARK    6  A    between atoms: C_20  and  C_21 
REMARK       I    between atoms: C_21  and  N_22 
ROOT
HETATM    1  C   UNL     1      -5.267   3.089 -31.584  1.00  0.00     0.035 A 
HETATM    2  C   UNL     1      -5.502   3.750 -30.371  1.00  0.00     0.046 A 
HETATM    3  C   UNL     1      -4.948   5.033 -30.160  1.00  0.00     0.030 A 
HETATM    4  C   UNL     1      -4.167   5.600 -31.160  1.00  0.00     0.063 A 
HETATM    5  N   UNL     1      -3.770   6.811 -30.670  1.00  0.00    -0.277 N 
HETATM    6  H   UNL     1      -3.180   7.496 -31.129  1.00  0.00     0.189 HD
HETATM    7  N   UNL     1      -4.238   7.097 -29.444  1.00  0.00    -0.168 NA
HETATM    8  C   UNL     1      -4.971   6.008 -29.116  1.00  0.00     0.156 A 
HETATM    9  C   UNL     1      -3.909   4.969 -32.377  1.00  0.00     0.034 A 
HETATM   10  C   UNL     1      -4.483   3.707 -32.570  1.00  0.00     0.032 A 
ENDROOT
BRANCH   1  11
HETATM   11  N   UNL     1      -5.783   1.816 -31.903  1.00  0.00    -0.327 N 
HETATM   12  C   UNL     1      -5.140   0.594 -31.828  1.00  0.00     0.222 C 
HETATM   13  O   UNL     1      -3.993   0.403 -31.433  1.00  0.00    -0.273 OA
HETATM   14  H   UNL     1      -6.720   1.814 -32.277  1.00  0.00     0.169 HD
BRANCH  12  15
HETATM   15  C   UNL     1      -6.017  -0.596 -32.210  1.00  0.00     0.113 C 
BRANCH  15  16
HETATM   16  C   UNL     1      -6.092  -0.907 -33.720  1.00  0.00     0.030 C 
BRANCH  16  17
HETATM   17  C   UNL     1      -7.436  -0.478 -34.390  1.00  0.00    -0.014 C 
HETATM   18  C   UNL     1      -7.217   0.676 -35.377  1.00  0.00     0.010 C 
HETATM   19  C   UNL     1      -8.549  -0.096 -33.410  1.00  0.00     0.010 C 
ENDBRANCH  16  17
BRANCH  16  20
HETATM   20  C   UNL     1      -5.731  -2.348 -34.068  1.00  0.00    -0.053 A 
HETATM   21  C   UNL     1      -4.456  -2.881 -33.835  1.00  0.00     0.007 A 
HETATM   22  C   UNL     1      -4.164  -4.205 -34.172  1.00  0.00     0.001 A 
HETATM   23  C   UNL     1      -5.138  -5.012 -34.752  1.00  0.00     0.000 A 
HETATM   24  C   UNL     1      -6.409  -4.499 -34.991  1.00  0.00     0.001 A 
HETATM   25  C   UNL     1      -6.706  -3.179 -34.647  1.00  0.00     0.007 A 
ENDBRANCH  16  20
ENDBRANCH  15  16
ENDBRANCH  12  15
ENDBRANCH   1  11
BRANCH   8  26
HETATM   26  C   UNL     1      -5.677   5.932 -27.829  1.00  0.00     0.270 C 
HETATM   27  N   UNL     1      -4.994   5.252 -26.858  1.00  0.00    -0.365 N 
HETATM   28  H   UNL     1      -4.080   4.876 -27.083  1.00  0.00     0.159 HD
HETATM   29  H   UNL     1      -5.390   5.165 -25.936  1.00  0.00     0.159 HD
HETATM   30  O   UNL     1      -6.775   6.427 -27.602  1.00  0.00    -0.266 OA
ENDBRANCH   8  26
TORSDOF 6
ENDMDL
MODEL 3
REMARK VINA RESULT:      -8.6      4.695      8.189
REMARK  6 active torsions:
REMARK  status: ('A' for Active; 'I' for Inactive)
REMARK    1  A    between atoms: C_2  and  C_3 
REMARK    2  A    between atoms: C_3  and  C_4 
REMARK    3  A    between atoms: C_3  and  C_10 
REMARK    4  A    between atoms: C_10  and  C_11 
REMARK       I    between atoms: C_11  and  N_12 
REMARK    5  A    between atoms: N_12  and  C_13 
REMARK    6  A    between atoms: C_20  and  C_21 
REMARK       I    between atoms: C_21  and  N_22 
ROOT
HETATM    1  C   UNL     1      -9.388   1.855 -34.063  1.00  0.00     0.035 A 
HETATM    2  C   UNL     1     -10.587   1.134 -33.988  1.00  0.00     0.046 A 
HETATM    3  C   UNL     1     -11.795   1.820 -33.725  1.00  0.00     0.030 A 
HETATM    4  C   UNL     1     -11.758   3.195 -33.531  1.00  0.00     0.063 A 
HETATM    5  N   UNL     1     -13.051   3.564 -33.289  1.00  0.00    -0.277 N 
HETATM    6  H   UNL     1     -13.397   4.497 -33.096  1.00  0.00     0.189 HD
HETATM    7  N   UNL     1     -13.935   2.554 -33.327  1.00  0.00    -0.168 NA
HETATM    8  C   UNL     1     -13.174   1.469 -33.598  1.00  0.00     0.156 A 
HETATM    9  C   UNL     1     -10.583   3.943 -33.595  1.00  0.00     0.034 A 
HETATM   10  C   UNL     1      -9.402   3.245 -33.874  1.00  0.00     0.032 A 
ENDROOT
BRANCH   1  11
HETATM   11  N   UNL     1      -8.132   1.274 -34.334  1.00  0.00    -0.327 N 
HETATM   12  C   UNL     1      -7.295   0.610 -33.456  1.00  0.00     0.222 C 
HETATM   13  O   UNL     1      -7.522   0.383 -32.271  1.00  0.00    -0.273 OA
HETATM   14  H   UNL     1      -7.791   1.408 -35.274  1.00  0.00     0.169 HD
BRANCH  12  15
HETATM   15  C   UNL     1      -6.022   0.066 -34.101  1.00  0.00     0.113 C 
BRANCH  15  16
HETATM   16  C   UNL     1      -5.298  -1.043 -33.307  1.00  0.00     0.030 C 
BRANCH  16  17
HETATM   17  C   UNL     1      -3.811  -0.709 -32.966  1.00  0.00    -0.014 C 
HETATM   18  C   UNL     1      -3.379  -1.384 -31.658  1.00  0.00     0.010 C 
HETATM   19  C   UNL     1      -3.489   0.787 -32.888  1.00  0.00     0.010 C 
ENDBRANCH  16  17
BRANCH  16  20
HETATM   20  C   UNL     1      -5.429  -2.429 -33.929  1.00  0.00    -0.053 A 
HETATM   21  C   UNL     1      -6.590  -2.849 -34.592  1.00  0.00     0.007 A 
HETATM   22  C   UNL     1      -6.672  -4.129 -35.145  1.00  0.00     0.001 A 
HETATM   23  C   UNL     1      -5.600  -5.009 -35.038  1.00  0.00     0.000 A 
HETATM   24  C   UNL     1      -4.439  -4.609 -34.383  1.00  0.00     0.001 A 
HETATM   25  C   UNL     1      -4.352  -3.327 -33.837  1.00  0.00     0.007 A 
ENDBRANCH  16  20
ENDBRANCH  15  16
ENDBRANCH  12  15
ENDBRANCH   1  11
BRANCH   8  26
HETATM   26  C   UNL     1     -13.780   0.137 -33.739  1.00  0.00     0.270 C 
HETATM   27  N   UNL     1     -14.983   0.139 -34.392  1.00  0.00    -0.365 N 
HETATM   28  H   UNL     1     -15.349   1.022 -34.729  1.00  0.00     0.159 HD
HETATM   29  H   UNL     1     -15.465  -0.730 -34.554  1.00  0.00     0.159 HD
HETATM   30  O   UNL     1     -13.283  -0.907 -33.331  1.00  0.00    -0.266 OA
ENDBRANCH   8  26
TORSDOF 6
ENDMDL
MODEL 4
REMARK VINA RESULT:      -8.6      1.537      2.009
REMARK  6 active torsions:
REMARK  status: ('A' for Active; 'I' for Inactive)
REMARK    1  A    between atoms: C_2  and  C_3 
REMARK    2  A    between atoms: C_3  and  C_4 
REMARK    3  A    between atoms: C_3  and  C_10 
REMARK    4  A    between atoms: C_10  and  C_11 
REMARK       I    between atoms: C_11  and  N_12 
REMARK    5  A    between atoms: N_12  and  C_13 
REMARK    6  A    between atoms: C_20  and  C_21 
REMARK       I    between atoms: C_21  and  N_22 
ROOT
HETATM    1  C   UNL     1      -2.770   3.642 -32.310  1.00  0.00     0.035 A 
HETATM    2  C   UNL     1      -1.868   3.988 -31.295  1.00  0.00     0.046 A 
HETATM    3  C   UNL     1      -1.117   5.180 -31.410  1.00  0.00     0.030 A 
HETATM    4  C   UNL     1      -1.282   5.972 -32.540  1.00  0.00     0.063 A 
HETATM    5  N   UNL     1      -0.431   7.027 -32.373  1.00  0.00    -0.277 N 
HETATM    6  H   UNL     1      -0.282   7.802 -33.010  1.00  0.00     0.189 HD
HETATM    7  N   UNL     1       0.264   7.006 -31.224  1.00  0.00    -0.168 NA
HETATM    8  C   UNL     1      -0.151   5.871 -30.616  1.00  0.00     0.156 A 
HETATM    9  C   UNL     1      -2.168   5.656 -33.569  1.00  0.00     0.034 A 
HETATM   10  C   UNL     1      -2.914   4.480 -33.426  1.00  0.00     0.032 A 
ENDROOT
BRANCH   1  11
HETATM   11  N   UNL     1      -3.578   2.486 -32.288  1.00  0.00    -0.327 N 
HETATM   12  C   UNL     1      -4.552   2.147 -31.367  1.00  0.00     0.222 C 
HETATM   13  O   UNL     1      -4.907   2.823 -30.406  1.00  0.00    -0.273 OA
HETATM   14  H   UNL     1      -3.378   1.809 -33.009  1.00  0.00     0.169 HD
BRANCH  12  15
HETATM   15  C   UNL     1      -5.269   0.833 -31.675  1.00  0.00     0.113 C 
BRANCH  15  16
HETATM   16  C   UNL     1      -5.832   0.704 -33.106  1.00  0.00     0.030 C 
BRANCH  16  17
HETATM   17  C   UNL     1      -7.255   1.321 -33.284  1.00  0.00    -0.014 C 
HETATM   18  C   UNL     1      -7.172   2.743 -33.858  1.00  0.00     0.010 C 
HETATM   19  C   UNL     1      -8.112   1.342 -32.015  1.00  0.00     0.010 C 
ENDBRANCH  16  17
BRANCH  16  20
HETATM   20  C   UNL     1      -5.765  -0.713 -33.666  1.00  0.00    -0.053 A 
HETATM   21  C   UNL     1      -6.886  -1.367 -34.194  1.00  0.00     0.007 A 
HETATM   22  C   UNL     1      -6.784  -2.667 -34.694  1.00  0.00     0.001 A 
HETATM   23  C   UNL     1      -5.563  -3.334 -34.668  1.00  0.00     0.000 A 
HETATM   24  C   UNL     1      -4.440  -2.701 -34.147  1.00  0.00     0.001 A 
HETATM   25  C   UNL     1      -4.538  -1.398 -33.655  1.00  0.00     0.007 A 
ENDBRANCH  16  20
ENDBRANCH  15  16
ENDBRANCH  12  15
ENDBRANCH   1  11
BRANCH   8  26
HETATM   26  C   UNL     1       0.373   5.485 -29.298  1.00  0.00     0.270 C 
HETATM   27  N   UNL     1       1.176   4.377 -29.321  1.00  0.00    -0.365 N 
HETATM   28  H   UNL     1       1.356   3.928 -30.211  1.00  0.00     0.159 HD
HETATM   29  H   UNL     1       1.598   4.049 -28.468  1.00  0.00     0.159 HD
HETATM   30  O   UNL     1       0.143   6.079 -28.251  1.00  0.00    -0.266 OA
ENDBRANCH   8  26
TORSDOF 6
ENDMDL
MODEL 5
REMARK VINA RESULT:      -8.5      1.550      3.380
REMARK  6 active torsions:
REMARK  status: ('A' for Active; 'I' for Inactive)
REMARK    1  A    between atoms: C_2  and  C_3 
REMARK    2  A    between atoms: C_3  and  C_4 
REMARK    3  A    between atoms: C_3  and  C_10 
REMARK    4  A    between atoms: C_10  and  C_11 
REMARK       I    between atoms: C_11  and  N_12 
REMARK    5  A    between atoms: N_12  and  C_13 
REMARK    6  A    between atoms: C_20  and  C_21 
REMARK       I    between atoms: C_21  and  N_22 
ROOT
HETATM    1  C   UNL     1      -4.166   2.035 -32.289  1.00  0.00     0.035 A 
HETATM    2  C   UNL     1      -3.105   2.950 -32.298  1.00  0.00     0.046 A 
HETATM    3  C   UNL     1      -3.206   4.140 -31.541  1.00  0.00     0.030 A 
HETATM    4  C   UNL     1      -4.368   4.379 -30.820  1.00  0.00     0.063 A 
HETATM    5  N   UNL     1      -4.179   5.588 -30.214  1.00  0.00    -0.277 N 
HETATM    6  H   UNL     1      -4.828   6.081 -29.611  1.00  0.00     0.189 HD
HETATM    7  N   UNL     1      -2.986   6.153 -30.459  1.00  0.00    -0.168 NA
HETATM    8  C   UNL     1      -2.371   5.269 -31.277  1.00  0.00     0.156 A 
HETATM    9  C   UNL     1      -5.445   3.493 -30.791  1.00  0.00     0.034 A 
HETATM   10  C   UNL     1      -5.315   2.313 -31.534  1.00  0.00     0.032 A 
ENDROOT
BRANCH   1  11
HETATM   11  N   UNL     1      -4.162   0.813 -32.995  1.00  0.00    -0.327 N 
HETATM   12  C   UNL     1      -3.920  -0.454 -32.498  1.00  0.00     0.222 C 
HETATM   13  O   UNL     1      -3.691  -0.741 -31.326  1.00  0.00    -0.273 OA
HETATM   14  H   UNL     1      -4.306   0.892 -33.990  1.00  0.00     0.169 HD
BRANCH  12  15
HETATM   15  C   UNL     1      -4.041  -1.564 -33.540  1.00  0.00     0.113 C 
BRANCH  15  16
HETATM   16  C   UNL     1      -5.436  -2.214 -33.659  1.00  0.00     0.030 C 
BRANCH  16  17
HETATM   17  C   UNL     1      -5.489  -3.424 -34.643  1.00  0.00    -0.014 C 
HETATM   18  C   UNL     1      -6.901  -4.022 -34.709  1.00  0.00     0.010 C 
HETATM   19  C   UNL     1      -4.485  -4.542 -34.344  1.00  0.00     0.010 C 
ENDBRANCH  16  17
BRANCH  16  20
HETATM   20  C   UNL     1      -6.555  -1.217 -33.940  1.00  0.00    -0.053 A 
HETATM   21  C   UNL     1      -6.700  -0.579 -35.179  1.00  0.00     0.007 A 
HETATM   22  C   UNL     1      -7.738   0.332 -35.395  1.00  0.00     0.001 A 
HETATM   23  C   UNL     1      -8.640   0.622 -34.376  1.00  0.00     0.000 A 
HETATM   24  C   UNL     1      -8.511  -0.002 -33.139  1.00  0.00     0.001 A 
HETATM   25  C   UNL     1      -7.480  -0.919 -32.924  1.00  0.00     0.007 A 
ENDBRANCH  16  20
ENDBRANCH  15  16
ENDBRANCH  12  15
ENDBRANCH   1  11
BRANCH   8  26
HETATM   26  C   UNL     1      -1.009   5.516 -31.772  1.00  0.00     0.270 C 
HETATM   27  N   UNL     1      -0.908   6.598 -32.606  1.00  0.00    -0.365 N 
HETATM   28  H   UNL     1      -1.743   7.136 -32.804  1.00  0.00     0.159 HD
HETATM   29  H   UNL     1      -0.010   6.858 -32.979  1.00  0.00     0.159 HD
HETATM   30  O   UNL     1      -0.025   4.846 -31.482  1.00  0.00    -0.266 OA
ENDBRANCH   8  26
TORSDOF 6
ENDMDL
MODEL 6
REMARK VINA RESULT:      -8.2      4.907      7.454
REMARK  6 active torsions:
REMARK  status: ('A' for Active; 'I' for Inactive)
REMARK    1  A    between atoms: C_2  and  C_3 
REMARK    2  A    between atoms: C_3  and  C_4 
REMARK    3  A    between atoms: C_3  and  C_10 
REMARK    4  A    between atoms: C_10  and  C_11 
REMARK       I    between atoms: C_11  and  N_12 
REMARK    5  A    between atoms: N_12  and  C_13 
REMARK    6  A    between atoms: C_20  and  C_21 
REMARK       I    between atoms: C_21  and  N_22 
ROOT
HETATM    1  C   UNL     1      -9.946   1.706 -34.403  1.00  0.00     0.035 A 
HETATM    2  C   UNL     1     -10.063   3.062 -34.735  1.00  0.00     0.046 A 
HETATM    3  C   UNL     1     -11.292   3.727 -34.521  1.00  0.00     0.030 A 
HETATM    4  C   UNL     1     -12.362   3.009 -34.000  1.00  0.00     0.063 A 
HETATM    5  N   UNL     1     -13.394   3.899 -33.920  1.00  0.00    -0.277 N 
HETATM    6  H   UNL     1     -14.336   3.719 -33.589  1.00  0.00     0.189 HD
HETATM    7  N   UNL     1     -13.090   5.143 -34.325  1.00  0.00    -0.168 NA
HETATM    8  C   UNL     1     -11.793   5.053 -34.697  1.00  0.00     0.156 A 
HETATM    9  C   UNL     1     -12.281   1.658 -33.661  1.00  0.00     0.034 A 
HETATM   10  C   UNL     1     -11.049   1.026 -33.867  1.00  0.00     0.032 A 
ENDROOT
BRANCH   1  11
HETATM   11  N   UNL     1      -8.764   0.953 -34.562  1.00  0.00    -0.327 N 
HETATM   12  C   UNL     1      -7.465   1.343 -34.292  1.00  0.00     0.222 C 
HETATM   13  O   UNL     1      -7.115   2.425 -33.829  1.00  0.00    -0.273 OA
HETATM   14  H   UNL     1      -8.889   0.038 -34.969  1.00  0.00     0.169 HD
BRANCH  12  15
HETATM   15  C   UNL     1      -6.424   0.253 -34.539  1.00  0.00     0.113 C 
BRANCH  15  16
HETATM   16  C   UNL     1      -6.325  -0.831 -33.444  1.00  0.00     0.030 C 
BRANCH  16  17
HETATM   17  C   UNL     1      -5.392  -0.445 -32.254  1.00  0.00    -0.014 C 
HETATM   18  C   UNL     1      -6.208  -0.021 -31.026  1.00  0.00     0.010 C 
HETATM   19  C   UNL     1      -4.361   0.643 -32.571  1.00  0.00     0.010 C 
ENDBRANCH  16  17
BRANCH  16  20
HETATM   20  C   UNL     1      -5.996  -2.219 -33.983  1.00  0.00    -0.053 A 
HETATM   21  C   UNL     1      -6.957  -3.037 -34.593  1.00  0.00     0.007 A 
HETATM   22  C   UNL     1      -6.617  -4.305 -35.070  1.00  0.00     0.001 A 
HETATM   23  C   UNL     1      -5.314  -4.776 -34.940  1.00  0.00     0.000 A 
HETATM   24  C   UNL     1      -4.347  -3.978 -34.337  1.00  0.00     0.001 A 
HETATM   25  C   UNL     1      -4.683  -2.707 -33.867  1.00  0.00     0.007 A 
ENDBRANCH  16  20
ENDBRANCH  15  16
ENDBRANCH  12  15
ENDBRANCH   1  11
BRANCH   8  26
HETATM   26  C   UNL     1     -11.067   6.230 -35.197  1.00  0.00     0.270 C 
HETATM   27  N   UNL     1     -11.664   7.423 -34.892  1.00  0.00    -0.365 N 
HETATM   28  H   UNL     1     -12.521   7.411 -34.353  1.00  0.00     0.159 HD
HETATM   29  H   UNL     1     -11.228   8.286 -35.175  1.00  0.00     0.159 HD
HETATM   30  O   UNL     1     -10.016   6.190 -35.826  1.00  0.00    -0.266 OA
ENDBRANCH   8  26
TORSDOF 6
ENDMDL
MODEL 7
REMARK VINA RESULT:      -8.1      2.296      2.709
REMARK  6 active torsions:
REMARK  status: ('A' for Active; 'I' for Inactive)
REMARK    1  A    between atoms: C_2  and  C_3 
REMARK    2  A    between atoms: C_3  and  C_4 
REMARK    3  A    between atoms: C_3  and  C_10 
REMARK    4  A    between atoms: C_10  and  C_11 
REMARK       I    between atoms: C_11  and  N_12 
REMARK    5  A    between atoms: N_12  and  C_13 
REMARK    6  A    between atoms: C_20  and  C_21 
REMARK       I    between atoms: C_21  and  N_22 
ROOT
HETATM    1  C   UNL     1      -5.000   4.411 -31.512  1.00  0.00     0.035 A 
HETATM    2  C   UNL     1      -3.923   5.116 -32.065  1.00  0.00     0.046 A 
HETATM    3  C   UNL     1      -3.794   6.500 -31.811  1.00  0.00     0.030 A 
HETATM    4  C   UNL     1      -4.753   7.132 -31.029  1.00  0.00     0.063 A 
HETATM    5  N   UNL     1      -4.374   8.442 -30.974  1.00  0.00    -0.277 N 
HETATM    6  H   UNL     1      -4.847   9.199 -30.492  1.00  0.00     0.189 HD
HETATM    7  N   UNL     1      -3.239   8.722 -31.635  1.00  0.00    -0.168 NA
HETATM    8  C   UNL     1      -2.867   7.531 -32.157  1.00  0.00     0.156 A 
HETATM    9  C   UNL     1      -5.839   6.462 -30.465  1.00  0.00     0.034 A 
HETATM   10  C   UNL     1      -5.936   5.088 -30.717  1.00  0.00     0.032 A 
ENDROOT
BRANCH   1  11
HETATM   11  N   UNL     1      -5.214   3.028 -31.689  1.00  0.00    -0.327 N 
HETATM   12  C   UNL     1      -5.697   2.380 -32.811  1.00  0.00     0.222 C 
HETATM   13  O   UNL     1      -6.000   2.907 -33.877  1.00  0.00    -0.273 OA
HETATM   14  H   UNL     1      -5.037   2.459 -30.875  1.00  0.00     0.169 HD
BRANCH  12  15
HETATM   15  C   UNL     1      -5.761   0.860 -32.671  1.00  0.00     0.113 C 
BRANCH  15  16
HETATM   16  C   UNL     1      -6.671   0.138 -33.688  1.00  0.00     0.030 C 
BRANCH  16  17
HETATM   17  C   UNL     1      -8.184   0.146 -33.301  1.00  0.00    -0.014 C 
HETATM   18  C   UNL     1      -8.988   1.066 -34.229  1.00  0.00     0.010 C 
HETATM   19  C   UNL     1      -8.474   0.525 -31.845  1.00  0.00     0.010 C 
ENDBRANCH  16  17
BRANCH  16  20
HETATM   20  C   UNL     1      -6.195  -1.265 -34.050  1.00  0.00    -0.053 A 
HETATM   21  C   UNL     1      -7.066  -2.257 -34.518  1.00  0.00     0.007 A 
HETATM   22  C   UNL     1      -6.591  -3.532 -34.835  1.00  0.00     0.001 A 
HETATM   23  C   UNL     1      -5.241  -3.835 -34.684  1.00  0.00     0.000 A 
HETATM   24  C   UNL     1      -4.362  -2.862 -34.220  1.00  0.00     0.001 A 
HETATM   25  C   UNL     1      -4.834  -1.584 -33.911  1.00  0.00     0.007 A 
ENDBRANCH  16  20
ENDBRANCH  15  16
ENDBRANCH  12  15
ENDBRANCH   1  11
BRANCH   8  26
HETATM   26  C   UNL     1      -1.639   7.406 -32.955  1.00  0.00     0.270 C 
HETATM   27  N   UNL     1      -0.567   6.920 -32.255  1.00  0.00    -0.365 N 
HETATM   28  H   UNL     1      -0.695   6.679 -31.280  1.00  0.00     0.159 HD
HETATM   29  H   UNL     1       0.313   6.780 -32.724  1.00  0.00     0.159 HD
HETATM   30  O   UNL     1      -1.543   7.691 -34.143  1.00  0.00    -0.266 OA
ENDBRANCH   8  26
TORSDOF 6
ENDMDL
MODEL 8
REMARK VINA RESULT:      -7.5      3.571      9.001
REMARK  6 active torsions:
REMARK  status: ('A' for Active; 'I' for Inactive)
REMARK    1  A    between atoms: C_2  and  C_3 
REMARK    2  A    between atoms: C_3  and  C_4 
REMARK    3  A    between atoms: C_3  and  C_10 
REMARK    4  A    between atoms: C_10  and  C_11 
REMARK       I    between atoms: C_11  and  N_12 
REMARK    5  A    between atoms: N_12  and  C_13 
REMARK    6  A    between atoms: C_20  and  C_21 
REMARK       I    between atoms: C_21  and  N_22 
ROOT
HETATM    1  C   UNL     1      -5.191   2.082 -31.593  1.00  0.00     0.035 A 
HETATM    2  C   UNL     1      -6.074   1.745 -32.628  1.00  0.00     0.046 A 
HETATM    3  C   UNL     1      -7.337   1.193 -32.312  1.00  0.00     0.030 A 
HETATM    4  C   UNL     1      -7.663   0.983 -30.978  1.00  0.00     0.063 A 
HETATM    5  N   UNL     1      -8.915   0.438 -30.990  1.00  0.00    -0.277 N 
HETATM    6  H   UNL     1      -9.467   0.149 -30.190  1.00  0.00     0.189 HD
HETATM    7  N   UNL     1      -9.447   0.292 -32.215  1.00  0.00    -0.168 NA
HETATM    8  C   UNL     1      -8.484   0.756 -33.043  1.00  0.00     0.156 A 
HETATM    9  C   UNL     1      -6.808   1.303 -29.924  1.00  0.00     0.034 A 
HETATM   10  C   UNL     1      -5.570   1.864 -30.260  1.00  0.00     0.032 A 
ENDROOT
BRANCH   1  11
HETATM   11  N   UNL     1      -3.917   2.651 -31.796  1.00  0.00    -0.327 N 
HETATM   12  C   UNL     1      -3.614   3.950 -32.160  1.00  0.00     0.222 C 
HETATM   13  O   UNL     1      -4.421   4.858 -32.343  1.00  0.00    -0.273 OA
HETATM   14  H   UNL     1      -3.142   2.011 -31.710  1.00  0.00     0.169 HD
BRANCH  12  15
HETATM   15  C   UNL     1      -2.117   4.239 -32.248  1.00  0.00     0.113 C 
BRANCH  15  16
HETATM   16  C   UNL     1      -1.717   5.722 -32.091  1.00  0.00     0.030 C 
BRANCH  16  17
HETATM   17  C   UNL     1      -1.098   6.350 -33.379  1.00  0.00    -0.014 C 
HETATM   18  C   UNL     1      -1.734   7.712 -33.690  1.00  0.00     0.010 C 
HETATM   19  C   UNL     1      -1.174   5.466 -34.627  1.00  0.00     0.010 C 
ENDBRANCH  16  17
BRANCH  16  20
HETATM   20  C   UNL     1      -0.852   5.998 -30.866  1.00  0.00    -0.053 A 
HETATM   21  C   UNL     1      -0.040   5.016 -30.282  1.00  0.00     0.007 A 
HETATM   22  C   UNL     1       0.735   5.308 -29.157  1.00  0.00     0.001 A 
HETATM   23  C   UNL     1       0.705   6.581 -28.596  1.00  0.00     0.000 A 
HETATM   24  C   UNL     1      -0.095   7.568 -29.162  1.00  0.00     0.001 A 
HETATM   25  C   UNL     1      -0.864   7.281 -30.292  1.00  0.00     0.007 A 
ENDBRANCH  16  20
ENDBRANCH  15  16
ENDBRANCH  12  15
ENDBRANCH   1  11
BRANCH   8  26
HETATM   26  C   UNL     1      -8.686   0.782 -34.499  1.00  0.00     0.270 C 
HETATM   27  N   UNL     1      -9.825   1.433 -34.891  1.00  0.00    -0.365 N 
HETATM   28  H   UNL     1     -10.415   1.846 -34.179  1.00  0.00     0.159 HD
HETATM   29  H   UNL     1     -10.037   1.520 -35.871  1.00  0.00     0.159 HD
HETATM   30  O   UNL     1      -7.925   0.285 -35.321  1.00  0.00    -0.266 OA
ENDBRANCH   8  26
TORSDOF 6
ENDMDL
MODEL 9
REMARK VINA RESULT:      -7.5      4.602      7.518
REMARK  6 active torsions:
REMARK  status: ('A' for Active; 'I' for Inactive)
REMARK    1  A    between atoms: C_2  and  C_3 
REMARK    2  A    between atoms: C_3  and  C_4 
REMARK    3  A    between atoms: C_3  and  C_10 
REMARK    4  A    between atoms: C_10  and  C_11 
REMARK       I    between atoms: C_11  and  N_12 
REMARK    5  A    between atoms: N_12  and  C_13 
REMARK    6  A    between atoms: C_20  and  C_21 
REMARK       I    between atoms: C_21  and  N_22 
ROOT
HETATM    1  C   UNL     1      -7.653   0.138 -33.154  1.00  0.00     0.035 A 
HETATM    2  C   UNL     1      -6.425   0.035 -32.487  1.00  0.00     0.046 A 
HETATM    3  C   UNL     1      -5.478  -0.922 -32.917  1.00  0.00     0.030 A 
HETATM    4  C   UNL     1      -5.799  -1.751 -33.984  1.00  0.00     0.063 A 
HETATM    5  N   UNL     1      -4.713  -2.562 -34.155  1.00  0.00    -0.277 N 
HETATM    6  H   UNL     1      -4.599  -3.298 -34.843  1.00  0.00     0.189 HD
HETATM    7  N   UNL     1      -3.701  -2.324 -33.306  1.00  0.00    -0.168 NA
HETATM    8  C   UNL     1      -4.157  -1.311 -32.535  1.00  0.00     0.156 A 
HETATM    9  C   UNL     1      -7.011  -1.679 -34.669  1.00  0.00     0.034 A 
HETATM   10  C   UNL     1      -7.927  -0.712 -34.236  1.00  0.00     0.032 A 
ENDROOT
BRANCH   1  11
HETATM   11  N   UNL     1      -8.660   1.066 -32.817  1.00  0.00    -0.327 N 
HETATM   12  C   UNL     1      -8.708   2.415 -33.118  1.00  0.00     0.222 C 
HETATM   13  O   UNL     1      -7.877   3.041 -33.770  1.00  0.00    -0.273 OA
HETATM   14  H   UNL     1      -9.406   0.701 -32.245  1.00  0.00     0.169 HD
BRANCH  12  15
HETATM   15  C   UNL     1      -9.976   3.116 -32.634  1.00  0.00     0.113 C 
BRANCH  15  16
HETATM   16  C   UNL     1     -11.031   3.406 -33.723  1.00  0.00     0.030 C 
BRANCH  16  17
HETATM   17  C   UNL     1     -11.399   4.917 -33.860  1.00  0.00    -0.014 C 
HETATM   18  C   UNL     1     -10.962   5.471 -35.223  1.00  0.00     0.010 C 
HETATM   19  C   UNL     1     -10.844   5.818 -32.752  1.00  0.00     0.010 C 
ENDBRANCH  16  17
BRANCH  16  20
HETATM   20  C   UNL     1     -12.278   2.536 -33.616  1.00  0.00    -0.053 A 
HETATM   21  C   UNL     1     -13.383   2.897 -32.834  1.00  0.00     0.007 A 
HETATM   22  C   UNL     1     -14.506   2.070 -32.760  1.00  0.00     0.001 A 
HETATM   23  C   UNL     1     -14.539   0.868 -33.461  1.00  0.00     0.000 A 
HETATM   24  C   UNL     1     -13.451   0.493 -34.242  1.00  0.00     0.001 A 
HETATM   25  C   UNL     1     -12.331   1.323 -34.325  1.00  0.00     0.007 A 
ENDBRANCH  16  20
ENDBRANCH  15  16
ENDBRANCH  12  15
ENDBRANCH   1  11
BRANCH   8  26
HETATM   26  C   UNL     1      -3.323  -0.737 -31.469  1.00  0.00     0.270 C 
HETATM   27  N   UNL     1      -2.028  -1.181 -31.476  1.00  0.00    -0.365 N 
HETATM   28  H   UNL     1      -1.746  -1.837 -32.194  1.00  0.00     0.159 HD
HETATM   29  H   UNL     1      -1.376  -0.827 -30.795  1.00  0.00     0.159 HD
HETATM   30  O   UNL     1      -3.710   0.075 -30.636  1.00  0.00    -0.266 OA
ENDBRANCH   8  26
TORSDOF 6
ENDMDL
MODEL 10
REMARK VINA RESULT:      -7.4      3.058      7.708
REMARK  6 active torsions:
REMARK  status: ('A' for Active; 'I' for Inactive)
REMARK    1  A    between atoms: C_2  and  C_3 
REMARK    2  A    between atoms: C_3  and  C_4 
REMARK    3  A    between atoms: C_3  and  C_10 
REMARK    4  A    between atoms: C_10  and  C_11 
REMARK       I    between atoms: C_11  and  N_12 
REMARK    5  A    between atoms: N_12  and  C_13 
REMARK    6  A    between atoms: C_20  and  C_21 
REMARK       I    between atoms: C_21  and  N_22 
ROOT
HETATM    1  C   UNL     1      -5.996   2.030 -33.434  1.00  0.00     0.035 A 
HETATM    2  C   UNL     1      -5.081   1.148 -32.844  1.00  0.00     0.046 A 
HETATM    3  C   UNL     1      -5.032  -0.196 -33.279  1.00  0.00     0.030 A 
HETATM    4  C   UNL     1      -5.908  -0.613 -34.273  1.00  0.00     0.063 A 
HETATM    5  N   UNL     1      -5.636  -1.937 -34.467  1.00  0.00    -0.277 N 
HETATM    6  H   UNL     1      -6.091  -2.568 -35.117  1.00  0.00     0.189 HD
HETATM    7  N   UNL     1      -4.645  -2.420 -33.701  1.00  0.00    -0.168 NA
HETATM    8  C   UNL     1      -4.259  -1.355 -32.961  1.00  0.00     0.156 A 
HETATM    9  C   UNL     1      -6.832   0.237 -34.880  1.00  0.00     0.034 A 
HETATM   10  C   UNL     1      -6.851   1.567 -34.445  1.00  0.00     0.032 A 
ENDROOT
BRANCH   1  11
HETATM   11  N   UNL     1      -6.118   3.392 -33.087  1.00  0.00    -0.327 N 
HETATM   12  C   UNL     1      -5.708   4.494 -33.815  1.00  0.00     0.222 C 
HETATM   13  O   UNL     1      -5.185   4.475 -34.925  1.00  0.00    -0.273 OA
HETATM   14  H   UNL     1      -6.507   3.568 -32.173  1.00  0.00     0.169 HD
BRANCH  12  15
HETATM   15  C   UNL     1      -6.039   5.832 -33.156  1.00  0.00     0.113 C 
BRANCH  15  16
HETATM   16  C   UNL     1      -5.187   6.191 -31.920  1.00  0.00     0.030 C 
BRANCH  16  17
HETATM   17  C   UNL     1      -5.469   7.617 -31.350  1.00  0.00    -0.014 C 
HETATM   18  C   UNL     1      -5.131   7.692 -29.854  1.00  0.00     0.010 C 
HETATM   19  C   UNL     1      -6.898   8.126 -31.566  1.00  0.00     0.010 C 
ENDBRANCH  16  17
BRANCH  16  20
HETATM   20  C   UNL     1      -3.694   5.953 -32.113  1.00  0.00    -0.053 A 
HETATM   21  C   UNL     1      -2.908   6.750 -32.956  1.00  0.00     0.007 A 
HETATM   22  C   UNL     1      -1.542   6.497 -33.109  1.00  0.00     0.001 A 
HETATM   23  C   UNL     1      -0.945   5.441 -32.427  1.00  0.00     0.000 A 
HETATM   24  C   UNL     1      -1.710   4.639 -31.586  1.00  0.00     0.001 A 
HETATM   25  C   UNL     1      -3.073   4.897 -31.425  1.00  0.00     0.007 A 
ENDBRANCH  16  20
ENDBRANCH  15  16
ENDBRANCH  12  15
ENDBRANCH   1  11
BRANCH   8  26
HETATM   26  C   UNL     1      -3.164  -1.468 -31.987  1.00  0.00     0.270 C 
HETATM   27  N   UNL     1      -2.861  -2.756 -31.637  1.00  0.00    -0.365 N 
HETATM   28  H   UNL     1      -3.384  -3.510 -32.066  1.00  0.00     0.159 HD
HETATM   29  H   UNL     1      -2.110  -2.934 -30.990  1.00  0.00     0.159 HD
HETATM   30  O   UNL     1      -2.546  -0.521 -31.514  1.00  0.00    -0.266 OA
ENDBRANCH   8  26
TORSDOF 6
ENDMDL
