MODEL 1
REMARK VINA RESULT:      -9.0      0.000      0.000
REMARK  7 active torsions:
REMARK  status: ('A' for Active; 'I' for Inactive)
REMARK    1  A    between atoms: C_6  and  N_7 
REMARK       I    between atoms: N_7  and  C_8 
REMARK       I    between atoms: C_8  and  N_9 
REMARK    2  A    between atoms: N_9  and  C_10 
REMARK    3  A    between atoms: C_10  and  C_11 
REMARK    4  A    between atoms: C_11  and  C_12 
REMARK    5  A    between atoms: C_12  and  C_13 
REMARK    6  A    between atoms: C_13  and  O_14 
REMARK    7  A    between atoms: O_14  and  C_15 
ROOT
HETATM    1  C   UNL     1      -3.849   2.216 -31.785  1.00  0.00     0.219 C 
ENDROOT
BRANCH   1   2
HETATM    2  N   UNL     1      -3.762   0.896 -32.346  1.00  0.00    -0.332 N 
HETATM    3  C   UNL     1      -3.024  -0.063 -31.724  1.00  0.00     0.321 C 
HETATM    4  N   UNL     1      -3.007  -1.304 -32.282  1.00  0.00    -0.309 N 
HETATM    5  O   UNL     1      -2.344   0.154 -30.723  1.00  0.00    -0.247 OA
HETATM    6  H   UNL     1      -2.253  -1.864 -31.906  1.00  0.00     0.170 HD
HETATM    7  H   UNL     1      -3.883   0.791 -33.343  1.00  0.00     0.165 HD
BRANCH   4   8
HETATM    8  C   UNL     1      -3.931  -1.976 -33.102  1.00  0.00     0.036 A 
HETATM    9  C   UNL     1      -5.131  -1.421 -33.549  1.00  0.00     0.037 A 
HETATM   10  C   UNL     1      -6.047  -2.177 -34.306  1.00  0.00    -0.054 A 
HETATM   11  C   UNL     1      -5.738  -3.510 -34.638  1.00  0.00    -0.056 A 
HETATM   12  C   UNL     1      -7.328  -1.530 -34.758  1.00  0.00     0.049 C 
HETATM   13  C   UNL     1      -6.683  -4.364 -35.436  1.00  0.00     0.049 C 
HETATM   14  C   UNL     1      -4.543  -4.068 -34.167  1.00  0.00     0.009 A 
HETATM   15  C   UNL     1      -3.654  -3.312 -33.401  1.00  0.00     0.030 A 
ENDBRANCH   4   8
ENDBRANCH   1   2
BRANCH   1  16
HETATM   16  C   UNL     1      -3.228   3.261 -32.698  1.00  0.00    -0.085 C 
BRANCH  16  17
HETATM   17  C   UNL     1      -2.696   4.158 -33.481  1.00  0.00    -0.078 C 
BRANCH  17  18
HETATM   18  C   UNL     1      -2.076   5.202 -34.396  1.00  0.00     0.269 C 
BRANCH  18  19
HETATM   19  O   UNL     1      -0.880   5.685 -33.795  1.00  0.00    -0.337 OA
BRANCH  19  20
HETATM   20  C   UNL     1      -1.000   6.419 -32.633  1.00  0.00     0.099 A 
HETATM   21  C   UNL     1      -0.452   6.121 -31.366  1.00  0.00     0.100 A 
HETATM   22  C   UNL     1      -0.721   7.034 -30.316  1.00  0.00    -0.005 A 
HETATM   23  N   UNL     1       0.303   5.019 -31.122  1.00  0.00    -0.257 NA
HETATM   24  C   UNL     1      -0.200   6.775 -29.039  1.00  0.00     0.015 A 
HETATM   25  C   UNL     1      -1.497   8.183 -30.532  1.00  0.00     0.014 A 
HETATM   26  C   UNL     1       0.568   5.643 -28.815  1.00  0.00     0.020 A 
HETATM   27  C   UNL     1       0.789   4.802 -29.880  1.00  0.00     0.117 A 
HETATM   28  C   UNL     1      -2.024   8.455 -31.787  1.00  0.00     0.004 A 
HETATM   29  C   UNL     1      -1.775   7.576 -32.831  1.00  0.00     0.039 A 
ENDBRANCH  19  20
ENDBRANCH  18  19
ENDBRANCH  17  18
ENDBRANCH  16  17
ENDBRANCH   1  16
TORSDOF 7
ENDMDL
MODEL 2
REMARK VINA RESULT:      -8.9      1.718     10.285
REMARK  7 active torsions:
REMARK  status: ('A' for Active; 'I' for Inactive)
REMARK    1  A    between atoms: C_6  and  N_7 
REMARK       I    between atoms: N_7  and  C_8 
REMARK       I    between atoms: C_8  and  N_9 
REMARK    2  A    between atoms: N_9  and  C_10 
REMARK    3  A    between atoms: C_10  and  C_11 
REMARK    4  A    between atoms: C_11  and  C_12 
REMARK    5  A    between atoms: C_12  and  C_13 
REMARK    6  A    between atoms: C_13  and  O_14 
REMARK    7  A    between atoms: O_14  and  C_15 
ROOT
HETATM    1  C   UNL     1      -3.787   3.832 -31.394  1.00  0.00     0.219 C 
ENDROOT
BRANCH   1   2
HETATM    2  N   UNL     1      -2.565   4.466 -30.980  1.00  0.00    -0.332 N 
HETATM    3  C   UNL     1      -1.797   5.126 -31.889  1.00  0.00     0.321 C 
HETATM    4  N   UNL     1      -0.670   5.737 -31.433  1.00  0.00    -0.309 N 
HETATM    5  O   UNL     1      -2.048   5.151 -33.092  1.00  0.00    -0.247 OA
HETATM    6  H   UNL     1      -0.049   5.976 -32.196  1.00  0.00     0.170 HD
HETATM    7  H   UNL     1      -2.086   4.098 -30.172  1.00  0.00     0.165 HD
BRANCH   4   8
HETATM    8  C   UNL     1      -0.326   6.248 -30.169  1.00  0.00     0.036 A 
HETATM    9  C   UNL     1      -0.689   7.515 -29.711  1.00  0.00     0.037 A 
HETATM   10  C   UNL     1      -0.247   7.995 -28.463  1.00  0.00    -0.054 A 
HETATM   11  C   UNL     1       0.558   7.174 -27.651  1.00  0.00    -0.056 A 
HETATM   12  C   UNL     1      -0.665   9.372 -28.022  1.00  0.00     0.049 C 
HETATM   13  C   UNL     1       1.065   7.639 -26.314  1.00  0.00     0.049 C 
HETATM   14  C   UNL     1       0.938   5.912 -28.126  1.00  0.00     0.009 A 
HETATM   15  C   UNL     1       0.507   5.459 -29.374  1.00  0.00     0.030 A 
ENDBRANCH   4   8
ENDBRANCH   1   2
BRANCH   1  16
HETATM   16  C   UNL     1      -3.632   2.324 -31.509  1.00  0.00    -0.085 C 
BRANCH  16  17
HETATM   17  C   UNL     1      -3.498   1.031 -31.606  1.00  0.00    -0.078 C 
BRANCH  17  18
HETATM   18  C   UNL     1      -3.341  -0.477 -31.721  1.00  0.00     0.269 C 
BRANCH  18  19
HETATM   19  O   UNL     1      -3.349  -0.835 -33.098  1.00  0.00    -0.337 OA
BRANCH  19  20
HETATM   20  C   UNL     1      -4.553  -1.218 -33.653  1.00  0.00     0.099 A 
HETATM   21  C   UNL     1      -4.941  -2.514 -34.056  1.00  0.00     0.100 A 
HETATM   22  C   UNL     1      -6.238  -2.657 -34.608  1.00  0.00    -0.005 A 
HETATM   23  N   UNL     1      -4.137  -3.602 -33.939  1.00  0.00    -0.257 NA
HETATM   24  C   UNL     1      -6.664  -3.926 -35.026  1.00  0.00     0.015 A 
HETATM   25  C   UNL     1      -7.096  -1.554 -34.744  1.00  0.00     0.014 A 
HETATM   26  C   UNL     1      -5.825  -5.022 -34.896  1.00  0.00     0.020 A 
HETATM   27  C   UNL     1      -4.580  -4.810 -34.351  1.00  0.00     0.117 A 
HETATM   28  C   UNL     1      -6.692  -0.290 -34.338  1.00  0.00     0.004 A 
HETATM   29  C   UNL     1      -5.425  -0.125 -33.795  1.00  0.00     0.039 A 
ENDBRANCH  19  20
ENDBRANCH  18  19
ENDBRANCH  17  18
ENDBRANCH  16  17
ENDBRANCH   1  16
TORSDOF 7
ENDMDL
MODEL 3
REMARK VINA RESULT:      -8.8      2.210      9.617
REMARK  7 active torsions:
REMARK  status: ('A' for Active; 'I' for Inactive)
REMARK    1  A    between atoms: C_6  and  N_7 
REMARK       I    between atoms: N_7  and  C_8 
REMARK       I    between atoms: C_8  and  N_9 
REMARK    2  A    between atoms: N_9  and  C_10 
REMARK    3  A    between atoms: C_10  and  C_11 
REMARK    4  A    between atoms: C_11  and  C_12 
REMARK    5  A    between atoms: C_12  and  C_13 
REMARK    6  A    between atoms: C_13  and  O_14 
REMARK    7  A    between atoms: O_14  and  C_15 
ROOT
HETATM    1  C   UNL     1      -5.568   4.814 -33.678  1.00  0.00     0.219 C 
ENDROOT
BRANCH   1   2
HETATM    2  N   UNL     1      -4.172   5.054 -33.434  1.00  0.00    -0.332 N 
HETATM    3  C   UNL     1      -3.352   5.413 -34.459  1.00  0.00     0.321 C 
HETATM    4  N   UNL     1      -2.047   5.660 -34.162  1.00  0.00    -0.309 N 
HETATM    5  O   UNL     1      -3.722   5.472 -35.630  1.00  0.00    -0.247 OA
HETATM    6  H   UNL     1      -1.477   5.670 -34.998  1.00  0.00     0.170 HD
HETATM    7  H   UNL     1      -3.736   4.584 -32.655  1.00  0.00     0.165 HD
BRANCH   4   8
HETATM    8  C   UNL     1      -1.419   6.083 -32.977  1.00  0.00     0.036 A 
HETATM    9  C   UNL     1      -0.631   5.259 -32.172  1.00  0.00     0.037 A 
HETATM   10  C   UNL     1      -0.092   5.726 -30.957  1.00  0.00    -0.054 A 
HETATM   11  C   UNL     1      -0.333   7.054 -30.557  1.00  0.00    -0.056 A 
HETATM   12  C   UNL     1       0.747   4.793 -30.126  1.00  0.00     0.049 C 
HETATM   13  C   UNL     1       0.211   7.601 -29.267  1.00  0.00     0.049 C 
HETATM   14  C   UNL     1      -1.144   7.868 -31.358  1.00  0.00     0.009 A 
HETATM   15  C   UNL     1      -1.687   7.385 -32.550  1.00  0.00     0.030 A 
ENDBRANCH   4   8
ENDBRANCH   1   2
BRANCH   1  16
HETATM   16  C   UNL     1      -5.916   3.338 -33.575  1.00  0.00    -0.085 C 
BRANCH  16  17
HETATM   17  C   UNL     1      -6.213   2.072 -33.486  1.00  0.00    -0.078 C 
BRANCH  17  18
HETATM   18  C   UNL     1      -6.559   0.595 -33.383  1.00  0.00     0.269 C 
BRANCH  18  19
HETATM   19  O   UNL     1      -5.648  -0.146 -34.185  1.00  0.00    -0.337 OA
BRANCH  19  20
HETATM   20  C   UNL     1      -4.818  -1.045 -33.547  1.00  0.00     0.099 A 
HETATM   21  C   UNL     1      -4.717  -2.435 -33.775  1.00  0.00     0.100 A 
HETATM   22  C   UNL     1      -3.787  -3.152 -32.982  1.00  0.00    -0.005 A 
HETATM   23  N   UNL     1      -5.459  -3.093 -34.702  1.00  0.00    -0.257 NA
HETATM   24  C   UNL     1      -3.655  -4.536 -33.172  1.00  0.00     0.015 A 
HETATM   25  C   UNL     1      -3.003  -2.504 -32.015  1.00  0.00     0.014 A 
HETATM   26  C   UNL     1      -4.425  -5.186 -34.124  1.00  0.00     0.020 A 
HETATM   27  C   UNL     1      -5.305  -4.427 -34.859  1.00  0.00     0.117 A 
HETATM   28  C   UNL     1      -3.120  -1.136 -31.810  1.00  0.00     0.004 A 
HETATM   29  C   UNL     1      -4.025  -0.412 -32.574  1.00  0.00     0.039 A 
ENDBRANCH  19  20
ENDBRANCH  18  19
ENDBRANCH  17  18
ENDBRANCH  16  17
ENDBRANCH   1  16
TORSDOF 7
ENDMDL
MODEL 4
REMARK VINA RESULT:      -8.7      1.542      2.076
REMARK  7 active torsions:
REMARK  status: ('A' for Active; 'I' for Inactive)
REMARK    1  A    between atoms: C_6  and  N_7 
REMARK       I    between atoms: N_7  and  C_8 
REMARK       I    between atoms: C_8  and  N_9 
REMARK    2  A    between atoms: N_9  and  C_10 
REMARK    3  A    between atoms: C_10  and  C_11 
REMARK    4  A    between atoms: C_11  and  C_12 
REMARK    5  A    between atoms: C_12  and  C_13 
REMARK    6  A    between atoms: C_13  and  O_14 
REMARK    7  A    between atoms: O_14  and  C_15 
ROOT
HETATM    1  C   UNL     1      -4.737   2.816 -31.792  1.00  0.00     0.219 C 
ENDROOT
BRANCH   1   2
HETATM    2  N   UNL     1      -5.240   1.624 -32.419  1.00  0.00    -0.332 N 
HETATM    3  C   UNL     1      -6.122   1.715 -33.450  1.00  0.00     0.321 C 
HETATM    4  N   UNL     1      -6.537   0.555 -34.026  1.00  0.00    -0.309 N 
HETATM    5  O   UNL     1      -6.591   2.781 -33.843  1.00  0.00    -0.247 OA
HETATM    6  H   UNL     1      -7.360   0.702 -34.596  1.00  0.00     0.170 HD
HETATM    7  H   UNL     1      -5.275   0.776 -31.872  1.00  0.00     0.165 HD
BRANCH   4   8
HETATM    8  C   UNL     1      -5.933  -0.712 -34.124  1.00  0.00     0.036 A 
HETATM    9  C   UNL     1      -6.562  -1.839 -34.655  1.00  0.00     0.037 A 
HETATM   10  C   UNL     1      -5.926  -3.097 -34.655  1.00  0.00    -0.054 A 
HETATM   11  C   UNL     1      -4.626  -3.216 -34.130  1.00  0.00    -0.056 A 
HETATM   12  C   UNL     1      -6.652  -4.280 -35.236  1.00  0.00     0.049 C 
HETATM   13  C   UNL     1      -3.905  -4.535 -34.096  1.00  0.00     0.049 C 
HETATM   14  C   UNL     1      -4.010  -2.086 -33.577  1.00  0.00     0.009 A 
HETATM   15  C   UNL     1      -4.660  -0.850 -33.568  1.00  0.00     0.030 A 
ENDBRANCH   4   8
ENDBRANCH   1   2
BRANCH   1  16
HETATM   16  C   UNL     1      -3.825   3.602 -32.721  1.00  0.00    -0.085 C 
BRANCH  16  17
HETATM   17  C   UNL     1      -3.043   4.275 -33.518  1.00  0.00    -0.078 C 
BRANCH  17  18
HETATM   18  C   UNL     1      -2.131   5.060 -34.447  1.00  0.00     0.269 C 
BRANCH  18  19
HETATM   19  O   UNL     1      -0.928   5.371 -33.753  1.00  0.00    -0.337 OA
BRANCH  19  20
HETATM   20  C   UNL     1      -1.017   6.214 -32.664  1.00  0.00     0.099 A 
HETATM   21  C   UNL     1      -0.471   6.017 -31.377  1.00  0.00     0.100 A 
HETATM   22  C   UNL     1      -0.704   7.032 -30.416  1.00  0.00    -0.005 A 
HETATM   23  N   UNL     1       0.250   4.919 -31.034  1.00  0.00    -0.257 NA
HETATM   24  C   UNL     1      -0.183   6.877 -29.123  1.00  0.00     0.015 A 
HETATM   25  C   UNL     1      -1.444   8.181 -30.735  1.00  0.00     0.014 A 
HETATM   26  C   UNL     1       0.550   5.747 -28.796  1.00  0.00     0.020 A 
HETATM   27  C   UNL     1       0.738   4.803 -29.779  1.00  0.00     0.117 A 
HETATM   28  C   UNL     1      -1.969   8.352 -32.009  1.00  0.00     0.004 A 
HETATM   29  C   UNL     1      -1.755   7.371 -32.967  1.00  0.00     0.039 A 
ENDBRANCH  19  20
ENDBRANCH  18  19
ENDBRANCH  17  18
ENDBRANCH  16  17
ENDBRANCH   1  16
TORSDOF 7
ENDMDL
MODEL 5
REMARK VINA RESULT:      -8.7      1.774      9.965
REMARK  7 active torsions:
REMARK  status: ('A' for Active; 'I' for Inactive)
REMARK    1  A    between atoms: C_6  and  N_7 
REMARK       I    between atoms: N_7  and  C_8 
REMARK       I    between atoms: C_8  and  N_9 
REMARK    2  A    between atoms: N_9  and  C_10 
REMARK    3  A    between atoms: C_10  and  C_11 
REMARK    4  A    between atoms: C_11  and  C_12 
REMARK    5  A    between atoms: C_12  and  C_13 
REMARK    6  A    between atoms: C_13  and  O_14 
REMARK    7  A    between atoms: O_14  and  C_15 
ROOT
HETATM    1  C   UNL     1      -3.935   3.984 -32.873  1.00  0.00     0.219 C 
ENDROOT
BRANCH   1   2
HETATM    2  N   UNL     1      -2.902   4.926 -32.540  1.00  0.00    -0.332 N 
HETATM    3  C   UNL     1      -2.735   6.049 -33.289  1.00  0.00     0.321 C 
HETATM    4  N   UNL     1      -1.764   6.921 -32.906  1.00  0.00    -0.309 N 
HETATM    5  O   UNL     1      -3.381   6.280 -34.310  1.00  0.00    -0.247 OA
HETATM    6  H   UNL     1      -1.549   7.579 -33.645  1.00  0.00     0.170 HD
HETATM    7  H   UNL     1      -2.085   4.587 -32.053  1.00  0.00     0.165 HD
BRANCH   4   8
HETATM    8  C   UNL     1      -1.179   7.182 -31.654  1.00  0.00     0.036 A 
HETATM    9  C   UNL     1      -1.742   8.013 -30.684  1.00  0.00     0.037 A 
HETATM   10  C   UNL     1      -1.066   8.292 -29.480  1.00  0.00    -0.054 A 
HETATM   11  C   UNL     1       0.191   7.706 -29.239  1.00  0.00    -0.056 A 
HETATM   12  C   UNL     1      -1.719   9.198 -28.471  1.00  0.00     0.049 C 
HETATM   13  C   UNL     1       0.960   7.976 -27.977  1.00  0.00     0.049 C 
HETATM   14  C   UNL     1       0.762   6.893 -30.227  1.00  0.00     0.009 A 
HETATM   15  C   UNL     1       0.087   6.640 -31.423  1.00  0.00     0.030 A 
ENDBRANCH   4   8
ENDBRANCH   1   2
BRANCH   1  16
HETATM   16  C   UNL     1      -3.651   2.605 -32.299  1.00  0.00    -0.085 C 
BRANCH  16  17
HETATM   17  C   UNL     1      -3.407   1.423 -31.807  1.00  0.00    -0.078 C 
BRANCH  17  18
HETATM   18  C   UNL     1      -3.122   0.043 -31.234  1.00  0.00     0.269 C 
BRANCH  18  19
HETATM   19  O   UNL     1      -4.333  -0.704 -31.213  1.00  0.00    -0.337 OA
BRANCH  19  20
HETATM   20  C   UNL     1      -4.845  -1.127 -32.422  1.00  0.00     0.099 A 
HETATM   21  C   UNL     1      -5.972  -0.619 -33.105  1.00  0.00     0.100 A 
HETATM   22  C   UNL     1      -6.306  -1.227 -34.340  1.00  0.00    -0.005 A 
HETATM   23  N   UNL     1      -6.729   0.405 -32.633  1.00  0.00    -0.257 NA
HETATM   24  C   UNL     1      -7.420  -0.757 -35.051  1.00  0.00     0.015 A 
HETATM   25  C   UNL     1      -5.546  -2.287 -34.858  1.00  0.00     0.014 A 
HETATM   26  C   UNL     1      -8.178   0.289 -34.548  1.00  0.00     0.020 A 
HETATM   27  C   UNL     1      -7.795   0.833 -33.345  1.00  0.00     0.117 A 
HETATM   28  C   UNL     1      -4.441  -2.768 -34.169  1.00  0.00     0.004 A 
HETATM   29  C   UNL     1      -4.094  -2.189 -32.957  1.00  0.00     0.039 A 
ENDBRANCH  19  20
ENDBRANCH  18  19
ENDBRANCH  17  18
ENDBRANCH  16  17
ENDBRANCH   1  16
TORSDOF 7
ENDMDL
MODEL 6
REMARK VINA RESULT:      -8.6      2.300     10.490
REMARK  7 active torsions:
REMARK  status: ('A' for Active; 'I' for Inactive)
REMARK    1  A    between atoms: C_6  and  N_7 
REMARK       I    between atoms: N_7  and  C_8 
REMARK       I    between atoms: C_8  and  N_9 
REMARK    2  A    between atoms: N_9  and  C_10 
REMARK    3  A    between atoms: C_10  and  C_11 
REMARK    4  A    between atoms: C_11  and  C_12 
REMARK    5  A    between atoms: C_12  and  C_13 
REMARK    6  A    between atoms: C_13  and  O_14 
REMARK    7  A    between atoms: O_14  and  C_15 
ROOT
HETATM    1  C   UNL     1      -1.433   4.979 -31.645  1.00  0.00     0.219 C 
ENDROOT
BRANCH   1   2
HETATM    2  N   UNL     1      -0.952   5.318 -30.333  1.00  0.00    -0.332 N 
HETATM    3  C   UNL     1       0.310   4.974 -29.959  1.00  0.00     0.321 C 
HETATM    4  N   UNL     1       0.722   5.352 -28.719  1.00  0.00    -0.309 N 
HETATM    5  O   UNL     1       1.062   4.304 -30.663  1.00  0.00    -0.247 OA
HETATM    6  H   UNL     1       1.554   4.848 -28.440  1.00  0.00     0.170 HD
HETATM    7  H   UNL     1      -1.627   5.425 -29.590  1.00  0.00     0.165 HD
BRANCH   4   8
HETATM    8  C   UNL     1       0.330   6.413 -27.882  1.00  0.00     0.036 A 
HETATM    9  C   UNL     1       0.954   7.661 -27.856  1.00  0.00     0.037 A 
HETATM   10  C   UNL     1       0.559   8.655 -26.940  1.00  0.00    -0.054 A 
HETATM   11  C   UNL     1      -0.499   8.395 -26.048  1.00  0.00    -0.056 A 
HETATM   12  C   UNL     1       1.270   9.981 -26.952  1.00  0.00     0.049 C 
HETATM   13  C   UNL     1      -0.956   9.416 -25.045  1.00  0.00     0.049 C 
HETATM   14  C   UNL     1      -1.106   7.133 -26.064  1.00  0.00     0.009 A 
HETATM   15  C   UNL     1      -0.690   6.151 -26.966  1.00  0.00     0.030 A 
ENDBRANCH   4   8
ENDBRANCH   1   2
BRANCH   1  16
HETATM   16  C   UNL     1      -2.454   3.854 -31.599  1.00  0.00    -0.085 C 
BRANCH  16  17
HETATM   17  C   UNL     1      -3.330   2.888 -31.561  1.00  0.00    -0.078 C 
BRANCH  17  18
HETATM   18  C   UNL     1      -4.349   1.761 -31.516  1.00  0.00     0.269 C 
BRANCH  18  19
HETATM   19  O   UNL     1      -4.137   0.907 -32.634  1.00  0.00    -0.337 OA
BRANCH  19  20
HETATM   20  C   UNL     1      -5.238   0.273 -33.173  1.00  0.00     0.099 A 
HETATM   21  C   UNL     1      -5.308  -1.039 -33.690  1.00  0.00     0.100 A 
HETATM   22  C   UNL     1      -6.560  -1.466 -34.198  1.00  0.00    -0.005 A 
HETATM   23  N   UNL     1      -4.247  -1.885 -33.719  1.00  0.00    -0.257 NA
HETATM   24  C   UNL     1      -6.675  -2.761 -34.725  1.00  0.00     0.015 A 
HETATM   25  C   UNL     1      -7.678  -0.618 -34.184  1.00  0.00     0.014 A 
HETATM   26  C   UNL     1      -5.577  -3.607 -34.743  1.00  0.00     0.020 A 
HETATM   27  C   UNL     1      -4.394  -3.127 -34.233  1.00  0.00     0.117 A 
HETATM   28  C   UNL     1      -7.584   0.668 -33.669  1.00  0.00     0.004 A 
HETATM   29  C   UNL     1      -6.368   1.109 -33.166  1.00  0.00     0.039 A 
ENDBRANCH  19  20
ENDBRANCH  18  19
ENDBRANCH  17  18
ENDBRANCH  16  17
ENDBRANCH   1  16
TORSDOF 7
ENDMDL
MODEL 7
REMARK VINA RESULT:      -8.6      2.347      3.510
REMARK  7 active torsions:
REMARK  status: ('A' for Active; 'I' for Inactive)
REMARK    1  A    between atoms: C_6  and  N_7 
REMARK       I    between atoms: N_7  and  C_8 
REMARK       I    between atoms: C_8  and  N_9 
REMARK    2  A    between atoms: N_9  and  C_10 
REMARK    3  A    between atoms: C_10  and  C_11 
REMARK    4  A    between atoms: C_11  and  C_12 
REMARK    5  A    between atoms: C_12  and  C_13 
REMARK    6  A    between atoms: C_13  and  O_14 
REMARK    7  A    between atoms: O_14  and  C_15 
ROOT
HETATM    1  C   UNL     1      -5.675   4.690 -34.093  1.00  0.00     0.219 C 
ENDROOT
BRANCH   1   2
HETATM    2  N   UNL     1      -5.847   3.347 -33.608  1.00  0.00    -0.332 N 
HETATM    3  C   UNL     1      -6.869   3.053 -32.760  1.00  0.00     0.321 C 
HETATM    4  N   UNL     1      -7.002   1.760 -32.362  1.00  0.00    -0.309 N 
HETATM    5  O   UNL     1      -7.633   3.903 -32.306  1.00  0.00    -0.247 OA
HETATM    6  H   UNL     1      -7.613   1.685 -31.558  1.00  0.00     0.170 HD
HETATM    7  H   UNL     1      -5.034   2.752 -33.553  1.00  0.00     0.165 HD
BRANCH   4   8
HETATM    8  C   UNL     1      -6.620   0.548 -32.966  1.00  0.00     0.036 A 
HETATM    9  C   UNL     1      -5.483  -0.179 -32.610  1.00  0.00     0.037 A 
HETATM   10  C   UNL     1      -5.117  -1.347 -33.307  1.00  0.00    -0.054 A 
HETATM   11  C   UNL     1      -5.923  -1.803 -34.367  1.00  0.00    -0.056 A 
HETATM   12  C   UNL     1      -3.878  -2.090 -32.884  1.00  0.00     0.049 C 
HETATM   13  C   UNL     1      -5.575  -3.038 -35.150  1.00  0.00     0.049 C 
HETATM   14  C   UNL     1      -7.050  -1.056 -34.734  1.00  0.00     0.009 A 
HETATM   15  C   UNL     1      -7.389   0.110 -34.045  1.00  0.00     0.030 A 
ENDBRANCH   4   8
ENDBRANCH   1   2
BRANCH   1  16
HETATM   16  C   UNL     1      -4.208   5.039 -34.286  1.00  0.00    -0.085 C 
BRANCH  16  17
HETATM   17  C   UNL     1      -2.950   5.338 -34.450  1.00  0.00    -0.078 C 
BRANCH  17  18
HETATM   18  C   UNL     1      -1.483   5.689 -34.642  1.00  0.00     0.269 C 
BRANCH  18  19
HETATM   19  O   UNL     1      -1.220   6.930 -33.997  1.00  0.00    -0.337 OA
BRANCH  19  20
HETATM   20  C   UNL     1      -0.977   6.906 -32.639  1.00  0.00     0.099 A 
HETATM   21  C   UNL     1      -1.409   7.838 -31.671  1.00  0.00     0.100 A 
HETATM   22  C   UNL     1      -1.024   7.599 -30.328  1.00  0.00    -0.005 A 
HETATM   23  N   UNL     1      -2.161   8.929 -31.971  1.00  0.00    -0.257 NA
HETATM   24  C   UNL     1      -1.429   8.502 -29.333  1.00  0.00     0.015 A 
HETATM   25  C   UNL     1      -0.248   6.482 -29.981  1.00  0.00     0.014 A 
HETATM   26  C   UNL     1      -2.195   9.608 -29.664  1.00  0.00     0.020 A 
HETATM   27  C   UNL     1      -2.533   9.777 -30.987  1.00  0.00     0.117 A 
HETATM   28  C   UNL     1       0.163   5.579 -30.952  1.00  0.00     0.004 A 
HETATM   29  C   UNL     1      -0.201   5.792 -32.274  1.00  0.00     0.039 A 
ENDBRANCH  19  20
ENDBRANCH  18  19
ENDBRANCH  17  18
ENDBRANCH  16  17
ENDBRANCH   1  16
TORSDOF 7
ENDMDL
MODEL 8
REMARK VINA RESULT:      -8.5      2.368      9.113
REMARK  7 active torsions:
REMARK  status: ('A' for Active; 'I' for Inactive)
REMARK    1  A    between atoms: C_6  and  N_7 
REMARK       I    between atoms: N_7  and  C_8 
REMARK       I    between atoms: C_8  and  N_9 
REMARK    2  A    between atoms: N_9  and  C_10 
REMARK    3  A    between atoms: C_10  and  C_11 
REMARK    4  A    between atoms: C_11  and  C_12 
REMARK    5  A    between atoms: C_12  and  C_13 
REMARK    6  A    between atoms: C_13  and  O_14 
REMARK    7  A    between atoms: O_14  and  C_15 
ROOT
HETATM    1  C   UNL     1      -5.755   5.823 -33.452  1.00  0.00     0.219 C 
ENDROOT
BRANCH   1   2
HETATM    2  N   UNL     1      -4.354   5.680 -33.166  1.00  0.00    -0.332 N 
HETATM    3  C   UNL     1      -3.458   5.557 -34.183  1.00  0.00     0.321 C 
HETATM    4  N   UNL     1      -2.142   5.460 -33.853  1.00  0.00    -0.309 N 
HETATM    5  O   UNL     1      -3.788   5.479 -35.365  1.00  0.00    -0.247 OA
HETATM    6  H   UNL     1      -1.592   5.125 -34.634  1.00  0.00     0.170 HD
HETATM    7  H   UNL     1      -4.086   5.274 -32.282  1.00  0.00     0.165 HD
BRANCH   4   8
HETATM    8  C   UNL     1      -1.420   5.913 -32.734  1.00  0.00     0.036 A 
HETATM    9  C   UNL     1      -0.632   5.092 -31.926  1.00  0.00     0.037 A 
HETATM   10  C   UNL     1       0.005   5.596 -30.776  1.00  0.00    -0.054 A 
HETATM   11  C   UNL     1      -0.135   6.957 -30.445  1.00  0.00    -0.056 A 
HETATM   12  C   UNL     1       0.839   4.665 -29.937  1.00  0.00     0.049 C 
HETATM   13  C   UNL     1       0.515   7.545 -29.225  1.00  0.00     0.049 C 
HETATM   14  C   UNL     1      -0.946   7.770 -31.247  1.00  0.00     0.009 A 
HETATM   15  C   UNL     1      -1.587   7.252 -32.374  1.00  0.00     0.030 A 
ENDBRANCH   4   8
ENDBRANCH   1   2
BRANCH   1  16
HETATM   16  C   UNL     1      -6.436   4.476 -33.633  1.00  0.00    -0.085 C 
BRANCH  16  17
HETATM   17  C   UNL     1      -7.021   3.320 -33.787  1.00  0.00    -0.078 C 
BRANCH  17  18
HETATM   18  C   UNL     1      -7.703   1.974 -33.968  1.00  0.00     0.269 C 
BRANCH  18  19
HETATM   19  O   UNL     1      -7.312   1.115 -32.903  1.00  0.00    -0.337 OA
BRANCH  19  20
HETATM   20  C   UNL     1      -6.579  -0.009 -33.225  1.00  0.00     0.099 A 
HETATM   21  C   UNL     1      -5.326  -0.398 -32.702  1.00  0.00     0.100 A 
HETATM   22  C   UNL     1      -4.766  -1.602 -33.197  1.00  0.00    -0.005 A 
HETATM   23  N   UNL     1      -4.655   0.321 -31.766  1.00  0.00    -0.257 NA
HETATM   24  C   UNL     1      -3.522  -2.025 -32.708  1.00  0.00     0.015 A 
HETATM   25  C   UNL     1      -5.433  -2.370 -34.164  1.00  0.00     0.014 A 
HETATM   26  C   UNL     1      -2.855  -1.274 -31.753  1.00  0.00     0.020 A 
HETATM   27  C   UNL     1      -3.458  -0.118 -31.316  1.00  0.00     0.117 A 
HETATM   28  C   UNL     1      -6.664  -1.967 -34.662  1.00  0.00     0.004 A 
HETATM   29  C   UNL     1      -7.232  -0.791 -34.193  1.00  0.00     0.039 A 
ENDBRANCH  19  20
ENDBRANCH  18  19
ENDBRANCH  17  18
ENDBRANCH  16  17
ENDBRANCH   1  16
TORSDOF 7
ENDMDL
MODEL 9
REMARK VINA RESULT:      -8.5      2.199      9.375
REMARK  7 active torsions:
REMARK  status: ('A' for Active; 'I' for Inactive)
REMARK    1  A    between atoms: C_6  and  N_7 
REMARK       I    between atoms: N_7  and  C_8 
REMARK       I    between atoms: C_8  and  N_9 
REMARK    2  A    between atoms: N_9  and  C_10 
REMARK    3  A    between atoms: C_10  and  C_11 
REMARK    4  A    between atoms: C_11  and  C_12 
REMARK    5  A    between atoms: C_12  and  C_13 
REMARK    6  A    between atoms: C_13  and  O_14 
REMARK    7  A    between atoms: O_14  and  C_15 
ROOT
HETATM    1  C   UNL     1      -5.061   4.084 -33.574  1.00  0.00     0.219 C 
ENDROOT
BRANCH   1   2
HETATM    2  N   UNL     1      -3.743   4.626 -33.384  1.00  0.00    -0.332 N 
HETATM    3  C   UNL     1      -3.161   5.366 -34.367  1.00  0.00     0.321 C 
HETATM    4  N   UNL     1      -1.928   5.882 -34.118  1.00  0.00    -0.309 N 
HETATM    5  O   UNL     1      -3.674   5.542 -35.471  1.00  0.00    -0.247 OA
HETATM    6  H   UNL     1      -1.481   6.192 -34.972  1.00  0.00     0.170 HD
HETATM    7  H   UNL     1      -3.116   4.150 -32.752  1.00  0.00     0.165 HD
BRANCH   4   8
HETATM    8  C   UNL     1      -1.281   6.228 -32.918  1.00  0.00     0.036 A 
HETATM    9  C   UNL     1      -0.479   5.355 -32.181  1.00  0.00     0.037 A 
HETATM   10  C   UNL     1       0.080   5.743 -30.948  1.00  0.00    -0.054 A 
HETATM   11  C   UNL     1      -0.156   7.041 -30.458  1.00  0.00    -0.056 A 
HETATM   12  C   UNL     1       0.933   4.759 -30.193  1.00  0.00     0.049 C 
HETATM   13  C   UNL     1       0.408   7.504 -29.143  1.00  0.00     0.049 C 
HETATM   14  C   UNL     1      -0.981   7.905 -31.190  1.00  0.00     0.009 A 
HETATM   15  C   UNL     1      -1.542   7.499 -32.403  1.00  0.00     0.030 A 
ENDBRANCH   4   8
ENDBRANCH   1   2
BRANCH   1  16
HETATM   16  C   UNL     1      -5.563   3.371 -32.329  1.00  0.00    -0.085 C 
BRANCH  16  17
HETATM   17  C   UNL     1      -5.994   2.759 -31.261  1.00  0.00    -0.078 C 
BRANCH  17  18
HETATM   18  C   UNL     1      -6.497   2.046 -30.016  1.00  0.00     0.269 C 
BRANCH  18  19
HETATM   19  O   UNL     1      -6.360   0.642 -30.205  1.00  0.00    -0.337 OA
BRANCH  19  20
HETATM   20  C   UNL     1      -6.774   0.115 -31.411  1.00  0.00     0.099 A 
HETATM   21  C   UNL     1      -6.027  -0.689 -32.300  1.00  0.00     0.100 A 
HETATM   22  C   UNL     1      -6.674  -1.107 -33.489  1.00  0.00    -0.005 A 
HETATM   23  N   UNL     1      -4.744  -1.065 -32.064  1.00  0.00    -0.257 NA
HETATM   24  C   UNL     1      -5.970  -1.904 -34.404  1.00  0.00     0.015 A 
HETATM   25  C   UNL     1      -8.000  -0.737 -33.765  1.00  0.00     0.014 A 
HETATM   26  C   UNL     1      -4.660  -2.275 -34.141  1.00  0.00     0.020 A 
HETATM   27  C   UNL     1      -4.096  -1.834 -32.967  1.00  0.00     0.117 A 
HETATM   28  C   UNL     1      -8.713   0.053 -32.874  1.00  0.00     0.004 A 
HETATM   29  C   UNL     1      -8.101   0.476 -31.703  1.00  0.00     0.039 A 
ENDBRANCH  19  20
ENDBRANCH  18  19
ENDBRANCH  17  18
ENDBRANCH  16  17
ENDBRANCH   1  16
TORSDOF 7
ENDMDL
MODEL 10
REMARK VINA RESULT:      -8.4      2.349      3.408
REMARK  7 active torsions:
REMARK  status: ('A' for Active; 'I' for Inactive)
REMARK    1  A    between atoms: C_6  and  N_7 
REMARK       I    between atoms: N_7  and  C_8 
REMARK       I    between atoms: C_8  and  N_9 
REMARK    2  A    between atoms: N_9  and  C_10 
REMARK    3  A    between atoms: C_10  and  C_11 
REMARK    4  A    between atoms: C_11  and  C_12 
REMARK    5  A    between atoms: C_12  and  C_13 
REMARK    6  A    between atoms: C_13  and  O_14 
REMARK    7  A    between atoms: O_14  and  C_15 
ROOT
HETATM    1  C   UNL     1      -5.468   1.690 -30.241  1.00  0.00     0.219 C 
ENDROOT
BRANCH   1   2
HETATM    2  N   UNL     1      -5.174   0.893 -31.401  1.00  0.00    -0.332 N 
HETATM    3  C   UNL     1      -3.892   0.775 -31.842  1.00  0.00     0.321 C 
HETATM    4  N   UNL     1      -3.670  -0.020 -32.923  1.00  0.00    -0.309 N 
HETATM    5  O   UNL     1      -2.949   1.388 -31.344  1.00  0.00    -0.247 OA
HETATM    6  H   UNL     1      -2.755   0.151 -33.322  1.00  0.00     0.170 HD
HETATM    7  H   UNL     1      -5.898   0.771 -32.093  1.00  0.00     0.165 HD
BRANCH   4   8
HETATM    8  C   UNL     1      -4.373  -1.125 -33.435  1.00  0.00     0.036 A 
HETATM    9  C   UNL     1      -3.899  -2.437 -33.406  1.00  0.00     0.037 A 
HETATM   10  C   UNL     1      -4.622  -3.487 -34.005  1.00  0.00    -0.054 A 
HETATM   11  C   UNL     1      -5.855  -3.214 -34.626  1.00  0.00    -0.056 A 
HETATM   12  C   UNL     1      -4.061  -4.883 -33.948  1.00  0.00     0.049 C 
HETATM   13  C   UNL     1      -6.663  -4.295 -35.289  1.00  0.00     0.049 C 
HETATM   14  C   UNL     1      -6.314  -1.891 -34.673  1.00  0.00     0.009 A 
HETATM   15  C   UNL     1      -5.577  -0.858 -34.091  1.00  0.00     0.030 A 
ENDBRANCH   4   8
ENDBRANCH   1   2
BRANCH   1  16
HETATM   16  C   UNL     1      -5.817   3.122 -30.613  1.00  0.00    -0.085 C 
BRANCH  16  17
HETATM   17  C   UNL     1      -6.117   4.350 -30.931  1.00  0.00    -0.078 C 
BRANCH  17  18
HETATM   18  C   UNL     1      -6.468   5.783 -31.300  1.00  0.00     0.269 C 
BRANCH  18  19
HETATM   19  O   UNL     1      -5.819   6.113 -32.522  1.00  0.00    -0.337 OA
BRANCH  19  20
HETATM   20  C   UNL     1      -4.556   6.664 -32.446  1.00  0.00     0.099 A 
HETATM   21  C   UNL     1      -3.423   6.329 -33.220  1.00  0.00     0.100 A 
HETATM   22  C   UNL     1      -2.226   7.037 -32.951  1.00  0.00    -0.005 A 
HETATM   23  N   UNL     1      -3.439   5.377 -34.188  1.00  0.00    -0.257 NA
HETATM   24  C   UNL     1      -1.075   6.735 -33.694  1.00  0.00     0.015 A 
HETATM   25  C   UNL     1      -2.174   8.028 -31.959  1.00  0.00     0.014 A 
HETATM   26  C   UNL     1      -1.115   5.759 -34.677  1.00  0.00     0.020 A 
HETATM   27  C   UNL     1      -2.311   5.112 -34.885  1.00  0.00     0.117 A 
HETATM   28  C   UNL     1      -3.302   8.340 -31.212  1.00  0.00     0.004 A 
HETATM   29  C   UNL     1      -4.486   7.660 -31.457  1.00  0.00     0.039 A 
ENDBRANCH  19  20
ENDBRANCH  18  19
ENDBRANCH  17  18
ENDBRANCH  16  17
ENDBRANCH   1  16
TORSDOF 7
ENDMDL
