MODEL 1
REMARK VINA RESULT:      -9.3      0.000      0.000
REMARK  8 active torsions:
REMARK  status: ('A' for Active; 'I' for Inactive)
REMARK    1  A    between atoms: C_4  and  N_5 
REMARK    2  A    between atoms: C_8  and  C_9 
REMARK    3  A    between atoms: C_9  and  N_10 
REMARK       I    between atoms: N_10  and  C_11 
REMARK       I    between atoms: C_11  and  N_12 
REMARK    4  A    between atoms: N_12  and  C_13 
REMARK    5  A    between atoms: C_13  and  C_14 
REMARK    6  A    between atoms: C_14  and  N_15 
REMARK       I    between atoms: N_15  and  C_16 
REMARK    7  A    between atoms: C_16  and  C_17 
REMARK    8  A    between atoms: C_18  and  O_19 
ROOT
HETATM    1  N   UNL     1      -5.213   3.077 -33.158  1.00  0.00    -0.339 N 
HETATM    2  C   UNL     1      -4.880   4.242 -33.792  1.00  0.00     0.316 C 
HETATM    3  N   UNL     1      -3.556   4.545 -33.655  1.00  0.00    -0.342 N 
HETATM    4  O   UNL     1      -5.672   4.909 -34.446  1.00  0.00    -0.248 OA
HETATM    5  H   UNL     1      -4.623   2.769 -32.403  1.00  0.00     0.164 HD
HETATM    6  H   UNL     1      -3.022   4.100 -32.925  1.00  0.00     0.164 HD
ENDROOT
BRANCH   1   7
HETATM    7  C   UNL     1      -6.578   2.614 -33.190  1.00  0.00     0.166 C 
BRANCH   7   8
HETATM    8  C   UNL     1      -6.621   1.272 -33.820  1.00  0.00    -0.004 A 
HETATM    9  C   UNL     1      -7.351   0.883 -34.959  1.00  0.00     0.149 A 
HETATM   10  N   UNL     1      -7.166  -0.396 -35.283  1.00  0.00    -0.180 NA
HETATM   11  N   UNL     1      -6.287  -0.866 -34.358  1.00  0.00    -0.245 N 
HETATM   12  C   UNL     1      -5.946   0.122 -33.459  1.00  0.00     0.129 A 
BRANCH  11  13
HETATM   13  C   UNL     1      -5.838  -2.217 -34.396  1.00  0.00     0.058 A 
HETATM   14  C   UNL     1      -6.730  -3.229 -34.785  1.00  0.00     0.031 A 
HETATM   15  C   UNL     1      -6.310  -4.560 -34.831  1.00  0.00     0.002 A 
HETATM   16  C   UNL     1      -5.001  -4.891 -34.490  1.00  0.00     0.000 A 
HETATM   17  C   UNL     1      -4.109  -3.892 -34.101  1.00  0.00     0.002 A 
HETATM   18  C   UNL     1      -4.522  -2.556 -34.054  1.00  0.00     0.031 A 
ENDBRANCH  11  13
ENDBRANCH   7   8
ENDBRANCH   1   7
BRANCH   3  19
HETATM   19  C   UNL     1      -2.988   5.749 -34.239  1.00  0.00     0.144 C 
BRANCH  19  20
HETATM   20  C   UNL     1      -1.469   5.833 -34.048  1.00  0.00     0.142 C 
BRANCH  20  21
HETATM   21  N   UNL     1      -1.078   6.305 -32.730  1.00  0.00    -0.355 N 
HETATM   22  C   UNL     1      -0.954   5.460 -31.653  1.00  0.00     0.254 C 
HETATM   23  O   UNL     1      -1.292   4.281 -31.700  1.00  0.00    -0.268 OA
HETATM   24  H   UNL     1      -0.685   7.239 -32.639  1.00  0.00     0.162 HD
BRANCH  22  25
HETATM   25  C   UNL     1      -0.391   6.033 -30.389  1.00  0.00     0.065 A 
HETATM   26  C   UNL     1       0.409   5.326 -29.477  1.00  0.00     0.081 A 
HETATM   27  C   UNL     1       0.884   5.946 -28.317  1.00  0.00     0.037 A 
HETATM   28  C   UNL     1       0.565   7.280 -28.056  1.00  0.00     0.003 A 
HETATM   29  C   UNL     1      -0.229   7.994 -28.949  1.00  0.00     0.001 A 
HETATM   30  C   UNL     1      -0.704   7.375 -30.106  1.00  0.00     0.020 A 
BRANCH  26  31
HETATM   31  O   UNL     1       0.738   4.013 -29.699  1.00  0.00    -0.360 OA
HETATM   32  H   UNL     1       0.714   3.538 -28.849  1.00  0.00     0.217 HD
ENDBRANCH  26  31
ENDBRANCH  22  25
ENDBRANCH  20  21
ENDBRANCH  19  20
ENDBRANCH   3  19
TORSDOF 8
ENDMDL
MODEL 2
REMARK VINA RESULT:      -9.1      1.718      2.266
REMARK  8 active torsions:
REMARK  status: ('A' for Active; 'I' for Inactive)
REMARK    1  A    between atoms: C_4  and  N_5 
REMARK    2  A    between atoms: C_8  and  C_9 
REMARK    3  A    between atoms: C_9  and  N_10 
REMARK       I    between atoms: N_10  and  C_11 
REMARK       I    between atoms: C_11  and  N_12 
REMARK    4  A    between atoms: N_12  and  C_13 
REMARK    5  A    between atoms: C_13  and  C_14 
REMARK    6  A    between atoms: C_14  and  N_15 
REMARK       I    between atoms: N_15  and  C_16 
REMARK    7  A    between atoms: C_16  and  C_17 
REMARK    8  A    between atoms: C_18  and  O_19 
ROOT
HETATM    1  N   UNL     1      -3.199   2.824 -32.646  1.00  0.00    -0.339 N 
HETATM    2  C   UNL     1      -3.279   4.188 -32.609  1.00  0.00     0.316 C 
HETATM    3  N   UNL     1      -2.657   4.771 -33.675  1.00  0.00    -0.342 N 
HETATM    4  O   UNL     1      -3.883   4.809 -31.744  1.00  0.00    -0.248 OA
HETATM    5  H   UNL     1      -2.448   2.412 -33.174  1.00  0.00     0.164 HD
HETATM    6  H   UNL     1      -1.991   4.236 -34.209  1.00  0.00     0.164 HD
ENDROOT
BRANCH   1   7
HETATM    7  C   UNL     1      -3.794   2.046 -31.586  1.00  0.00     0.166 C 
BRANCH   7   8
HETATM    8  C   UNL     1      -3.792   0.615 -31.974  1.00  0.00    -0.004 A 
HETATM    9  C   UNL     1      -2.936  -0.399 -31.504  1.00  0.00     0.149 A 
HETATM   10  N   UNL     1      -3.200  -1.590 -32.039  1.00  0.00    -0.180 NA
HETATM   11  N   UNL     1      -4.258  -1.375 -32.866  1.00  0.00    -0.245 N 
HETATM   12  C   UNL     1      -4.632  -0.048 -32.848  1.00  0.00     0.129 A 
BRANCH  11  13
HETATM   13  C   UNL     1      -4.833  -2.443 -33.611  1.00  0.00     0.058 A 
HETATM   14  C   UNL     1      -4.122  -3.645 -33.754  1.00  0.00     0.031 A 
HETATM   15  C   UNL     1      -4.668  -4.707 -34.478  1.00  0.00     0.002 A 
HETATM   16  C   UNL     1      -5.925  -4.577 -35.065  1.00  0.00     0.000 A 
HETATM   17  C   UNL     1      -6.637  -3.386 -34.929  1.00  0.00     0.002 A 
HETATM   18  C   UNL     1      -6.097  -2.320 -34.203  1.00  0.00     0.031 A 
ENDBRANCH  11  13
ENDBRANCH   7   8
ENDBRANCH   1   7
BRANCH   3  19
HETATM   19  C   UNL     1      -2.609   6.215 -33.830  1.00  0.00     0.144 C 
BRANCH  19  20
HETATM   20  C   UNL     1      -1.206   6.786 -33.587  1.00  0.00     0.142 C 
BRANCH  20  21
HETATM   21  N   UNL     1      -0.891   6.965 -32.180  1.00  0.00    -0.355 N 
HETATM   22  C   UNL     1      -0.260   5.995 -31.438  1.00  0.00     0.254 C 
HETATM   23  O   UNL     1      -0.040   4.870 -31.877  1.00  0.00    -0.268 OA
HETATM   24  H   UNL     1      -0.946   7.899 -31.780  1.00  0.00     0.162 HD
BRANCH  22  25
HETATM   25  C   UNL     1       0.156   6.356 -30.045  1.00  0.00     0.065 A 
HETATM   26  C   UNL     1       0.666   5.449 -29.103  1.00  0.00     0.081 A 
HETATM   27  C   UNL     1       1.020   5.879 -27.820  1.00  0.00     0.037 A 
HETATM   28  C   UNL     1       0.869   7.221 -27.465  1.00  0.00     0.003 A 
HETATM   29  C   UNL     1       0.362   8.132 -28.388  1.00  0.00     0.001 A 
HETATM   30  C   UNL     1       0.007   7.702 -29.667  1.00  0.00     0.020 A 
BRANCH  26  31
HETATM   31  O   UNL     1       0.824   4.122 -29.414  1.00  0.00    -0.360 OA
HETATM   32  H   UNL     1       1.770   3.948 -29.566  1.00  0.00     0.217 HD
ENDBRANCH  26  31
ENDBRANCH  22  25
ENDBRANCH  20  21
ENDBRANCH  19  20
ENDBRANCH   3  19
TORSDOF 8
ENDMDL
MODEL 3
REMARK VINA RESULT:      -8.9      1.438      1.689
REMARK  8 active torsions:
REMARK  status: ('A' for Active; 'I' for Inactive)
REMARK    1  A    between atoms: C_4  and  N_5 
REMARK    2  A    between atoms: C_8  and  C_9 
REMARK    3  A    between atoms: C_9  and  N_10 
REMARK       I    between atoms: N_10  and  C_11 
REMARK       I    between atoms: C_11  and  N_12 
REMARK    4  A    between atoms: N_12  and  C_13 
REMARK    5  A    between atoms: C_13  and  C_14 
REMARK    6  A    between atoms: C_14  and  N_15 
REMARK       I    between atoms: N_15  and  C_16 
REMARK    7  A    between atoms: C_16  and  C_17 
REMARK    8  A    between atoms: C_18  and  O_19 
ROOT
HETATM    1  N   UNL     1      -4.390   3.726 -32.875  1.00  0.00    -0.339 N 
HETATM    2  C   UNL     1      -3.104   4.148 -33.065  1.00  0.00     0.316 C 
HETATM    3  N   UNL     1      -2.983   4.967 -34.151  1.00  0.00    -0.342 N 
HETATM    4  O   UNL     1      -2.179   3.862 -32.316  1.00  0.00    -0.248 OA
HETATM    5  H   UNL     1      -5.006   3.727 -33.672  1.00  0.00     0.164 HD
HETATM    6  H   UNL     1      -3.712   4.971 -34.847  1.00  0.00     0.164 HD
ENDROOT
BRANCH   1   7
HETATM    7  C   UNL     1      -4.696   2.841 -31.778  1.00  0.00     0.166 C 
BRANCH   7   8
HETATM    8  C   UNL     1      -5.372   1.631 -32.303  1.00  0.00    -0.004 A 
HETATM    9  C   UNL     1      -6.755   1.417 -32.450  1.00  0.00     0.149 A 
HETATM   10  N   UNL     1      -7.045   0.225 -32.967  1.00  0.00    -0.180 NA
HETATM   11  N   UNL     1      -5.839  -0.364 -33.185  1.00  0.00    -0.245 N 
HETATM   12  C   UNL     1      -4.811   0.464 -32.787  1.00  0.00     0.129 A 
BRANCH  11  13
HETATM   13  C   UNL     1      -5.752  -1.666 -33.753  1.00  0.00     0.058 A 
HETATM   14  C   UNL     1      -6.912  -2.279 -34.253  1.00  0.00     0.031 A 
HETATM   15  C   UNL     1      -6.849  -3.555 -34.816  1.00  0.00     0.002 A 
HETATM   16  C   UNL     1      -5.632  -4.229 -34.883  1.00  0.00     0.000 A 
HETATM   17  C   UNL     1      -4.475  -3.628 -34.388  1.00  0.00     0.002 A 
HETATM   18  C   UNL     1      -4.530  -2.350 -33.824  1.00  0.00     0.031 A 
ENDBRANCH  11  13
ENDBRANCH   7   8
ENDBRANCH   1   7
BRANCH   3  19
HETATM   19  C   UNL     1      -1.699   5.521 -34.545  1.00  0.00     0.144 C 
BRANCH  19  20
HETATM   20  C   UNL     1      -1.448   6.908 -33.939  1.00  0.00     0.142 C 
BRANCH  20  21
HETATM   21  N   UNL     1      -0.745   6.865 -32.668  1.00  0.00    -0.355 N 
HETATM   22  C   UNL     1      -1.352   7.196 -31.480  1.00  0.00     0.254 C 
HETATM   23  O   UNL     1      -2.482   7.675 -31.430  1.00  0.00    -0.268 OA
HETATM   24  H   UNL     1       0.149   6.383 -32.618  1.00  0.00     0.162 HD
BRANCH  22  25
HETATM   25  C   UNL     1      -0.577   6.959 -30.221  1.00  0.00     0.065 A 
HETATM   26  C   UNL     1      -0.007   5.730 -29.853  1.00  0.00     0.081 A 
HETATM   27  C   UNL     1       0.695   5.602 -28.650  1.00  0.00     0.037 A 
HETATM   28  C   UNL     1       0.835   6.702 -27.802  1.00  0.00     0.003 A 
HETATM   29  C   UNL     1       0.274   7.927 -28.151  1.00  0.00     0.001 A 
HETATM   30  C   UNL     1      -0.428   8.053 -29.351  1.00  0.00     0.020 A 
BRANCH  26  31
HETATM   31  O   UNL     1      -0.128   4.626 -30.660  1.00  0.00    -0.360 OA
HETATM   32  H   UNL     1      -1.072   4.401 -30.740  1.00  0.00     0.217 HD
ENDBRANCH  26  31
ENDBRANCH  22  25
ENDBRANCH  20  21
ENDBRANCH  19  20
ENDBRANCH   3  19
TORSDOF 8
ENDMDL
MODEL 4
REMARK VINA RESULT:      -8.6      3.305      4.618
REMARK  8 active torsions:
REMARK  status: ('A' for Active; 'I' for Inactive)
REMARK    1  A    between atoms: C_4  and  N_5 
REMARK    2  A    between atoms: C_8  and  C_9 
REMARK    3  A    between atoms: C_9  and  N_10 
REMARK       I    between atoms: N_10  and  C_11 
REMARK       I    between atoms: C_11  and  N_12 
REMARK    4  A    between atoms: N_12  and  C_13 
REMARK    5  A    between atoms: C_13  and  C_14 
REMARK    6  A    between atoms: C_14  and  N_15 
REMARK       I    between atoms: N_15  and  C_16 
REMARK    7  A    between atoms: C_16  and  C_17 
REMARK    8  A    between atoms: C_18  and  O_19 
ROOT
HETATM    1  N   UNL     1      -9.233   1.812 -31.239  1.00  0.00    -0.339 N 
HETATM    2  C   UNL     1      -8.463   2.934 -31.121  1.00  0.00     0.316 C 
HETATM    3  N   UNL     1      -7.930   3.067 -29.871  1.00  0.00    -0.342 N 
HETATM    4  O   UNL     1      -8.238   3.704 -32.046  1.00  0.00    -0.248 OA
HETATM    5  H   UNL     1      -9.625   1.421 -30.397  1.00  0.00     0.164 HD
HETATM    6  H   UNL     1      -8.333   2.547 -29.106  1.00  0.00     0.164 HD
ENDROOT
BRANCH   1   7
HETATM    7  C   UNL     1      -9.886   1.524 -32.493  1.00  0.00     0.166 C 
BRANCH   7   8
HETATM    8  C   UNL     1      -8.985   0.696 -33.330  1.00  0.00    -0.004 A 
HETATM    9  C   UNL     1      -8.789   0.781 -34.721  1.00  0.00     0.149 A 
HETATM   10  N   UNL     1      -7.898  -0.098 -35.176  1.00  0.00    -0.180 NA
HETATM   11  N   UNL     1      -7.478  -0.772 -34.071  1.00  0.00    -0.245 N 
HETATM   12  C   UNL     1      -8.124  -0.314 -32.943  1.00  0.00     0.129 A 
BRANCH  11  13
HETATM   13  C   UNL     1      -6.497  -1.799 -34.170  1.00  0.00     0.058 A 
HETATM   14  C   UNL     1      -6.841  -3.026 -34.758  1.00  0.00     0.031 A 
HETATM   15  C   UNL     1      -5.895  -4.047 -34.867  1.00  0.00     0.002 A 
HETATM   16  C   UNL     1      -4.601  -3.852 -34.390  1.00  0.00     0.000 A 
HETATM   17  C   UNL     1      -4.251  -2.637 -33.803  1.00  0.00     0.002 A 
HETATM   18  C   UNL     1      -5.193  -1.609 -33.692  1.00  0.00     0.031 A 
ENDBRANCH  11  13
ENDBRANCH   7   8
ENDBRANCH   1   7
BRANCH   3  19
HETATM   19  C   UNL     1      -7.087   4.197 -29.520  1.00  0.00     0.144 C 
BRANCH  19  20
HETATM   20  C   UNL     1      -5.605   3.815 -29.417  1.00  0.00     0.142 C 
BRANCH  20  21
HETATM   21  N   UNL     1      -4.817   4.242 -30.561  1.00  0.00    -0.355 N 
HETATM   22  C   UNL     1      -4.759   3.517 -31.727  1.00  0.00     0.254 C 
HETATM   23  O   UNL     1      -5.259   2.401 -31.832  1.00  0.00    -0.268 OA
HETATM   24  H   UNL     1      -4.466   5.197 -30.586  1.00  0.00     0.162 HD
BRANCH  22  25
HETATM   25  C   UNL     1      -4.047   4.137 -32.889  1.00  0.00     0.065 A 
HETATM   26  C   UNL     1      -4.677   4.629 -34.043  1.00  0.00     0.081 A 
HETATM   27  C   UNL     1      -3.925   5.186 -35.083  1.00  0.00     0.037 A 
HETATM   28  C   UNL     1      -2.535   5.257 -34.980  1.00  0.00     0.003 A 
HETATM   29  C   UNL     1      -1.894   4.771 -33.843  1.00  0.00     0.001 A 
HETATM   30  C   UNL     1      -2.645   4.214 -32.806  1.00  0.00     0.020 A 
BRANCH  26  31
HETATM   31  O   UNL     1      -6.041   4.571 -34.181  1.00  0.00    -0.360 OA
HETATM   32  H   UNL     1      -6.415   4.121 -33.403  1.00  0.00     0.217 HD
ENDBRANCH  26  31
ENDBRANCH  22  25
ENDBRANCH  20  21
ENDBRANCH  19  20
ENDBRANCH   3  19
TORSDOF 8
ENDMDL
MODEL 5
REMARK VINA RESULT:      -8.6      3.985      7.058
REMARK  8 active torsions:
REMARK  status: ('A' for Active; 'I' for Inactive)
REMARK    1  A    between atoms: C_4  and  N_5 
REMARK    2  A    between atoms: C_8  and  C_9 
REMARK    3  A    between atoms: C_9  and  N_10 
REMARK       I    between atoms: N_10  and  C_11 
REMARK       I    between atoms: C_11  and  N_12 
REMARK    4  A    between atoms: N_12  and  C_13 
REMARK    5  A    between atoms: C_13  and  C_14 
REMARK    6  A    between atoms: C_14  and  N_15 
REMARK       I    between atoms: N_15  and  C_16 
REMARK    7  A    between atoms: C_16  and  C_17 
REMARK    8  A    between atoms: C_18  and  O_19 
ROOT
HETATM    1  N   UNL     1      -3.953   2.453 -30.811  1.00  0.00    -0.339 N 
HETATM    2  C   UNL     1      -4.787   3.535 -30.746  1.00  0.00     0.316 C 
HETATM    3  N   UNL     1      -5.257   3.751 -29.483  1.00  0.00    -0.342 N 
HETATM    4  O   UNL     1      -5.041   4.254 -31.704  1.00  0.00    -0.248 OA
HETATM    5  H   UNL     1      -4.044   1.748 -30.097  1.00  0.00     0.164 HD
HETATM    6  H   UNL     1      -5.206   3.007 -28.805  1.00  0.00     0.164 HD
ENDROOT
BRANCH   1   7
HETATM    7  C   UNL     1      -3.376   2.073 -32.077  1.00  0.00     0.166 C 
BRANCH   7   8
HETATM    8  C   UNL     1      -3.498   0.605 -32.245  1.00  0.00    -0.004 A 
HETATM    9  C   UNL     1      -2.906  -0.400 -31.457  1.00  0.00     0.149 A 
HETATM   10  N   UNL     1      -3.221  -1.630 -31.859  1.00  0.00    -0.180 NA
HETATM   11  N   UNL     1      -4.050  -1.447 -32.922  1.00  0.00    -0.245 N 
HETATM   12  C   UNL     1      -4.229  -0.104 -33.178  1.00  0.00     0.129 A 
BRANCH  11  13
HETATM   13  C   UNL     1      -4.608  -2.558 -33.614  1.00  0.00     0.058 A 
HETATM   14  C   UNL     1      -3.939  -3.792 -33.590  1.00  0.00     0.031 A 
HETATM   15  C   UNL     1      -4.470  -4.897 -34.260  1.00  0.00     0.002 A 
HETATM   16  C   UNL     1      -5.669  -4.778 -34.959  1.00  0.00     0.000 A 
HETATM   17  C   UNL     1      -6.339  -3.556 -34.989  1.00  0.00     0.002 A 
HETATM   18  C   UNL     1      -5.815  -2.446 -34.319  1.00  0.00     0.031 A 
ENDBRANCH  11  13
ENDBRANCH   7   8
ENDBRANCH   1   7
BRANCH   3  19
HETATM   19  C   UNL     1      -6.170   4.842 -29.188  1.00  0.00     0.144 C 
BRANCH  19  20
HETATM   20  C   UNL     1      -7.613   4.362 -28.986  1.00  0.00     0.142 C 
BRANCH  20  21
HETATM   21  N   UNL     1      -7.954   3.204 -29.794  1.00  0.00    -0.355 N 
HETATM   22  C   UNL     1      -8.618   3.313 -30.993  1.00  0.00     0.254 C 
HETATM   23  O   UNL     1      -9.079   4.377 -31.394  1.00  0.00    -0.268 OA
HETATM   24  H   UNL     1      -7.517   2.310 -29.581  1.00  0.00     0.162 HD
BRANCH  22  25
HETATM   25  C   UNL     1      -8.771   2.068 -31.811  1.00  0.00     0.065 A 
HETATM   26  C   UNL     1      -9.944   1.693 -32.485  1.00  0.00     0.081 A 
HETATM   27  C   UNL     1      -9.994   0.504 -33.219  1.00  0.00     0.037 A 
HETATM   28  C   UNL     1      -8.872  -0.323 -33.289  1.00  0.00     0.003 A 
HETATM   29  C   UNL     1      -7.702   0.033 -32.625  1.00  0.00     0.001 A 
HETATM   30  C   UNL     1      -7.652   1.219 -31.890  1.00  0.00     0.020 A 
BRANCH  26  31
HETATM   31  O   UNL     1     -11.068   2.479 -32.435  1.00  0.00    -0.360 OA
HETATM   32  H   UNL     1     -10.972   3.201 -33.080  1.00  0.00     0.217 HD
ENDBRANCH  26  31
ENDBRANCH  22  25
ENDBRANCH  20  21
ENDBRANCH  19  20
ENDBRANCH   3  19
TORSDOF 8
ENDMDL
MODEL 6
REMARK VINA RESULT:      -8.3      2.189      3.112
REMARK  8 active torsions:
REMARK  status: ('A' for Active; 'I' for Inactive)
REMARK    1  A    between atoms: C_4  and  N_5 
REMARK    2  A    between atoms: C_8  and  C_9 
REMARK    3  A    between atoms: C_9  and  N_10 
REMARK       I    between atoms: N_10  and  C_11 
REMARK       I    between atoms: C_11  and  N_12 
REMARK    4  A    between atoms: N_12  and  C_13 
REMARK    5  A    between atoms: C_13  and  C_14 
REMARK    6  A    between atoms: C_14  and  N_15 
REMARK       I    between atoms: N_15  and  C_16 
REMARK    7  A    between atoms: C_16  and  C_17 
REMARK    8  A    between atoms: C_18  and  O_19 
ROOT
HETATM    1  N   UNL     1      -7.038   3.079 -33.016  1.00  0.00    -0.339 N 
HETATM    2  C   UNL     1      -6.331   3.140 -31.848  1.00  0.00     0.316 C 
HETATM    3  N   UNL     1      -7.100   3.551 -30.798  1.00  0.00    -0.342 N 
HETATM    4  O   UNL     1      -5.154   2.815 -31.749  1.00  0.00    -0.248 OA
HETATM    5  H   UNL     1      -7.868   3.645 -33.092  1.00  0.00     0.164 HD
HETATM    6  H   UNL     1      -7.972   4.022 -30.982  1.00  0.00     0.164 HD
ENDROOT
BRANCH   1   7
HETATM    7  C   UNL     1      -6.375   2.675 -34.231  1.00  0.00     0.166 C 
BRANCH   7   8
HETATM    8  C   UNL     1      -6.605   1.226 -34.451  1.00  0.00    -0.004 A 
HETATM    9  C   UNL     1      -7.744   0.614 -35.005  1.00  0.00     0.149 A 
HETATM   10  N   UNL     1      -7.637  -0.711 -35.081  1.00  0.00    -0.180 NA
HETATM   11  N   UNL     1      -6.401  -0.990 -34.587  1.00  0.00    -0.245 N 
HETATM   12  C   UNL     1      -5.759   0.165 -34.194  1.00  0.00     0.129 A 
BRANCH  11  13
HETATM   13  C   UNL     1      -5.924  -2.330 -34.524  1.00  0.00     0.058 A 
HETATM   14  C   UNL     1      -4.612  -2.574 -34.086  1.00  0.00     0.031 A 
HETATM   15  C   UNL     1      -4.124  -3.880 -34.014  1.00  0.00     0.002 A 
HETATM   16  C   UNL     1      -4.939  -4.951 -34.378  1.00  0.00     0.000 A 
HETATM   17  C   UNL     1      -6.242  -4.717 -34.814  1.00  0.00     0.002 A 
HETATM   18  C   UNL     1      -6.738  -3.411 -34.887  1.00  0.00     0.031 A 
ENDBRANCH  11  13
ENDBRANCH   7   8
ENDBRANCH   1   7
BRANCH   3  19
HETATM   19  C   UNL     1      -6.546   3.700 -29.463  1.00  0.00     0.144 C 
BRANCH  19  20
HETATM   20  C   UNL     1      -5.910   5.078 -29.240  1.00  0.00     0.142 C 
BRANCH  20  21
HETATM   21  N   UNL     1      -4.547   5.171 -29.737  1.00  0.00    -0.355 N 
HETATM   22  C   UNL     1      -4.212   5.944 -30.824  1.00  0.00     0.254 C 
HETATM   23  O   UNL     1      -5.056   6.497 -31.522  1.00  0.00    -0.268 OA
HETATM   24  H   UNL     1      -3.787   4.830 -29.154  1.00  0.00     0.162 HD
BRANCH  22  25
HETATM   25  C   UNL     1      -2.755   6.088 -31.143  1.00  0.00     0.065 A 
HETATM   26  C   UNL     1      -1.860   5.018 -31.292  1.00  0.00     0.081 A 
HETATM   27  C   UNL     1      -0.512   5.253 -31.582  1.00  0.00     0.037 A 
HETATM   28  C   UNL     1      -0.045   6.560 -31.727  1.00  0.00     0.003 A 
HETATM   29  C   UNL     1      -0.920   7.633 -31.580  1.00  0.00     0.001 A 
HETATM   30  C   UNL     1      -2.265   7.398 -31.288  1.00  0.00     0.020 A 
BRANCH  26  31
HETATM   31  O   UNL     1      -2.282   3.720 -31.152  1.00  0.00    -0.360 OA
HETATM   32  H   UNL     1      -2.037   3.224 -31.953  1.00  0.00     0.217 HD
ENDBRANCH  26  31
ENDBRANCH  22  25
ENDBRANCH  20  21
ENDBRANCH  19  20
ENDBRANCH   3  19
TORSDOF 8
ENDMDL
MODEL 7
REMARK VINA RESULT:      -8.3      1.816      2.255
REMARK  8 active torsions:
REMARK  status: ('A' for Active; 'I' for Inactive)
REMARK    1  A    between atoms: C_4  and  N_5 
REMARK    2  A    between atoms: C_8  and  C_9 
REMARK    3  A    between atoms: C_9  and  N_10 
REMARK       I    between atoms: N_10  and  C_11 
REMARK       I    between atoms: C_11  and  N_12 
REMARK    4  A    between atoms: N_12  and  C_13 
REMARK    5  A    between atoms: C_13  and  C_14 
REMARK    6  A    between atoms: C_14  and  N_15 
REMARK       I    between atoms: N_15  and  C_16 
REMARK    7  A    between atoms: C_16  and  C_17 
REMARK    8  A    between atoms: C_18  and  O_19 
ROOT
HETATM    1  N   UNL     1      -6.027   4.135 -33.626  1.00  0.00    -0.339 N 
HETATM    2  C   UNL     1      -4.698   4.449 -33.567  1.00  0.00     0.316 C 
HETATM    3  N   UNL     1      -4.225   4.926 -34.755  1.00  0.00    -0.342 N 
HETATM    4  O   UNL     1      -4.024   4.358 -32.548  1.00  0.00    -0.248 OA
HETATM    5  H   UNL     1      -6.420   3.931 -34.531  1.00  0.00     0.164 HD
HETATM    6  H   UNL     1      -4.751   4.756 -35.598  1.00  0.00     0.164 HD
ENDROOT
BRANCH   1   7
HETATM    7  C   UNL     1      -6.687   3.604 -32.459  1.00  0.00     0.166 C 
BRANCH   7   8
HETATM    8  C   UNL     1      -6.482   2.136 -32.412  1.00  0.00    -0.004 A 
HETATM    9  C   UNL     1      -6.500   1.305 -31.276  1.00  0.00     0.149 A 
HETATM   10  N   UNL     1      -6.295   0.021 -31.567  1.00  0.00    -0.180 NA
HETATM   11  N   UNL     1      -6.154  -0.010 -32.920  1.00  0.00    -0.245 N 
HETATM   12  C   UNL     1      -6.258   1.257 -33.453  1.00  0.00     0.129 A 
BRANCH  11  13
HETATM   13  C   UNL     1      -5.930  -1.239 -33.603  1.00  0.00     0.058 A 
HETATM   14  C   UNL     1      -7.027  -1.968 -34.088  1.00  0.00     0.031 A 
HETATM   15  C   UNL     1      -6.830  -3.174 -34.764  1.00  0.00     0.002 A 
HETATM   16  C   UNL     1      -5.540  -3.662 -34.959  1.00  0.00     0.000 A 
HETATM   17  C   UNL     1      -4.445  -2.945 -34.479  1.00  0.00     0.002 A 
HETATM   18  C   UNL     1      -4.634  -1.735 -33.804  1.00  0.00     0.031 A 
ENDBRANCH  11  13
ENDBRANCH   7   8
ENDBRANCH   1   7
BRANCH   3  19
HETATM   19  C   UNL     1      -2.833   5.309 -34.920  1.00  0.00     0.144 C 
BRANCH  19  20
HETATM   20  C   UNL     1      -2.501   6.631 -34.216  1.00  0.00     0.142 C 
BRANCH  20  21
HETATM   21  N   UNL     1      -1.752   6.456 -32.983  1.00  0.00    -0.355 N 
HETATM   22  C   UNL     1      -1.464   7.504 -32.142  1.00  0.00     0.254 C 
HETATM   23  O   UNL     1      -1.703   8.671 -32.440  1.00  0.00    -0.268 OA
HETATM   24  H   UNL     1      -1.614   5.515 -32.622  1.00  0.00     0.162 HD
BRANCH  22  25
HETATM   25  C   UNL     1      -0.829   7.177 -30.825  1.00  0.00     0.065 A 
HETATM   26  C   UNL     1      -0.982   7.935 -29.654  1.00  0.00     0.081 A 
HETATM   27  C   UNL     1      -0.341   7.553 -28.471  1.00  0.00     0.037 A 
HETATM   28  C   UNL     1       0.459   6.409 -28.446  1.00  0.00     0.003 A 
HETATM   29  C   UNL     1       0.621   5.648 -29.600  1.00  0.00     0.001 A 
HETATM   30  C   UNL     1      -0.016   6.030 -30.781  1.00  0.00     0.020 A 
BRANCH  26  31
HETATM   31  O   UNL     1      -1.756   9.068 -29.642  1.00  0.00    -0.360 OA
HETATM   32  H   UNL     1      -2.228   9.132 -30.491  1.00  0.00     0.217 HD
ENDBRANCH  26  31
ENDBRANCH  22  25
ENDBRANCH  20  21
ENDBRANCH  19  20
ENDBRANCH   3  19
TORSDOF 8
ENDMDL
MODEL 8
REMARK VINA RESULT:      -8.2      2.184     10.595
REMARK  8 active torsions:
REMARK  status: ('A' for Active; 'I' for Inactive)
REMARK    1  A    between atoms: C_4  and  N_5 
REMARK    2  A    between atoms: C_8  and  C_9 
REMARK    3  A    between atoms: C_9  and  N_10 
REMARK       I    between atoms: N_10  and  C_11 
REMARK       I    between atoms: C_11  and  N_12 
REMARK    4  A    between atoms: N_12  and  C_13 
REMARK    5  A    between atoms: C_13  and  C_14 
REMARK    6  A    between atoms: C_14  and  N_15 
REMARK       I    between atoms: N_15  and  C_16 
REMARK    7  A    between atoms: C_16  and  C_17 
REMARK    8  A    between atoms: C_18  and  O_19 
ROOT
HETATM    1  N   UNL     1      -3.350   4.254 -32.136  1.00  0.00    -0.339 N 
HETATM    2  C   UNL     1      -4.687   4.054 -32.341  1.00  0.00     0.316 C 
HETATM    3  N   UNL     1      -5.032   2.737 -32.250  1.00  0.00    -0.342 N 
HETATM    4  O   UNL     1      -5.487   4.961 -32.534  1.00  0.00    -0.248 OA
HETATM    5  H   UNL     1      -2.729   3.479 -32.303  1.00  0.00     0.164 HD
HETATM    6  H   UNL     1      -4.314   2.033 -32.326  1.00  0.00     0.164 HD
ENDROOT
BRANCH   1   7
HETATM    7  C   UNL     1      -2.809   5.590 -32.210  1.00  0.00     0.166 C 
BRANCH   7   8
HETATM    8  C   UNL     1      -1.679   5.710 -31.257  1.00  0.00    -0.004 A 
HETATM    9  C   UNL     1      -0.480   4.974 -31.254  1.00  0.00     0.149 A 
HETATM   10  N   UNL     1       0.345   5.329 -30.271  1.00  0.00    -0.180 NA
HETATM   11  N   UNL     1      -0.303   6.328 -29.615  1.00  0.00    -0.245 N 
HETATM   12  C   UNL     1      -1.533   6.574 -30.189  1.00  0.00     0.129 A 
BRANCH  11  13
HETATM   13  C   UNL     1       0.290   6.973 -28.493  1.00  0.00     0.058 A 
HETATM   14  C   UNL     1       1.096   8.105 -28.696  1.00  0.00     0.031 A 
HETATM   15  C   UNL     1       1.686   8.755 -27.610  1.00  0.00     0.002 A 
HETATM   16  C   UNL     1       1.478   8.281 -26.316  1.00  0.00     0.000 A 
HETATM   17  C   UNL     1       0.680   7.158 -26.107  1.00  0.00     0.002 A 
HETATM   18  C   UNL     1       0.084   6.503 -27.189  1.00  0.00     0.031 A 
ENDBRANCH  11  13
ENDBRANCH   7   8
ENDBRANCH   1   7
BRANCH   3  19
HETATM   19  C   UNL     1      -6.403   2.296 -32.446  1.00  0.00     0.144 C 
BRANCH  19  20
HETATM   20  C   UNL     1      -6.593   1.538 -33.766  1.00  0.00     0.142 C 
BRANCH  20  21
HETATM   21  N   UNL     1      -6.158   0.152 -33.703  1.00  0.00    -0.355 N 
HETATM   22  C   UNL     1      -6.666  -0.816 -34.537  1.00  0.00     0.254 C 
HETATM   23  O   UNL     1      -7.608  -0.604 -35.294  1.00  0.00    -0.268 OA
HETATM   24  H   UNL     1      -5.316  -0.075 -33.181  1.00  0.00     0.162 HD
BRANCH  22  25
HETATM   25  C   UNL     1      -6.026  -2.170 -34.488  1.00  0.00     0.065 A 
HETATM   26  C   UNL     1      -4.689  -2.410 -34.135  1.00  0.00     0.081 A 
HETATM   27  C   UNL     1      -4.178  -3.712 -34.127  1.00  0.00     0.037 A 
HETATM   28  C   UNL     1      -4.998  -4.788 -34.471  1.00  0.00     0.003 A 
HETATM   29  C   UNL     1      -6.326  -4.566 -34.825  1.00  0.00     0.001 A 
HETATM   30  C   UNL     1      -6.835  -3.266 -34.836  1.00  0.00     0.020 A 
BRANCH  26  31
HETATM   31  O   UNL     1      -3.852  -1.377 -33.796  1.00  0.00    -0.360 OA
HETATM   32  H   UNL     1      -4.280  -0.537 -34.039  1.00  0.00     0.217 HD
ENDBRANCH  26  31
ENDBRANCH  22  25
ENDBRANCH  20  21
ENDBRANCH  19  20
ENDBRANCH   3  19
TORSDOF 8
ENDMDL
MODEL 9
REMARK VINA RESULT:      -8.2      3.146      4.483
REMARK  8 active torsions:
REMARK  status: ('A' for Active; 'I' for Inactive)
REMARK    1  A    between atoms: C_4  and  N_5 
REMARK    2  A    between atoms: C_8  and  C_9 
REMARK    3  A    between atoms: C_9  and  N_10 
REMARK       I    between atoms: N_10  and  C_11 
REMARK       I    between atoms: C_11  and  N_12 
REMARK    4  A    between atoms: N_12  and  C_13 
REMARK    5  A    between atoms: C_13  and  C_14 
REMARK    6  A    between atoms: C_14  and  N_15 
REMARK       I    between atoms: N_15  and  C_16 
REMARK    7  A    between atoms: C_16  and  C_17 
REMARK    8  A    between atoms: C_18  and  O_19 
ROOT
HETATM    1  N   UNL     1      -5.812   3.866 -29.042  1.00  0.00    -0.339 N 
HETATM    2  C   UNL     1      -5.659   5.176 -28.681  1.00  0.00     0.316 C 
HETATM    3  N   UNL     1      -4.852   5.321 -27.590  1.00  0.00    -0.342 N 
HETATM    4  O   UNL     1      -6.151   6.112 -29.299  1.00  0.00    -0.248 OA
HETATM    5  H   UNL     1      -5.661   3.165 -28.335  1.00  0.00     0.164 HD
HETATM    6  H   UNL     1      -4.678   4.524 -26.997  1.00  0.00     0.164 HD
ENDROOT
BRANCH   1   7
HETATM    7  C   UNL     1      -6.645   3.530 -30.170  1.00  0.00     0.166 C 
BRANCH   7   8
HETATM    8  C   UNL     1      -5.954   2.514 -30.999  1.00  0.00    -0.004 A 
HETATM    9  C   UNL     1      -4.570   2.384 -31.218  1.00  0.00     0.149 A 
HETATM   10  N   UNL     1      -4.262   1.355 -32.006  1.00  0.00    -0.180 NA
HETATM   11  N   UNL     1      -5.456   0.777 -32.306  1.00  0.00    -0.245 N 
HETATM   12  C   UNL     1      -6.495   1.462 -31.713  1.00  0.00     0.129 A 
BRANCH  11  13
HETATM   13  C   UNL     1      -5.521  -0.380 -33.133  1.00  0.00     0.058 A 
HETATM   14  C   UNL     1      -4.402  -1.222 -33.230  1.00  0.00     0.031 A 
HETATM   15  C   UNL     1      -4.445  -2.364 -34.032  1.00  0.00     0.002 A 
HETATM   16  C   UNL     1      -5.601  -2.673 -34.745  1.00  0.00     0.000 A 
HETATM   17  C   UNL     1      -6.717  -1.842 -34.655  1.00  0.00     0.002 A 
HETATM   18  C   UNL     1      -6.682  -0.698 -33.851  1.00  0.00     0.031 A 
ENDBRANCH  11  13
ENDBRANCH   7   8
ENDBRANCH   1   7
BRANCH   3  19
HETATM   19  C   UNL     1      -4.564   6.630 -27.027  1.00  0.00     0.144 C 
BRANCH  19  20
HETATM   20  C   UNL     1      -3.235   7.206 -27.533  1.00  0.00     0.142 C 
BRANCH  20  21
HETATM   21  N   UNL     1      -2.835   6.683 -28.829  1.00  0.00    -0.355 N 
HETATM   22  C   UNL     1      -2.965   7.411 -29.988  1.00  0.00     0.254 C 
HETATM   23  O   UNL     1      -3.545   8.492 -30.023  1.00  0.00    -0.268 OA
HETATM   24  H   UNL     1      -2.256   5.848 -28.863  1.00  0.00     0.162 HD
BRANCH  22  25
HETATM   25  C   UNL     1      -2.371   6.832 -31.235  1.00  0.00     0.065 A 
HETATM   26  C   UNL     1      -1.873   7.586 -32.309  1.00  0.00     0.081 A 
HETATM   27  C   UNL     1      -1.343   6.954 -33.438  1.00  0.00     0.037 A 
HETATM   28  C   UNL     1      -1.305   5.560 -33.506  1.00  0.00     0.003 A 
HETATM   29  C   UNL     1      -1.797   4.797 -32.450  1.00  0.00     0.001 A 
HETATM   30  C   UNL     1      -2.327   5.429 -31.324  1.00  0.00     0.020 A 
BRANCH  26  31
HETATM   31  O   UNL     1      -1.899   8.958 -32.279  1.00  0.00    -0.360 OA
HETATM   32  H   UNL     1      -1.377   9.296 -33.028  1.00  0.00     0.217 HD
ENDBRANCH  26  31
ENDBRANCH  22  25
ENDBRANCH  20  21
ENDBRANCH  19  20
ENDBRANCH   3  19
TORSDOF 8
ENDMDL
MODEL 10
REMARK VINA RESULT:      -8.2     17.073     19.034
REMARK  8 active torsions:
REMARK  status: ('A' for Active; 'I' for Inactive)
REMARK    1  A    between atoms: C_4  and  N_5 
REMARK    2  A    between atoms: C_8  and  C_9 
REMARK    3  A    between atoms: C_9  and  N_10 
REMARK       I    between atoms: N_10  and  C_11 
REMARK       I    between atoms: C_11  and  N_12 
REMARK    4  A    between atoms: N_12  and  C_13 
REMARK    5  A    between atoms: C_13  and  C_14 
REMARK    6  A    between atoms: C_14  and  N_15 
REMARK       I    between atoms: N_15  and  C_16 
REMARK    7  A    between atoms: C_16  and  C_17 
REMARK    8  A    between atoms: C_18  and  O_19 
ROOT
HETATM    1  N   UNL     1      -2.840 -13.808 -41.640  1.00  0.00    -0.339 N 
HETATM    2  C   UNL     1      -2.212 -14.308 -40.534  1.00  0.00     0.316 C 
HETATM    3  N   UNL     1      -1.617 -13.330 -39.791  1.00  0.00    -0.342 N 
HETATM    4  O   UNL     1      -2.226 -15.492 -40.223  1.00  0.00    -0.248 OA
HETATM    5  H   UNL     1      -2.527 -12.919 -41.995  1.00  0.00     0.164 HD
HETATM    6  H   UNL     1      -1.439 -12.431 -40.211  1.00  0.00     0.164 HD
ENDROOT
BRANCH   1   7
HETATM    7  C   UNL     1      -3.512 -14.707 -42.546  1.00  0.00     0.166 C 
BRANCH   7   8
HETATM    8  C   UNL     1      -4.928 -14.846 -42.131  1.00  0.00    -0.004 A 
HETATM    9  C   UNL     1      -5.717 -16.012 -42.152  1.00  0.00     0.149 A 
HETATM   10  N   UNL     1      -6.954 -15.812 -41.701  1.00  0.00    -0.180 NA
HETATM   11  N   UNL     1      -6.990 -14.496 -41.357  1.00  0.00    -0.245 N 
HETATM   12  C   UNL     1      -5.779 -13.889 -41.613  1.00  0.00     0.129 A 
BRANCH  11  13
HETATM   13  C   UNL     1      -8.170 -13.915 -40.814  1.00  0.00     0.058 A 
HETATM   14  C   UNL     1      -9.332 -14.694 -40.698  1.00  0.00     0.031 A 
HETATM   15  C   UNL     1     -10.501 -14.145 -40.165  1.00  0.00     0.002 A 
HETATM   16  C   UNL     1     -10.519 -12.816 -39.747  1.00  0.00     0.000 A 
HETATM   17  C   UNL     1      -9.370 -12.035 -39.860  1.00  0.00     0.002 A 
HETATM   18  C   UNL     1      -8.196 -12.579 -40.390  1.00  0.00     0.031 A 
ENDBRANCH  11  13
ENDBRANCH   7   8
ENDBRANCH   1   7
BRANCH   3  19
HETATM   19  C   UNL     1      -0.880 -13.640 -38.577  1.00  0.00     0.144 C 
BRANCH  19  20
HETATM   20  C   UNL     1      -1.628 -13.207 -37.309  1.00  0.00     0.142 C 
BRANCH  20  21
HETATM   21  N   UNL     1      -2.950 -13.798 -37.189  1.00  0.00    -0.355 N 
HETATM   22  C   UNL     1      -4.085 -13.158 -37.630  1.00  0.00     0.254 C 
HETATM   23  O   UNL     1      -4.072 -11.998 -38.030  1.00  0.00    -0.268 OA
HETATM   24  H   UNL     1      -3.028 -14.787 -36.968  1.00  0.00     0.162 HD
BRANCH  22  25
HETATM   25  C   UNL     1      -5.367 -13.932 -37.599  1.00  0.00     0.065 A 
HETATM   26  C   UNL     1      -5.517 -15.248 -38.063  1.00  0.00     0.081 A 
HETATM   27  C   UNL     1      -6.760 -15.887 -38.001  1.00  0.00     0.037 A 
HETATM   28  C   UNL     1      -7.865 -15.217 -37.474  1.00  0.00     0.003 A 
HETATM   29  C   UNL     1      -7.733 -13.910 -37.012  1.00  0.00     0.001 A 
HETATM   30  C   UNL     1      -6.493 -13.272 -37.076  1.00  0.00     0.020 A 
BRANCH  26  31
HETATM   31  O   UNL     1      -4.454 -15.936 -38.592  1.00  0.00    -0.360 OA
HETATM   32  H   UNL     1      -3.877 -16.225 -37.863  1.00  0.00     0.217 HD
ENDBRANCH  26  31
ENDBRANCH  22  25
ENDBRANCH  20  21
ENDBRANCH  19  20
ENDBRANCH   3  19
TORSDOF 8
ENDMDL
