MODEL 1
REMARK VINA RESULT:      -8.3      0.000      0.000
REMARK  6 active torsions:
REMARK  status: ('A' for Active; 'I' for Inactive)
REMARK    1  A    between atoms: C_9  and  C_10 
REMARK    2  A    between atoms: C_10  and  S_11 
REMARK    3  A    between atoms: S_11  and  C_12 
REMARK    4  A    between atoms: C_12  and  C_13 
REMARK       I    between atoms: C_13  and  N_14 
REMARK    5  A    between atoms: N_14  and  N_15 
REMARK       I    between atoms: N_15  and  C_16 
REMARK    6  A    between atoms: C_16  and  C_17 
ROOT
HETATM    1  C   UNL     1      -2.660   5.082 -32.085  1.00  0.00     0.245 C 
HETATM    2  N   UNL     1      -1.671   4.647 -31.228  1.00  0.00    -0.267 N 
HETATM    3  O   UNL     1      -3.111   6.229 -32.040  1.00  0.00    -0.271 OA
HETATM    4  H   UNL     1      -1.500   3.644 -31.112  1.00  0.00     0.190 HD
ENDROOT
BRANCH   1   5
HETATM    5  C   UNL     1      -3.064   4.097 -33.169  1.00  0.00     0.178 C 
BRANCH   5   6
HETATM    6  S   UNL     1      -4.502   3.089 -32.689  1.00  0.00    -0.154 SA
BRANCH   6   7
HETATM    7  C   UNL     1      -3.617   1.569 -32.210  1.00  0.00     0.135 C 
BRANCH   7   8
HETATM    8  C   UNL     1      -4.282   0.371 -32.792  1.00  0.00     0.062 A 
HETATM    9  C   UNL     1      -3.716  -0.808 -33.239  1.00  0.00     0.126 A 
HETATM   10  N   UNL     1      -4.756  -1.562 -33.721  1.00  0.00    -0.315 N 
HETATM   11  C   UNL     1      -4.737  -2.821 -34.313  1.00  0.00     0.105 A 
HETATM   12  C   UNL     1      -5.914  -0.821 -33.521  1.00  0.00     0.134 A 
HETATM   13  C   UNL     1      -5.893  -3.378 -34.726  1.00  0.00    -0.046 A 
HETATM   14  C   UNL     1      -5.984  -4.719 -35.383  1.00  0.00     0.049 C 
HETATM   15  C   UNL     1      -7.132  -2.624 -34.526  1.00  0.00     0.012 A 
HETATM   16  C   UNL     1      -7.137  -1.406 -33.950  1.00  0.00     0.051 A 
HETATM   17  N   UNL     1      -5.651   0.338 -32.953  1.00  0.00    -0.233 NA
ENDBRANCH   7   8
ENDBRANCH   6   7
ENDBRANCH   5   6
ENDBRANCH   1   5
BRANCH   2  18
HETATM   18  N   UNL     1      -1.319   5.470 -30.152  1.00  0.00    -0.262 N 
HETATM   19  C   UNL     1      -0.081   5.317 -29.566  1.00  0.00     0.286 C 
HETATM   20  O   UNL     1       0.731   4.483 -29.964  1.00  0.00    -0.264 OA
HETATM   21  H   UNL     1      -2.040   6.092 -29.796  1.00  0.00     0.190 HD
BRANCH  19  22
HETATM   22  C   UNL     1       0.202   6.203 -28.459  1.00  0.00     0.103 A 
HETATM   23  N   UNL     1      -0.213   5.898 -27.176  1.00  0.00    -0.360 N 
HETATM   24  H   UNL     1      -0.731   5.059 -26.940  1.00  0.00     0.165 HD
HETATM   25  C   UNL     1       0.185   6.872 -26.300  1.00  0.00     0.107 A 
HETATM   26  C   UNL     1       0.860   7.815 -27.030  1.00  0.00     0.028 A 
HETATM   27 BR   UNL     1       1.649   9.385 -26.385  1.00  0.00    -0.050 Br
HETATM   28  C   UNL     1       0.876   7.414 -28.380  1.00  0.00     0.055 A 
ENDBRANCH  19  22
ENDBRANCH   2  18
TORSDOF 6
ENDMDL
MODEL 2
REMARK VINA RESULT:      -8.3      6.071      8.491
REMARK  6 active torsions:
REMARK  status: ('A' for Active; 'I' for Inactive)
REMARK    1  A    between atoms: C_9  and  C_10 
REMARK    2  A    between atoms: C_10  and  S_11 
REMARK    3  A    between atoms: S_11  and  C_12 
REMARK    4  A    between atoms: C_12  and  C_13 
REMARK       I    between atoms: C_13  and  N_14 
REMARK    5  A    between atoms: N_14  and  N_15 
REMARK       I    between atoms: N_15  and  C_16 
REMARK    6  A    between atoms: C_16  and  C_17 
ROOT
HETATM    1  C   UNL     1      -6.587   2.996 -30.958  1.00  0.00     0.245 C 
HETATM    2  N   UNL     1      -6.922   2.662 -32.254  1.00  0.00    -0.267 N 
HETATM    3  O   UNL     1      -7.397   2.929 -30.031  1.00  0.00    -0.271 OA
HETATM    4  H   UNL     1      -6.327   2.964 -33.029  1.00  0.00     0.190 HD
ENDROOT
BRANCH   1   5
HETATM    5  C   UNL     1      -5.121   3.324 -30.728  1.00  0.00     0.178 C 
BRANCH   5   6
HETATM    6  S   UNL     1      -4.067   2.796 -32.115  1.00  0.00    -0.154 SA
BRANCH   6   7
HETATM    7  C   UNL     1      -3.570   1.165 -31.469  1.00  0.00     0.135 C 
BRANCH   7   8
HETATM    8  C   UNL     1      -4.232   0.074 -32.236  1.00  0.00     0.062 A 
HETATM    9  C   UNL     1      -3.669  -1.041 -32.828  1.00  0.00     0.126 A 
HETATM   10  N   UNL     1      -4.703  -1.699 -33.443  1.00  0.00    -0.315 N 
HETATM   11  C   UNL     1      -4.683  -2.862 -34.207  1.00  0.00     0.105 A 
HETATM   12  C   UNL     1      -5.856  -0.971 -33.176  1.00  0.00     0.134 A 
HETATM   13  C   UNL     1      -5.832  -3.332 -34.730  1.00  0.00    -0.046 A 
HETATM   14  C   UNL     1      -5.921  -4.565 -35.573  1.00  0.00     0.049 C 
HETATM   15  C   UNL     1      -7.066  -2.591 -34.463  1.00  0.00     0.012 A 
HETATM   16  C   UNL     1      -7.073  -1.466 -33.721  1.00  0.00     0.051 A 
HETATM   17  N   UNL     1      -5.596   0.091 -32.442  1.00  0.00    -0.233 NA
ENDBRANCH   7   8
ENDBRANCH   6   7
ENDBRANCH   5   6
ENDBRANCH   1   5
BRANCH   2  18
HETATM   18  N   UNL     1      -8.271   2.439 -32.550  1.00  0.00    -0.262 N 
HETATM   19  C   UNL     1      -8.613   1.949 -33.792  1.00  0.00     0.286 C 
HETATM   20  O   UNL     1      -7.768   1.692 -34.649  1.00  0.00    -0.264 OA
HETATM   21  H   UNL     1      -8.949   2.735 -31.853  1.00  0.00     0.190 HD
BRANCH  19  22
HETATM   22  C   UNL     1     -10.028   1.750 -34.020  1.00  0.00     0.103 A 
HETATM   23  N   UNL     1     -10.726   2.544 -34.911  1.00  0.00    -0.360 N 
HETATM   24  H   UNL     1     -10.301   3.296 -35.442  1.00  0.00     0.165 HD
HETATM   25  C   UNL     1     -12.038   2.157 -34.970  1.00  0.00     0.107 A 
HETATM   26  C   UNL     1     -12.185   1.106 -34.104  1.00  0.00     0.028 A 
HETATM   27 BR   UNL     1     -13.753   0.146 -33.752  1.00  0.00    -0.050 Br
HETATM   28  C   UNL     1     -10.939   0.841 -33.500  1.00  0.00     0.055 A 
ENDBRANCH  19  22
ENDBRANCH   2  18
TORSDOF 6
ENDMDL
MODEL 3
REMARK VINA RESULT:      -8.1      1.435      1.885
REMARK  6 active torsions:
REMARK  status: ('A' for Active; 'I' for Inactive)
REMARK    1  A    between atoms: C_9  and  C_10 
REMARK    2  A    between atoms: C_10  and  S_11 
REMARK    3  A    between atoms: S_11  and  C_12 
REMARK    4  A    between atoms: C_12  and  C_13 
REMARK       I    between atoms: C_13  and  N_14 
REMARK    5  A    between atoms: N_14  and  N_15 
REMARK       I    between atoms: N_15  and  C_16 
REMARK    6  A    between atoms: C_16  and  C_17 
ROOT
HETATM    1  C   UNL     1      -4.237   4.748 -32.238  1.00  0.00     0.245 C 
HETATM    2  N   UNL     1      -2.961   4.298 -31.970  1.00  0.00    -0.267 N 
HETATM    3  O   UNL     1      -4.700   5.763 -31.713  1.00  0.00    -0.271 OA
HETATM    4  H   UNL     1      -2.697   3.339 -32.210  1.00  0.00     0.190 HD
ENDROOT
BRANCH   1   5
HETATM    5  C   UNL     1      -4.984   3.985 -33.319  1.00  0.00     0.178 C 
BRANCH   5   6
HETATM    6  S   UNL     1      -6.500   3.197 -32.689  1.00  0.00    -0.154 SA
BRANCH   6   7
HETATM    7  C   UNL     1      -5.724   1.873 -31.704  1.00  0.00     0.135 C 
BRANCH   7   8
HETATM    8  C   UNL     1      -5.718   0.593 -32.463  1.00  0.00     0.062 A 
HETATM    9  C   UNL     1      -6.770  -0.066 -33.069  1.00  0.00     0.126 A 
HETATM   10  N   UNL     1      -6.239  -1.218 -33.590  1.00  0.00    -0.315 N 
HETATM   11  C   UNL     1      -6.869  -2.254 -34.275  1.00  0.00     0.105 A 
HETATM   12  C   UNL     1      -4.880  -1.198 -33.303  1.00  0.00     0.134 A 
HETATM   13  C   UNL     1      -6.144  -3.309 -34.695  1.00  0.00    -0.046 A 
HETATM   14  C   UNL     1      -6.722  -4.478 -35.428  1.00  0.00     0.049 C 
HETATM   15  C   UNL     1      -4.707  -3.316 -34.411  1.00  0.00     0.012 A 
HETATM   16  C   UNL     1      -4.109  -2.307 -33.748  1.00  0.00     0.051 A 
HETATM   17  N   UNL     1      -4.545  -0.113 -32.637  1.00  0.00    -0.233 NA
ENDBRANCH   7   8
ENDBRANCH   6   7
ENDBRANCH   5   6
ENDBRANCH   1   5
BRANCH   2  18
HETATM   18  N   UNL     1      -2.255   4.899 -30.923  1.00  0.00    -0.262 N 
HETATM   19  C   UNL     1      -0.970   5.344 -31.147  1.00  0.00     0.286 C 
HETATM   20  O   UNL     1      -0.424   5.236 -32.245  1.00  0.00    -0.264 OA
HETATM   21  H   UNL     1      -2.702   4.901 -30.010  1.00  0.00     0.190 HD
BRANCH  19  22
HETATM   22  C   UNL     1      -0.308   5.948 -30.012  1.00  0.00     0.103 A 
HETATM   23  N   UNL     1       0.019   5.203 -28.895  1.00  0.00    -0.360 N 
HETATM   24  H   UNL     1      -0.184   4.213 -28.804  1.00  0.00     0.165 HD
HETATM   25  C   UNL     1       0.651   5.984 -27.966  1.00  0.00     0.107 A 
HETATM   26  C   UNL     1       0.726   7.248 -28.490  1.00  0.00     0.028 A 
HETATM   27 BR   UNL     1       1.490   8.756 -27.687  1.00  0.00    -0.050 Br
HETATM   28  C   UNL     1       0.129   7.243 -29.766  1.00  0.00     0.055 A 
ENDBRANCH  19  22
ENDBRANCH   2  18
TORSDOF 6
ENDMDL
MODEL 4
REMARK VINA RESULT:      -8.0      6.259      8.660
REMARK  6 active torsions:
REMARK  status: ('A' for Active; 'I' for Inactive)
REMARK    1  A    between atoms: C_9  and  C_10 
REMARK    2  A    between atoms: C_10  and  S_11 
REMARK    3  A    between atoms: S_11  and  C_12 
REMARK    4  A    between atoms: C_12  and  C_13 
REMARK       I    between atoms: C_13  and  N_14 
REMARK    5  A    between atoms: N_14  and  N_15 
REMARK       I    between atoms: N_15  and  C_16 
REMARK    6  A    between atoms: C_16  and  C_17 
ROOT
HETATM    1  C   UNL     1      -6.546   2.452 -31.118  1.00  0.00     0.245 C 
HETATM    2  N   UNL     1      -6.877   2.705 -32.433  1.00  0.00    -0.267 N 
HETATM    3  O   UNL     1      -7.356   1.985 -30.314  1.00  0.00    -0.271 OA
HETATM    4  H   UNL     1      -6.285   3.317 -33.000  1.00  0.00     0.190 HD
ENDROOT
BRANCH   1   5
HETATM    5  C   UNL     1      -5.083   2.662 -30.762  1.00  0.00     0.178 C 
BRANCH   5   6
HETATM    6  S   UNL     1      -3.967   2.222 -32.131  1.00  0.00    -0.154 SA
BRANCH   6   7
HETATM    7  C   UNL     1      -3.277   0.686 -31.431  1.00  0.00     0.135 C 
BRANCH   7   8
HETATM    8  C   UNL     1      -3.725  -0.495 -32.219  1.00  0.00     0.062 A 
HETATM    9  C   UNL     1      -4.759  -0.593 -33.131  1.00  0.00     0.126 A 
HETATM   10  N   UNL     1      -4.777  -1.903 -33.536  1.00  0.00    -0.315 N 
HETATM   11  C   UNL     1      -5.638  -2.545 -34.422  1.00  0.00     0.105 A 
HETATM   12  C   UNL     1      -3.735  -2.541 -32.875  1.00  0.00     0.134 A 
HETATM   13  C   UNL     1      -5.476  -3.859 -34.670  1.00  0.00    -0.046 A 
HETATM   14  C   UNL     1      -6.350  -4.647 -35.594  1.00  0.00     0.049 C 
HETATM   15  C   UNL     1      -4.384  -4.560 -33.991  1.00  0.00     0.012 A 
HETATM   16  C   UNL     1      -3.556  -3.928 -33.137  1.00  0.00     0.051 A 
HETATM   17  N   UNL     1      -3.084  -1.710 -32.088  1.00  0.00    -0.233 NA
ENDBRANCH   7   8
ENDBRANCH   6   7
ENDBRANCH   5   6
ENDBRANCH   1   5
BRANCH   2  18
HETATM   18  N   UNL     1      -8.224   2.619 -32.803  1.00  0.00    -0.262 N 
HETATM   19  C   UNL     1      -8.626   1.602 -33.641  1.00  0.00     0.286 C 
HETATM   20  O   UNL     1      -7.839   0.759 -34.069  1.00  0.00    -0.264 OA
HETATM   21  H   UNL     1      -8.832   3.375 -32.498  1.00  0.00     0.190 HD
BRANCH  19  22
HETATM   22  C   UNL     1     -10.033   1.587 -33.978  1.00  0.00     0.103 A 
HETATM   23  N   UNL     1     -10.547   2.442 -34.934  1.00  0.00    -0.360 N 
HETATM   24  H   UNL     1      -9.985   3.117 -35.441  1.00  0.00     0.165 HD
HETATM   25  C   UNL     1     -11.890   2.231 -35.093  1.00  0.00     0.107 A 
HETATM   26  C   UNL     1     -12.243   1.231 -34.224  1.00  0.00     0.028 A 
HETATM   27 BR   UNL     1     -13.949   0.498 -33.985  1.00  0.00    -0.050 Br
HETATM   28  C   UNL     1     -11.095   0.820 -33.519  1.00  0.00     0.055 A 
ENDBRANCH  19  22
ENDBRANCH   2  18
TORSDOF 6
ENDMDL
MODEL 5
REMARK VINA RESULT:      -7.7      6.481      9.200
REMARK  6 active torsions:
REMARK  status: ('A' for Active; 'I' for Inactive)
REMARK    1  A    between atoms: C_9  and  C_10 
REMARK    2  A    between atoms: C_10  and  S_11 
REMARK    3  A    between atoms: S_11  and  C_12 
REMARK    4  A    between atoms: C_12  and  C_13 
REMARK       I    between atoms: C_13  and  N_14 
REMARK    5  A    between atoms: N_14  and  N_15 
REMARK       I    between atoms: N_15  and  C_16 
REMARK    6  A    between atoms: C_16  and  C_17 
ROOT
HETATM    1  C   UNL     1      -6.237   4.047 -33.623  1.00  0.00     0.245 C 
HETATM    2  N   UNL     1      -6.772   2.914 -33.047  1.00  0.00    -0.267 N 
HETATM    3  O   UNL     1      -5.587   4.008 -34.670  1.00  0.00    -0.271 OA
HETATM    4  H   UNL     1      -7.077   2.932 -32.071  1.00  0.00     0.190 HD
ENDROOT
BRANCH   1   5
HETATM    5  C   UNL     1      -6.613   5.358 -32.953  1.00  0.00     0.178 C 
BRANCH   5   6
HETATM    6  S   UNL     1      -8.364   5.405 -32.456  1.00  0.00    -0.154 SA
BRANCH   6   7
HETATM    7  C   UNL     1      -9.116   5.265 -34.111  1.00  0.00     0.135 C 
BRANCH   7   8
HETATM    8  C   UNL     1     -10.137   4.182 -34.131  1.00  0.00     0.062 A 
HETATM    9  C   UNL     1     -11.467   4.245 -34.503  1.00  0.00     0.126 A 
HETATM   10  N   UNL     1     -11.972   2.987 -34.295  1.00  0.00    -0.315 N 
HETATM   11  C   UNL     1     -13.268   2.511 -34.478  1.00  0.00     0.105 A 
HETATM   12  C   UNL     1     -10.922   2.204 -33.833  1.00  0.00     0.134 A 
HETATM   13  C   UNL     1     -13.547   1.223 -34.199  1.00  0.00    -0.046 A 
HETATM   14  C   UNL     1     -14.905   0.613 -34.350  1.00  0.00     0.049 C 
HETATM   15  C   UNL     1     -12.460   0.370 -33.714  1.00  0.00     0.012 A 
HETATM   16  C   UNL     1     -11.210   0.842 -33.542  1.00  0.00     0.051 A 
HETATM   17  N   UNL     1      -9.808   2.901 -33.739  1.00  0.00    -0.233 NA
ENDBRANCH   7   8
ENDBRANCH   6   7
ENDBRANCH   5   6
ENDBRANCH   1   5
BRANCH   2  18
HETATM   18  N   UNL     1      -6.391   1.669 -33.561  1.00  0.00    -0.262 N 
HETATM   19  C   UNL     1      -6.799   0.522 -32.914  1.00  0.00     0.286 C 
HETATM   20  O   UNL     1      -7.497   0.557 -31.902  1.00  0.00    -0.264 OA
HETATM   21  H   UNL     1      -5.750   1.675 -34.350  1.00  0.00     0.190 HD
BRANCH  19  22
HETATM   22  C   UNL     1      -6.359  -0.722 -33.507  1.00  0.00     0.103 A 
HETATM   23  N   UNL     1      -5.019  -1.058 -33.550  1.00  0.00    -0.360 N 
HETATM   24  H   UNL     1      -4.282  -0.467 -33.182  1.00  0.00     0.165 HD
HETATM   25  C   UNL     1      -4.852  -2.283 -34.137  1.00  0.00     0.107 A 
HETATM   26  C   UNL     1      -6.098  -2.736 -34.480  1.00  0.00     0.028 A 
HETATM   27 BR   UNL     1      -6.517  -4.360 -35.313  1.00  0.00    -0.050 Br
HETATM   28  C   UNL     1      -7.051  -1.772 -34.096  1.00  0.00     0.055 A 
ENDBRANCH  19  22
ENDBRANCH   2  18
TORSDOF 6
ENDMDL
MODEL 6
REMARK VINA RESULT:      -7.5      2.711      3.581
REMARK  6 active torsions:
REMARK  status: ('A' for Active; 'I' for Inactive)
REMARK    1  A    between atoms: C_9  and  C_10 
REMARK    2  A    between atoms: C_10  and  S_11 
REMARK    3  A    between atoms: S_11  and  C_12 
REMARK    4  A    between atoms: C_12  and  C_13 
REMARK       I    between atoms: C_13  and  N_14 
REMARK    5  A    between atoms: N_14  and  N_15 
REMARK       I    between atoms: N_15  and  C_16 
REMARK    6  A    between atoms: C_16  and  C_17 
ROOT
HETATM    1  C   UNL     1      -6.323   3.102 -31.180  1.00  0.00     0.245 C 
HETATM    2  N   UNL     1      -4.990   2.762 -31.083  1.00  0.00    -0.267 N 
HETATM    3  O   UNL     1      -6.696   4.270 -31.307  1.00  0.00    -0.271 OA
HETATM    4  H   UNL     1      -4.722   1.840 -30.728  1.00  0.00     0.190 HD
ENDROOT
BRANCH   1   5
HETATM    5  C   UNL     1      -7.290   1.932 -31.253  1.00  0.00     0.178 C 
BRANCH   5   6
HETATM    6  S   UNL     1      -8.270   1.939 -32.788  1.00  0.00    -0.154 SA
BRANCH   6   7
HETATM    7  C   UNL     1      -6.901   1.777 -33.981  1.00  0.00     0.135 C 
BRANCH   7   8
HETATM    8  C   UNL     1      -6.403   0.374 -34.019  1.00  0.00     0.062 A 
HETATM    9  C   UNL     1      -5.184  -0.129 -33.604  1.00  0.00     0.126 A 
HETATM   10  N   UNL     1      -5.215  -1.468 -33.899  1.00  0.00    -0.315 N 
HETATM   11  C   UNL     1      -4.232  -2.437 -33.716  1.00  0.00     0.105 A 
HETATM   12  C   UNL     1      -6.461  -1.728 -34.454  1.00  0.00     0.134 A 
HETATM   13  C   UNL     1      -4.476  -3.708 -34.091  1.00  0.00    -0.046 A 
HETATM   14  C   UNL     1      -3.488  -4.823 -33.950  1.00  0.00     0.049 C 
HETATM   15  C   UNL     1      -5.783  -4.016 -34.676  1.00  0.00     0.012 A 
HETATM   16  C   UNL     1      -6.726  -3.070 -34.846  1.00  0.00     0.051 A 
HETATM   17  N   UNL     1      -7.194  -0.637 -34.523  1.00  0.00    -0.233 NA
ENDBRANCH   7   8
ENDBRANCH   6   7
ENDBRANCH   5   6
ENDBRANCH   1   5
BRANCH   2  18
HETATM   18  N   UNL     1      -4.056   3.791 -30.920  1.00  0.00    -0.262 N 
HETATM   19  C   UNL     1      -3.009   3.896 -31.811  1.00  0.00     0.286 C 
HETATM   20  O   UNL     1      -2.873   3.116 -32.753  1.00  0.00    -0.264 OA
HETATM   21  H   UNL     1      -4.150   4.368 -30.089  1.00  0.00     0.190 HD
BRANCH  19  22
HETATM   22  C   UNL     1      -2.087   4.983 -31.570  1.00  0.00     0.103 A 
HETATM   23  N   UNL     1      -1.846   5.944 -32.534  1.00  0.00    -0.360 N 
HETATM   24  H   UNL     1      -2.288   5.942 -33.447  1.00  0.00     0.165 HD
HETATM   25  C   UNL     1      -0.956   6.875 -32.071  1.00  0.00     0.107 A 
HETATM   26  C   UNL     1      -0.617   6.505 -30.796  1.00  0.00     0.028 A 
HETATM   27 BR   UNL     1       0.561   7.391 -29.643  1.00  0.00    -0.050 Br
HETATM   28  C   UNL     1      -1.312   5.324 -30.469  1.00  0.00     0.055 A 
ENDBRANCH  19  22
ENDBRANCH   2  18
TORSDOF 6
ENDMDL
MODEL 7
REMARK VINA RESULT:      -7.4      5.884      8.561
REMARK  6 active torsions:
REMARK  status: ('A' for Active; 'I' for Inactive)
REMARK    1  A    between atoms: C_9  and  C_10 
REMARK    2  A    between atoms: C_10  and  S_11 
REMARK    3  A    between atoms: S_11  and  C_12 
REMARK    4  A    between atoms: C_12  and  C_13 
REMARK       I    between atoms: C_13  and  N_14 
REMARK    5  A    between atoms: N_14  and  N_15 
REMARK       I    between atoms: N_15  and  C_16 
REMARK    6  A    between atoms: C_16  and  C_17 
ROOT
HETATM    1  C   UNL     1      -5.609   3.441 -32.664  1.00  0.00     0.245 C 
HETATM    2  N   UNL     1      -5.282   2.247 -32.055  1.00  0.00    -0.267 N 
HETATM    3  O   UNL     1      -5.987   3.499 -33.836  1.00  0.00    -0.271 OA
HETATM    4  H   UNL     1      -4.738   2.248 -31.188  1.00  0.00     0.190 HD
ENDROOT
BRANCH   1   5
HETATM    5  C   UNL     1      -5.597   4.660 -31.757  1.00  0.00     0.178 C 
BRANCH   5   6
HETATM    6  S   UNL     1      -5.866   4.225 -30.009  1.00  0.00    -0.154 SA
BRANCH   6   7
HETATM    7  C   UNL     1      -7.636   4.650 -29.897  1.00  0.00     0.135 C 
BRANCH   7   8
HETATM    8  C   UNL     1      -8.439   3.792 -30.810  1.00  0.00     0.062 A 
HETATM    9  C   UNL     1      -9.458   4.151 -31.673  1.00  0.00     0.126 A 
HETATM   10  N   UNL     1      -9.890   2.983 -32.247  1.00  0.00    -0.315 N 
HETATM   11  C   UNL     1     -10.916   2.774 -33.164  1.00  0.00     0.105 A 
HETATM   12  C   UNL     1      -9.098   1.966 -31.730  1.00  0.00     0.134 A 
HETATM   13  C   UNL     1     -11.178   1.524 -33.593  1.00  0.00    -0.046 A 
HETATM   14  C   UNL     1     -12.262   1.187 -34.567  1.00  0.00     0.049 C 
HETATM   15  C   UNL     1     -10.358   0.429 -33.070  1.00  0.00     0.012 A 
HETATM   16  C   UNL     1      -9.367   0.644 -32.183  1.00  0.00     0.051 A 
HETATM   17  N   UNL     1      -8.212   2.433 -30.875  1.00  0.00    -0.233 NA
ENDBRANCH   7   8
ENDBRANCH   6   7
ENDBRANCH   5   6
ENDBRANCH   1   5
BRANCH   2  18
HETATM   18  N   UNL     1      -5.185   1.103 -32.854  1.00  0.00    -0.262 N 
HETATM   19  C   UNL     1      -5.646  -0.100 -32.364  1.00  0.00     0.286 C 
HETATM   20  O   UNL     1      -6.148  -0.200 -31.245  1.00  0.00    -0.264 OA
HETATM   21  H   UNL     1      -4.694   1.202 -33.739  1.00  0.00     0.190 HD
BRANCH  19  22
HETATM   22  C   UNL     1      -5.505  -1.234 -33.250  1.00  0.00     0.103 A 
HETATM   23  N   UNL     1      -4.260  -1.659 -33.675  1.00  0.00    -0.360 N 
HETATM   24  H   UNL     1      -3.392  -1.211 -33.400  1.00  0.00     0.165 HD
HETATM   25  C   UNL     1      -4.378  -2.754 -34.487  1.00  0.00     0.107 A 
HETATM   26  C   UNL     1      -5.716  -3.033 -34.590  1.00  0.00     0.028 A 
HETATM   27 BR   UNL     1      -6.505  -4.423 -35.564  1.00  0.00    -0.050 Br
HETATM   28  C   UNL     1      -6.433  -2.091 -33.826  1.00  0.00     0.055 A 
ENDBRANCH  19  22
ENDBRANCH   2  18
TORSDOF 6
ENDMDL
MODEL 8
REMARK VINA RESULT:      -7.3      6.523      9.151
REMARK  6 active torsions:
REMARK  status: ('A' for Active; 'I' for Inactive)
REMARK    1  A    between atoms: C_9  and  C_10 
REMARK    2  A    between atoms: C_10  and  S_11 
REMARK    3  A    between atoms: S_11  and  C_12 
REMARK    4  A    between atoms: C_12  and  C_13 
REMARK       I    between atoms: C_13  and  N_14 
REMARK    5  A    between atoms: N_14  and  N_15 
REMARK       I    between atoms: N_15  and  C_16 
REMARK    6  A    between atoms: C_16  and  C_17 
ROOT
HETATM    1  C   UNL     1      -7.706   3.724 -33.369  1.00  0.00     0.245 C 
HETATM    2  N   UNL     1      -8.723   2.838 -33.660  1.00  0.00    -0.267 N 
HETATM    3  O   UNL     1      -7.863   4.674 -32.599  1.00  0.00    -0.271 OA
HETATM    4  H   UNL     1      -8.649   2.227 -34.478  1.00  0.00     0.190 HD
ENDROOT
BRANCH   1   5
HETATM    5  C   UNL     1      -6.349   3.373 -33.954  1.00  0.00     0.178 C 
BRANCH   5   6
HETATM    6  S   UNL     1      -5.077   3.152 -32.670  1.00  0.00    -0.154 SA
BRANCH   6   7
HETATM    7  C   UNL     1      -5.876   1.809 -31.731  1.00  0.00     0.135 C 
BRANCH   7   8
HETATM    8  C   UNL     1      -5.830   0.534 -32.499  1.00  0.00     0.062 A 
HETATM    9  C   UNL     1      -6.871  -0.190 -33.048  1.00  0.00     0.126 A 
HETATM   10  N   UNL     1      -6.297  -1.302 -33.608  1.00  0.00    -0.315 N 
HETATM   11  C   UNL     1      -6.898  -2.374 -34.263  1.00  0.00     0.105 A 
HETATM   12  C   UNL     1      -4.928  -1.194 -33.401  1.00  0.00     0.134 A 
HETATM   13  C   UNL     1      -6.132  -3.378 -34.733  1.00  0.00    -0.046 A 
HETATM   14  C   UNL     1      -6.674  -4.579 -35.441  1.00  0.00     0.049 C 
HETATM   15  C   UNL     1      -4.683  -3.292 -34.535  1.00  0.00     0.012 A 
HETATM   16  C   UNL     1      -4.114  -2.248 -33.900  1.00  0.00     0.051 A 
HETATM   17  N   UNL     1      -4.626  -0.092 -32.747  1.00  0.00    -0.233 NA
ENDBRANCH   7   8
ENDBRANCH   6   7
ENDBRANCH   5   6
ENDBRANCH   1   5
BRANCH   2  18
HETATM   18  N   UNL     1     -10.016   3.152 -33.228  1.00  0.00    -0.262 N 
HETATM   19  C   UNL     1     -11.075   2.390 -33.671  1.00  0.00     0.286 C 
HETATM   20  O   UNL     1     -10.920   1.434 -34.430  1.00  0.00    -0.264 OA
HETATM   21  H   UNL     1     -10.121   3.993 -32.667  1.00  0.00     0.190 HD
BRANCH  19  22
HETATM   22  C   UNL     1     -12.379   2.782 -33.181  1.00  0.00     0.103 A 
HETATM   23  N   UNL     1     -13.355   1.841 -32.913  1.00  0.00    -0.360 N 
HETATM   24  H   UNL     1     -13.221   0.844 -33.044  1.00  0.00     0.165 HD
HETATM   25  C   UNL     1     -14.489   2.447 -32.446  1.00  0.00     0.107 A 
HETATM   26  C   UNL     1     -14.241   3.794 -32.418  1.00  0.00     0.028 A 
HETATM   27 BR   UNL     1     -15.413   5.145 -31.864  1.00  0.00    -0.050 Br
HETATM   28  C   UNL     1     -12.928   4.021 -32.877  1.00  0.00     0.055 A 
ENDBRANCH  19  22
ENDBRANCH   2  18
TORSDOF 6
ENDMDL
MODEL 9
REMARK VINA RESULT:      -7.3      5.466      9.415
REMARK  6 active torsions:
REMARK  status: ('A' for Active; 'I' for Inactive)
REMARK    1  A    between atoms: C_9  and  C_10 
REMARK    2  A    between atoms: C_10  and  S_11 
REMARK    3  A    between atoms: S_11  and  C_12 
REMARK    4  A    between atoms: C_12  and  C_13 
REMARK       I    between atoms: C_13  and  N_14 
REMARK    5  A    between atoms: N_14  and  N_15 
REMARK       I    between atoms: N_15  and  C_16 
REMARK    6  A    between atoms: C_16  and  C_17 
ROOT
HETATM    1  C   UNL     1      -6.609   2.798 -31.106  1.00  0.00     0.245 C 
HETATM    2  N   UNL     1      -7.424   2.068 -31.945  1.00  0.00    -0.267 N 
HETATM    3  O   UNL     1      -5.450   2.459 -30.857  1.00  0.00    -0.271 OA
HETATM    4  H   UNL     1      -8.436   2.220 -31.934  1.00  0.00     0.190 HD
ENDROOT
BRANCH   1   5
HETATM    5  C   UNL     1      -7.190   4.114 -30.615  1.00  0.00     0.178 C 
BRANCH   5   6
HETATM    6  S   UNL     1      -8.729   4.558 -31.481  1.00  0.00    -0.154 SA
BRANCH   6   7
HETATM    7  C   UNL     1      -8.180   6.136 -32.211  1.00  0.00     0.135 C 
BRANCH   7   8
HETATM    8  C   UNL     1      -6.777   6.027 -32.698  1.00  0.00     0.062 A 
HETATM    9  C   UNL     1      -5.630   6.606 -32.187  1.00  0.00     0.126 A 
HETATM   10  N   UNL     1      -4.615   6.226 -33.027  1.00  0.00    -0.315 N 
HETATM   11  C   UNL     1      -3.263   6.557 -32.988  1.00  0.00     0.105 A 
HETATM   12  C   UNL     1      -5.181   5.409 -33.997  1.00  0.00     0.134 A 
HETATM   13  C   UNL     1      -2.434   6.071 -33.932  1.00  0.00    -0.046 A 
HETATM   14  C   UNL     1      -0.970   6.371 -33.990  1.00  0.00     0.049 C 
HETATM   15  C   UNL     1      -3.000   5.203 -34.967  1.00  0.00     0.012 A 
HETATM   16  C   UNL     1      -4.310   4.889 -34.994  1.00  0.00     0.051 A 
HETATM   17  N   UNL     1      -6.477   5.268 -33.809  1.00  0.00    -0.233 NA
ENDBRANCH   7   8
ENDBRANCH   6   7
ENDBRANCH   5   6
ENDBRANCH   1   5
BRANCH   2  18
HETATM   18  N   UNL     1      -6.986   0.805 -32.358  1.00  0.00    -0.262 N 
HETATM   19  C   UNL     1      -6.499   0.649 -33.638  1.00  0.00     0.286 C 
HETATM   20  O   UNL     1      -6.430   1.588 -34.430  1.00  0.00    -0.264 OA
HETATM   21  H   UNL     1      -7.130   0.035 -31.711  1.00  0.00     0.190 HD
BRANCH  19  22
HETATM   22  C   UNL     1      -6.070  -0.688 -33.988  1.00  0.00     0.103 A 
HETATM   23  N   UNL     1      -4.772  -1.104 -33.762  1.00  0.00    -0.360 N 
HETATM   24  H   UNL     1      -4.058  -0.511 -33.351  1.00  0.00     0.165 HD
HETATM   25  C   UNL     1      -4.611  -2.405 -34.154  1.00  0.00     0.107 A 
HETATM   26  C   UNL     1      -5.818  -2.828 -34.643  1.00  0.00     0.028 A 
HETATM   27 BR   UNL     1      -6.226  -4.522 -35.325  1.00  0.00    -0.050 Br
HETATM   28  C   UNL     1      -6.740  -1.766 -34.549  1.00  0.00     0.055 A 
ENDBRANCH  19  22
ENDBRANCH   2  18
TORSDOF 6
ENDMDL
MODEL 10
REMARK VINA RESULT:      -7.2     17.623     18.602
REMARK  6 active torsions:
REMARK  status: ('A' for Active; 'I' for Inactive)
REMARK    1  A    between atoms: C_9  and  C_10 
REMARK    2  A    between atoms: C_10  and  S_11 
REMARK    3  A    between atoms: S_11  and  C_12 
REMARK    4  A    between atoms: C_12  and  C_13 
REMARK       I    between atoms: C_13  and  N_14 
REMARK    5  A    between atoms: N_14  and  N_15 
REMARK       I    between atoms: N_15  and  C_16 
REMARK    6  A    between atoms: C_16  and  C_17 
ROOT
HETATM    1  C   UNL     1      -7.705 -13.604 -37.621  1.00  0.00     0.245 C 
HETATM    2  N   UNL     1      -6.830 -12.911 -36.809  1.00  0.00    -0.267 N 
HETATM    3  O   UNL     1      -8.031 -14.770 -37.391  1.00  0.00    -0.271 OA
HETATM    4  H   UNL     1      -6.384 -12.056 -37.151  1.00  0.00     0.190 HD
ENDROOT
BRANCH   1   5
HETATM    5  C   UNL     1      -8.339 -12.792 -38.738  1.00  0.00     0.178 C 
BRANCH   5   6
HETATM    6  S   UNL     1      -7.900 -13.424 -40.388  1.00  0.00    -0.154 SA
BRANCH   6   7
HETATM    7  C   UNL     1      -6.626 -12.192 -40.817  1.00  0.00     0.135 C 
BRANCH   7   8
HETATM    8  C   UNL     1      -5.303 -12.594 -40.265  1.00  0.00     0.062 A 
HETATM    9  C   UNL     1      -4.371 -13.472 -40.787  1.00  0.00     0.126 A 
HETATM   10  N   UNL     1      -3.352 -13.522 -39.871  1.00  0.00    -0.315 N 
HETATM   11  C   UNL     1      -2.181 -14.275 -39.889  1.00  0.00     0.105 A 
HETATM   12  C   UNL     1      -3.693 -12.652 -38.844  1.00  0.00     0.134 A 
HETATM   13  C   UNL     1      -1.311 -14.174 -38.865  1.00  0.00    -0.046 A 
HETATM   14  C   UNL     1      -0.032 -14.944 -38.780  1.00  0.00     0.049 C 
HETATM   15  C   UNL     1      -1.640 -13.261 -37.768  1.00  0.00     0.012 A 
HETATM   16  C   UNL     1      -2.776 -12.537 -37.762  1.00  0.00     0.051 A 
HETATM   17  N   UNL     1      -4.856 -12.076 -39.068  1.00  0.00    -0.233 NA
ENDBRANCH   7   8
ENDBRANCH   6   7
ENDBRANCH   5   6
ENDBRANCH   1   5
BRANCH   2  18
HETATM   18  N   UNL     1      -6.143 -13.623 -35.819  1.00  0.00    -0.262 N 
HETATM   19  C   UNL     1      -6.598 -13.574 -34.519  1.00  0.00     0.286 C 
HETATM   20  O   UNL     1      -7.596 -12.929 -34.200  1.00  0.00    -0.264 OA
HETATM   21  H   UNL     1      -5.279 -14.080 -36.099  1.00  0.00     0.190 HD
BRANCH  19  22
HETATM   22  C   UNL     1      -5.830 -14.333 -33.557  1.00  0.00     0.103 A 
HETATM   23  N   UNL     1      -6.132 -14.291 -32.209  1.00  0.00    -0.360 N 
HETATM   24  H   UNL     1      -6.888 -13.737 -31.822  1.00  0.00     0.165 HD
HETATM   25  C   UNL     1      -5.284 -15.101 -31.503  1.00  0.00     0.107 A 
HETATM   26  C   UNL     1      -4.424 -15.665 -32.408  1.00  0.00     0.028 A 
HETATM   27 BR   UNL     1      -3.038 -16.870 -32.044  1.00  0.00    -0.050 Br
HETATM   28  C   UNL     1      -4.749 -15.194 -33.695  1.00  0.00     0.055 A 
ENDBRANCH  19  22
ENDBRANCH   2  18
TORSDOF 6
ENDMDL
