MODEL 1
REMARK VINA RESULT:      -8.6      0.000      0.000
REMARK  2 active torsions:
REMARK  status: ('A' for Active; 'I' for Inactive)
REMARK    1  A    between atoms: C_2  and  N_3 
REMARK    2  A    between atoms: N_3  and  C_4 
ROOT
HETATM    1  C   UNL     1      -5.620   1.184 -32.830  1.00  0.00     0.143 A 
HETATM    2  N   UNL     1      -5.110   2.044 -31.914  1.00  0.00    -0.223 NA
HETATM    3  C   UNL     1      -4.085   1.658 -31.140  1.00  0.00     0.236 A 
HETATM    4  N   UNL     1      -3.458   0.482 -31.145  1.00  0.00    -0.234 NA
HETATM    5  C   UNL     1      -3.969  -0.359 -32.058  1.00  0.00     0.114 A 
HETATM    6  C   UNL     1      -5.033  -0.100 -32.925  1.00  0.00     0.053 A 
HETATM    7  S   UNL     1      -3.305  -1.935 -32.244  1.00  0.00    -0.073 SA
HETATM    8  C   UNL     1      -4.400  -2.273 -33.458  1.00  0.00    -0.008 A 
HETATM    9  C   UNL     1      -5.265  -1.250 -33.736  1.00  0.00    -0.028 A 
HETATM   10  C   UNL     1      -6.189  -1.633 -34.835  1.00  0.00     0.041 C 
HETATM   11  C   UNL     1      -5.966  -3.174 -34.947  1.00  0.00     0.010 C 
HETATM   12  C   UNL     1      -4.587  -3.481 -34.293  1.00  0.00     0.047 C 
ENDROOT
BRANCH   1  13
HETATM   13  N   UNL     1      -6.718   1.547 -33.624  1.00  0.00    -0.340 N 
HETATM   14  H   UNL     1      -6.474   2.124 -34.414  1.00  0.00     0.167 HD
BRANCH  13  15
HETATM   15  C   UNL     1      -8.089   1.253 -33.529  1.00  0.00     0.036 A 
HETATM   16  C   UNL     1      -8.601   0.175 -32.797  1.00  0.00     0.032 A 
HETATM   17  C   UNL     1      -9.974  -0.095 -32.761  1.00  0.00     0.042 A 
HETATM   18  C   UNL     1     -10.858   0.707 -33.473  1.00  0.00     0.102 A 
HETATM   19  C   UNL     1     -10.365   1.763 -34.241  1.00  0.00     0.104 A 
HETATM   20  O   UNL     1     -12.190   0.394 -33.384  1.00  0.00    -0.346 OA
HETATM   21  C   UNL     1      -8.997   2.041 -34.256  1.00  0.00     0.069 A 
HETATM   22  O   UNL     1     -11.167   2.571 -35.008  1.00  0.00    -0.346 OA
HETATM   23  C   UNL     1     -12.457   1.980 -35.205  1.00  0.00     0.202 C 
HETATM   24  C   UNL     1     -13.010   1.453 -33.891  1.00  0.00     0.202 C 
ENDBRANCH  13  15
ENDBRANCH   1  13
TORSDOF 2
ENDMDL
MODEL 2
REMARK VINA RESULT:      -8.1      3.794      6.274
REMARK  2 active torsions:
REMARK  status: ('A' for Active; 'I' for Inactive)
REMARK    1  A    between atoms: C_2  and  N_3 
REMARK    2  A    between atoms: N_3  and  C_4 
ROOT
HETATM    1  C   UNL     1      -4.200   0.248 -31.689  1.00  0.00     0.143 A 
HETATM    2  N   UNL     1      -3.209  -0.567 -31.251  1.00  0.00    -0.223 NA
HETATM    3  C   UNL     1      -3.030  -1.765 -31.826  1.00  0.00     0.236 A 
HETATM    4  N   UNL     1      -3.728  -2.299 -32.829  1.00  0.00    -0.234 NA
HETATM    5  C   UNL     1      -4.703  -1.481 -33.256  1.00  0.00     0.114 A 
HETATM    6  C   UNL     1      -5.010  -0.216 -32.752  1.00  0.00     0.053 A 
HETATM    7  S   UNL     1      -5.726  -1.966 -34.552  1.00  0.00    -0.073 SA
HETATM    8  C   UNL     1      -6.560  -0.523 -34.458  1.00  0.00    -0.008 A 
HETATM    9  C   UNL     1      -6.112   0.322 -33.480  1.00  0.00    -0.028 A 
HETATM   10  C   UNL     1      -6.900   1.582 -33.480  1.00  0.00     0.041 C 
HETATM   11  C   UNL     1      -8.116   1.226 -34.392  1.00  0.00     0.010 C 
HETATM   12  C   UNL     1      -7.689   0.003 -35.257  1.00  0.00     0.047 C 
ENDROOT
BRANCH   1  13
HETATM   13  N   UNL     1      -4.434   1.488 -31.078  1.00  0.00    -0.340 N 
HETATM   14  H   UNL     1      -4.891   1.420 -30.181  1.00  0.00     0.167 HD
BRANCH  13  15
HETATM   15  C   UNL     1      -4.148   2.805 -31.477  1.00  0.00     0.036 A 
HETATM   16  C   UNL     1      -4.800   3.931 -30.960  1.00  0.00     0.032 A 
HETATM   17  C   UNL     1      -4.500   5.220 -31.417  1.00  0.00     0.042 A 
HETATM   18  C   UNL     1      -3.549   5.400 -32.414  1.00  0.00     0.102 A 
HETATM   19  C   UNL     1      -2.916   4.288 -32.972  1.00  0.00     0.104 A 
HETATM   20  O   UNL     1      -3.296   6.689 -32.806  1.00  0.00    -0.346 OA
HETATM   21  C   UNL     1      -3.202   3.007 -32.497  1.00  0.00     0.069 A 
HETATM   22  O   UNL     1      -2.001   4.378 -33.991  1.00  0.00    -0.346 OA
HETATM   23  C   UNL     1      -2.064   5.660 -34.629  1.00  0.00     0.202 C 
HETATM   24  C   UNL     1      -2.103   6.771 -33.593  1.00  0.00     0.202 C 
ENDBRANCH  13  15
ENDBRANCH   1  13
TORSDOF 2
ENDMDL
MODEL 3
REMARK VINA RESULT:      -7.7      2.255      2.963
REMARK  2 active torsions:
REMARK  status: ('A' for Active; 'I' for Inactive)
REMARK    1  A    between atoms: C_2  and  N_3 
REMARK    2  A    between atoms: N_3  and  C_4 
ROOT
HETATM    1  C   UNL     1      -4.696  -0.368 -33.218  1.00  0.00     0.143 A 
HETATM    2  N   UNL     1      -3.843   0.259 -32.369  1.00  0.00    -0.223 NA
HETATM    3  C   UNL     1      -2.911  -0.452 -31.718  1.00  0.00     0.236 A 
HETATM    4  N   UNL     1      -2.689  -1.764 -31.794  1.00  0.00    -0.234 NA
HETATM    5  C   UNL     1      -3.535  -2.372 -32.640  1.00  0.00     0.114 A 
HETATM    6  C   UNL     1      -4.554  -1.766 -33.378  1.00  0.00     0.053 A 
HETATM    7  S   UNL     1      -3.423  -4.070 -32.898  1.00  0.00    -0.073 SA
HETATM    8  C   UNL     1      -4.696  -4.008 -33.976  1.00  0.00    -0.008 A 
HETATM    9  C   UNL     1      -5.223  -2.758 -34.154  1.00  0.00    -0.028 A 
HETATM   10  C   UNL     1      -6.337  -2.797 -35.137  1.00  0.00     0.041 C 
HETATM   11  C   UNL     1      -6.621  -4.326 -35.271  1.00  0.00     0.010 C 
HETATM   12  C   UNL     1      -5.343  -5.069 -34.781  1.00  0.00     0.047 C 
ENDROOT
BRANCH   1  13
HETATM   13  N   UNL     1      -5.705   0.346 -33.880  1.00  0.00    -0.340 N 
HETATM   14  H   UNL     1      -5.591   0.378 -34.881  1.00  0.00     0.167 HD
BRANCH  13  15
HETATM   15  C   UNL     1      -6.847   1.019 -33.410  1.00  0.00     0.036 A 
HETATM   16  C   UNL     1      -8.022   1.165 -34.157  1.00  0.00     0.032 A 
HETATM   17  C   UNL     1      -9.121   1.874 -33.656  1.00  0.00     0.042 A 
HETATM   18  C   UNL     1      -9.052   2.463 -32.400  1.00  0.00     0.102 A 
HETATM   19  C   UNL     1      -7.875   2.365 -31.655  1.00  0.00     0.104 A 
HETATM   20  O   UNL     1     -10.166   3.133 -31.966  1.00  0.00    -0.346 OA
HETATM   21  C   UNL     1      -6.791   1.638 -32.150  1.00  0.00     0.069 A 
HETATM   22  O   UNL     1      -7.712   2.958 -30.427  1.00  0.00    -0.346 OA
HETATM   23  C   UNL     1      -8.716   3.953 -30.198  1.00  0.00     0.202 C 
HETATM   24  C   UNL     1     -10.092   3.420 -30.565  1.00  0.00     0.202 C 
ENDBRANCH  13  15
ENDBRANCH   1  13
TORSDOF 2
ENDMDL
MODEL 4
REMARK VINA RESULT:      -7.7      3.580      7.006
REMARK  2 active torsions:
REMARK  status: ('A' for Active; 'I' for Inactive)
REMARK    1  A    between atoms: C_2  and  N_3 
REMARK    2  A    between atoms: N_3  and  C_4 
ROOT
HETATM    1  C   UNL     1      -9.333   2.045 -33.351  1.00  0.00     0.143 A 
HETATM    2  N   UNL     1      -8.522   3.109 -33.575  1.00  0.00    -0.223 NA
HETATM    3  C   UNL     1      -8.996   4.180 -34.228  1.00  0.00     0.236 A 
HETATM    4  N   UNL     1     -10.224   4.359 -34.714  1.00  0.00    -0.234 NA
HETATM    5  C   UNL     1     -11.018   3.301 -34.483  1.00  0.00     0.114 A 
HETATM    6  C   UNL     1     -10.663   2.122 -33.826  1.00  0.00     0.053 A 
HETATM    7  S   UNL     1     -12.653   3.319 -35.019  1.00  0.00    -0.073 SA
HETATM    8  C   UNL     1     -12.896   1.794 -34.387  1.00  0.00    -0.008 A 
HETATM    9  C   UNL     1     -11.792   1.251 -33.788  1.00  0.00    -0.028 A 
HETATM   10  C   UNL     1     -12.104  -0.097 -33.243  1.00  0.00     0.041 C 
HETATM   11  C   UNL     1     -13.480  -0.422 -33.905  1.00  0.00     0.010 C 
HETATM   12  C   UNL     1     -14.101   0.934 -34.351  1.00  0.00     0.047 C 
ENDROOT
BRANCH   1  13
HETATM   13  N   UNL     1      -8.851   0.896 -32.707  1.00  0.00    -0.340 N 
HETATM   14  H   UNL     1      -9.477   0.530 -32.007  1.00  0.00     0.167 HD
BRANCH  13  15
HETATM   15  C   UNL     1      -7.663   0.159 -32.858  1.00  0.00     0.036 A 
HETATM   16  C   UNL     1      -6.452   0.509 -32.249  1.00  0.00     0.032 A 
HETATM   17  C   UNL     1      -5.288  -0.241 -32.459  1.00  0.00     0.042 A 
HETATM   18  C   UNL     1      -5.318  -1.349 -33.296  1.00  0.00     0.102 A 
HETATM   19  C   UNL     1      -6.505  -1.692 -33.945  1.00  0.00     0.104 A 
HETATM   20  O   UNL     1      -4.147  -2.045 -33.448  1.00  0.00    -0.346 OA
HETATM   21  C   UNL     1      -7.668  -0.954 -33.715  1.00  0.00     0.069 A 
HETATM   22  O   UNL     1      -6.605  -2.743 -34.823  1.00  0.00    -0.346 OA
HETATM   23  C   UNL     1      -5.310  -3.179 -35.254  1.00  0.00     0.202 C 
HETATM   24  C   UNL     1      -4.370  -3.316 -34.068  1.00  0.00     0.202 C 
ENDBRANCH  13  15
ENDBRANCH   1  13
TORSDOF 2
ENDMDL
MODEL 5
REMARK VINA RESULT:      -7.6      1.266      1.584
REMARK  2 active torsions:
REMARK  status: ('A' for Active; 'I' for Inactive)
REMARK    1  A    between atoms: C_2  and  N_3 
REMARK    2  A    between atoms: N_3  and  C_4 
ROOT
HETATM    1  C   UNL     1      -6.156   1.521 -33.489  1.00  0.00     0.143 A 
HETATM    2  N   UNL     1      -5.570   2.538 -32.810  1.00  0.00    -0.223 NA
HETATM    3  C   UNL     1      -4.436   2.316 -32.129  1.00  0.00     0.236 A 
HETATM    4  N   UNL     1      -3.762   1.171 -32.021  1.00  0.00    -0.234 NA
HETATM    5  C   UNL     1      -4.350   0.173 -32.701  1.00  0.00     0.114 A 
HETATM    6  C   UNL     1      -5.528   0.255 -33.445  1.00  0.00     0.053 A 
HETATM    7  S   UNL     1      -3.645  -1.396 -32.707  1.00  0.00    -0.073 SA
HETATM    8  C   UNL     1      -4.872  -1.963 -33.685  1.00  0.00    -0.008 A 
HETATM    9  C   UNL     1      -5.812  -1.024 -34.011  1.00  0.00    -0.028 A 
HETATM   10  C   UNL     1      -6.854  -1.613 -34.892  1.00  0.00     0.041 C 
HETATM   11  C   UNL     1      -6.577  -3.144 -34.773  1.00  0.00     0.010 C 
HETATM   12  C   UNL     1      -5.112  -3.302 -34.270  1.00  0.00     0.047 C 
ENDROOT
BRANCH   1  13
HETATM   13  N   UNL     1      -7.364   1.717 -34.175  1.00  0.00    -0.340 N 
HETATM   14  H   UNL     1      -7.304   1.525 -35.163  1.00  0.00     0.167 HD
BRANCH  13  15
HETATM   15  C   UNL     1      -8.639   2.123 -33.744  1.00  0.00     0.036 A 
HETATM   16  C   UNL     1      -8.851   3.129 -32.794  1.00  0.00     0.032 A 
HETATM   17  C   UNL     1     -10.141   3.473 -32.373  1.00  0.00     0.042 A 
HETATM   18  C   UNL     1     -11.242   2.800 -32.889  1.00  0.00     0.102 A 
HETATM   19  C   UNL     1     -11.051   1.766 -33.807  1.00  0.00     0.104 A 
HETATM   20  O   UNL     1     -12.476   3.195 -32.443  1.00  0.00    -0.346 OA
HETATM   21  C   UNL     1      -9.763   1.443 -34.240  1.00  0.00     0.069 A 
HETATM   22  O   UNL     1     -12.082   1.024 -34.327  1.00  0.00    -0.346 OA
HETATM   23  C   UNL     1     -13.277   1.189 -33.554  1.00  0.00     0.202 C 
HETATM   24  C   UNL     1     -13.524   2.659 -33.259  1.00  0.00     0.202 C 
ENDBRANCH  13  15
ENDBRANCH   1  13
TORSDOF 2
ENDMDL
MODEL 6
REMARK VINA RESULT:      -7.5      3.788      6.514
REMARK  2 active torsions:
REMARK  status: ('A' for Active; 'I' for Inactive)
REMARK    1  A    between atoms: C_2  and  N_3 
REMARK    2  A    between atoms: N_3  and  C_4 
ROOT
HETATM    1  C   UNL     1      -7.178   2.252 -33.067  1.00  0.00     0.143 A 
HETATM    2  N   UNL     1      -8.388   2.574 -33.588  1.00  0.00    -0.223 NA
HETATM    3  C   UNL     1      -8.601   3.812 -34.056  1.00  0.00     0.236 A 
HETATM    4  N   UNL     1      -7.742   4.830 -34.086  1.00  0.00    -0.234 NA
HETATM    5  C   UNL     1      -6.547   4.498 -33.572  1.00  0.00     0.114 A 
HETATM    6  C   UNL     1      -6.184   3.257 -33.045  1.00  0.00     0.053 A 
HETATM    7  S   UNL     1      -5.280   5.661 -33.517  1.00  0.00    -0.073 SA
HETATM    8  C   UNL     1      -4.259   4.543 -32.815  1.00  0.00    -0.008 A 
HETATM    9  C   UNL     1      -4.828   3.316 -32.604  1.00  0.00    -0.028 A 
HETATM   10  C   UNL     1      -3.846   2.384 -31.992  1.00  0.00     0.041 C 
HETATM   11  C   UNL     1      -2.692   3.342 -31.556  1.00  0.00     0.010 C 
HETATM   12  C   UNL     1      -2.844   4.645 -32.395  1.00  0.00     0.047 C 
ENDROOT
BRANCH   1  13
HETATM   13  N   UNL     1      -6.941   0.976 -32.534  1.00  0.00    -0.340 N 
HETATM   14  H   UNL     1      -7.135   0.906 -31.547  1.00  0.00     0.167 HD
BRANCH  13  15
HETATM   15  C   UNL     1      -6.490  -0.221 -33.118  1.00  0.00     0.036 A 
HETATM   16  C   UNL     1      -7.196  -0.913 -34.109  1.00  0.00     0.032 A 
HETATM   17  C   UNL     1      -6.720  -2.120 -34.635  1.00  0.00     0.042 A 
HETATM   18  C   UNL     1      -5.531  -2.661 -34.162  1.00  0.00     0.102 A 
HETATM   19  C   UNL     1      -4.831  -2.008 -33.145  1.00  0.00     0.104 A 
HETATM   20  O   UNL     1      -5.115  -3.839 -34.728  1.00  0.00    -0.346 OA
HETATM   21  C   UNL     1      -5.299  -0.794 -32.641  1.00  0.00     0.069 A 
HETATM   22  O   UNL     1      -3.675  -2.502 -32.593  1.00  0.00    -0.346 OA
HETATM   23  C   UNL     1      -3.500  -3.887 -32.914  1.00  0.00     0.202 C 
HETATM   24  C   UNL     1      -3.754  -4.129 -34.393  1.00  0.00     0.202 C 
ENDBRANCH  13  15
ENDBRANCH   1  13
TORSDOF 2
ENDMDL
MODEL 7
REMARK VINA RESULT:      -7.5      3.705      6.283
REMARK  2 active torsions:
REMARK  status: ('A' for Active; 'I' for Inactive)
REMARK    1  A    between atoms: C_2  and  N_3 
REMARK    2  A    between atoms: N_3  and  C_4 
ROOT
HETATM    1  C   UNL     1      -6.600   1.023 -32.882  1.00  0.00     0.143 A 
HETATM    2  N   UNL     1      -7.614   1.508 -33.639  1.00  0.00    -0.223 NA
HETATM    3  C   UNL     1      -8.022   0.826 -34.720  1.00  0.00     0.236 A 
HETATM    4  N   UNL     1      -7.546  -0.332 -35.179  1.00  0.00    -0.234 NA
HETATM    5  C   UNL     1      -6.545  -0.804 -34.418  1.00  0.00     0.114 A 
HETATM    6  C   UNL     1      -6.014  -0.203 -33.275  1.00  0.00     0.053 A 
HETATM    7  S   UNL     1      -5.785  -2.293 -34.823  1.00  0.00    -0.073 SA
HETATM    8  C   UNL     1      -4.772  -2.156 -33.504  1.00  0.00    -0.008 A 
HETATM    9  C   UNL     1      -4.967  -1.024 -32.761  1.00  0.00    -0.028 A 
HETATM   10  C   UNL     1      -4.034  -0.993 -31.604  1.00  0.00     0.041 C 
HETATM   11  C   UNL     1      -3.015  -2.121 -31.957  1.00  0.00     0.010 C 
HETATM   12  C   UNL     1      -3.710  -3.052 -32.994  1.00  0.00     0.047 C 
ENDROOT
BRANCH   1  13
HETATM   13  N   UNL     1      -6.127   1.737 -31.770  1.00  0.00    -0.340 N 
HETATM   14  H   UNL     1      -6.493   1.407 -30.891  1.00  0.00     0.167 HD
BRANCH  13  15
HETATM   15  C   UNL     1      -5.237   2.819 -31.654  1.00  0.00     0.036 A 
HETATM   16  C   UNL     1      -5.421   3.880 -30.760  1.00  0.00     0.032 A 
HETATM   17  C   UNL     1      -4.522   4.952 -30.707  1.00  0.00     0.042 A 
HETATM   18  C   UNL     1      -3.428   4.983 -31.563  1.00  0.00     0.102 A 
HETATM   19  C   UNL     1      -3.247   3.955 -32.489  1.00  0.00     0.104 A 
HETATM   20  O   UNL     1      -2.581   6.055 -31.450  1.00  0.00    -0.346 OA
HETATM   21  C   UNL     1      -4.134   2.877 -32.523  1.00  0.00     0.069 A 
HETATM   22  O   UNL     1      -2.219   3.935 -33.399  1.00  0.00    -0.346 OA
HETATM   23  C   UNL     1      -1.612   5.228 -33.519  1.00  0.00     0.202 C 
HETATM   24  C   UNL     1      -1.350   5.825 -32.146  1.00  0.00     0.202 C 
ENDBRANCH  13  15
ENDBRANCH   1  13
TORSDOF 2
ENDMDL
MODEL 8
REMARK VINA RESULT:      -7.4      4.059      6.457
REMARK  2 active torsions:
REMARK  status: ('A' for Active; 'I' for Inactive)
REMARK    1  A    between atoms: C_2  and  N_3 
REMARK    2  A    between atoms: N_3  and  C_4 
ROOT
HETATM    1  C   UNL     1      -5.869   2.578 -30.721  1.00  0.00     0.143 A 
HETATM    2  N   UNL     1      -7.082   2.634 -30.117  1.00  0.00    -0.223 NA
HETATM    3  C   UNL     1      -7.874   3.698 -30.315  1.00  0.00     0.236 A 
HETATM    4  N   UNL     1      -7.626   4.768 -31.070  1.00  0.00    -0.234 NA
HETATM    5  C   UNL     1      -6.425   4.699 -31.666  1.00  0.00     0.114 A 
HETATM    6  C   UNL     1      -5.496   3.663 -31.548  1.00  0.00     0.053 A 
HETATM    7  S   UNL     1      -5.900   5.973 -32.695  1.00  0.00    -0.073 SA
HETATM    8  C   UNL     1      -4.468   5.169 -32.991  1.00  0.00    -0.008 A 
HETATM    9  C   UNL     1      -4.350   3.972 -32.339  1.00  0.00    -0.028 A 
HETATM   10  C   UNL     1      -3.055   3.323 -32.672  1.00  0.00     0.041 C 
HETATM   11  C   UNL     1      -2.263   4.476 -33.363  1.00  0.00     0.010 C 
HETATM   12  C   UNL     1      -3.311   5.521 -33.845  1.00  0.00     0.047 C 
ENDROOT
BRANCH   1  13
HETATM   13  N   UNL     1      -5.004   1.496 -30.498  1.00  0.00    -0.340 N 
HETATM   14  H   UNL     1      -4.519   1.540 -29.616  1.00  0.00     0.167 HD
BRANCH  13  15
HETATM   15  C   UNL     1      -4.693   0.363 -31.270  1.00  0.00     0.036 A 
HETATM   16  C   UNL     1      -3.450  -0.279 -31.236  1.00  0.00     0.032 A 
HETATM   17  C   UNL     1      -3.179  -1.386 -32.051  1.00  0.00     0.042 A 
HETATM   18  C   UNL     1      -4.150  -1.858 -32.925  1.00  0.00     0.102 A 
HETATM   19  C   UNL     1      -5.383  -1.207 -33.004  1.00  0.00     0.104 A 
HETATM   20  O   UNL     1      -3.823  -2.951 -33.685  1.00  0.00    -0.346 OA
HETATM   21  C   UNL     1      -5.655  -0.119 -32.173  1.00  0.00     0.069 A 
HETATM   22  O   UNL     1      -6.376  -1.583 -33.874  1.00  0.00    -0.346 OA
HETATM   23  C   UNL     1      -5.864  -2.442 -34.900  1.00  0.00     0.202 C 
HETATM   24  C   UNL     1      -4.982  -3.525 -34.301  1.00  0.00     0.202 C 
ENDBRANCH  13  15
ENDBRANCH   1  13
TORSDOF 2
ENDMDL
MODEL 9
REMARK VINA RESULT:      -7.3      1.626      3.502
REMARK  2 active torsions:
REMARK  status: ('A' for Active; 'I' for Inactive)
REMARK    1  A    between atoms: C_2  and  N_3 
REMARK    2  A    between atoms: N_3  and  C_4 
ROOT
HETATM    1  C   UNL     1      -7.011  -0.847 -33.199  1.00  0.00     0.143 A 
HETATM    2  N   UNL     1      -7.075  -1.928 -34.015  1.00  0.00    -0.223 NA
HETATM    3  C   UNL     1      -5.944  -2.474 -34.484  1.00  0.00     0.236 A 
HETATM    4  N   UNL     1      -4.692  -2.084 -34.247  1.00  0.00    -0.234 NA
HETATM    5  C   UNL     1      -4.641  -1.015 -33.435  1.00  0.00     0.114 A 
HETATM    6  C   UNL     1      -5.730  -0.342 -32.878  1.00  0.00     0.053 A 
HETATM    7  S   UNL     1      -3.121  -0.345 -32.988  1.00  0.00    -0.073 SA
HETATM    8  C   UNL     1      -3.884   0.816 -32.063  1.00  0.00    -0.008 A 
HETATM    9  C   UNL     1      -5.250   0.736 -32.075  1.00  0.00    -0.028 A 
HETATM   10  C   UNL     1      -5.842   1.795 -31.217  1.00  0.00     0.041 C 
HETATM   11  C   UNL     1      -4.626   2.739 -30.951  1.00  0.00     0.010 C 
HETATM   12  C   UNL     1      -3.339   1.906 -31.223  1.00  0.00     0.047 C 
ENDROOT
BRANCH   1  13
HETATM   13  N   UNL     1      -8.180  -0.232 -32.727  1.00  0.00    -0.340 N 
HETATM   14  H   UNL     1      -8.452  -0.533 -31.804  1.00  0.00     0.167 HD
BRANCH  13  15
HETATM   15  C   UNL     1      -9.037   0.726 -33.295  1.00  0.00     0.036 A 
HETATM   16  C   UNL     1      -8.593   1.938 -33.838  1.00  0.00     0.032 A 
HETATM   17  C   UNL     1      -9.492   2.874 -34.363  1.00  0.00     0.042 A 
HETATM   18  C   UNL     1     -10.857   2.615 -34.338  1.00  0.00     0.102 A 
HETATM   19  C   UNL     1     -11.324   1.431 -33.765  1.00  0.00     0.104 A 
HETATM   20  O   UNL     1     -11.680   3.569 -34.878  1.00  0.00    -0.346 OA
HETATM   21  C   UNL     1     -10.422   0.491 -33.263  1.00  0.00     0.069 A 
HETATM   22  O   UNL     1     -12.658   1.124 -33.659  1.00  0.00    -0.346 OA
HETATM   23  C   UNL     1     -13.472   2.286 -33.858  1.00  0.00     0.202 C 
HETATM   24  C   UNL     1     -13.005   3.064 -35.077  1.00  0.00     0.202 C 
ENDBRANCH  13  15
ENDBRANCH   1  13
TORSDOF 2
ENDMDL
MODEL 10
REMARK VINA RESULT:      -7.2     15.000     16.820
REMARK  2 active torsions:
REMARK  status: ('A' for Active; 'I' for Inactive)
REMARK    1  A    between atoms: C_2  and  N_3 
REMARK    2  A    between atoms: N_3  and  C_4 
ROOT
HETATM    1  C   UNL     1      -4.342 -13.258 -36.739  1.00  0.00     0.143 A 
HETATM    2  N   UNL     1      -4.348 -13.772 -35.484  1.00  0.00    -0.223 NA
HETATM    3  C   UNL     1      -5.484 -14.274 -34.977  1.00  0.00     0.236 A 
HETATM    4  N   UNL     1      -6.677 -14.345 -35.567  1.00  0.00    -0.234 NA
HETATM    5  C   UNL     1      -6.658 -13.837 -36.810  1.00  0.00     0.114 A 
HETATM    6  C   UNL     1      -5.557 -13.279 -37.463  1.00  0.00     0.053 A 
HETATM    7  S   UNL     1      -8.091 -13.832 -37.761  1.00  0.00    -0.073 SA
HETATM    8  C   UNL     1      -7.273 -13.111 -39.024  1.00  0.00    -0.008 A 
HETATM    9  C   UNL     1      -5.953 -12.857 -38.767  1.00  0.00    -0.028 A 
HETATM   10  C   UNL     1      -5.303 -12.230 -39.948  1.00  0.00     0.041 C 
HETATM   11  C   UNL     1      -6.523 -11.837 -40.840  1.00  0.00     0.010 C 
HETATM   12  C   UNL     1      -7.724 -12.712 -40.376  1.00  0.00     0.047 C 
ENDROOT
BRANCH   1  13
HETATM   13  N   UNL     1      -3.178 -12.691 -37.278  1.00  0.00    -0.340 N 
HETATM   14  H   UNL     1      -3.103 -11.697 -37.126  1.00  0.00     0.167 HD
BRANCH  13  15
HETATM   15  C   UNL     1      -2.097 -13.248 -37.983  1.00  0.00     0.036 A 
HETATM   16  C   UNL     1      -1.890 -13.065 -39.355  1.00  0.00     0.032 A 
HETATM   17  C   UNL     1      -0.815 -13.670 -40.017  1.00  0.00     0.042 A 
HETATM   18  C   UNL     1       0.064 -14.484 -39.313  1.00  0.00     0.102 A 
HETATM   19  C   UNL     1      -0.147 -14.713 -37.953  1.00  0.00     0.104 A 
HETATM   20  O   UNL     1       1.101 -15.035 -40.020  1.00  0.00    -0.346 OA
HETATM   21  C   UNL     1      -1.207 -14.089 -37.293  1.00  0.00     0.069 A 
HETATM   22  O   UNL     1       0.648 -15.539 -37.198  1.00  0.00    -0.346 OA
HETATM   23  C   UNL     1       1.447 -16.387 -38.032  1.00  0.00     0.202 C 
HETATM   24  C   UNL     1       2.095 -15.584 -39.147  1.00  0.00     0.202 C 
ENDBRANCH  13  15
ENDBRANCH   1  13
TORSDOF 2
ENDMDL
