MODEL 1
REMARK VINA RESULT:      -7.7      0.000      0.000
REMARK  10 active torsions:
REMARK  status: ('A' for Active; 'I' for Inactive)
REMARK    1  A    between atoms: O_2  and  C_3 
REMARK    2  A    between atoms: C_6  and  C_7 
REMARK       I    between atoms: C_7  and  N_8 
REMARK    3  A    between atoms: N_8  and  C_9 
REMARK    4  A    between atoms: C_9  and  N_10 
REMARK    5  A    between atoms: N_10  and  C_11 
REMARK    6  A    between atoms: C_12  and  C_13 
REMARK       I    between atoms: C_13  and  N_14 
REMARK    7  A    between atoms: N_14  and  C_15 
REMARK    8  A    between atoms: C_15  and  C_16 
REMARK    9  A    between atoms: C_16  and  C_17 
REMARK   10  A    between atoms: C_17  and  O_18 
ROOT
HETATM    1  N   UNL     1      -4.279  -0.902 -33.749  1.00  0.00    -0.332 N 
HETATM    2  H   UNL     1      -3.430  -0.791 -34.289  1.00  0.00     0.168 HD
ENDROOT
BRANCH   1   3
HETATM    3  C   UNL     1      -4.216  -0.293 -32.511  1.00  0.00     0.179 C 
HETATM    4  S   UNL     1      -2.963  -0.373 -31.400  1.00  0.00    -0.040 SA
BRANCH   3   5
HETATM    5  N   UNL     1      -5.236   0.600 -32.223  1.00  0.00    -0.299 N 
HETATM    6  C   UNL     1      -5.078   1.847 -31.657  1.00  0.00     0.257 C 
HETATM    7  O   UNL     1      -5.341   2.068 -30.480  1.00  0.00    -0.267 OA
HETATM    8  H   UNL     1      -5.990   0.081 -31.787  1.00  0.00     0.171 HD
BRANCH   6   9
HETATM    9  C   UNL     1      -4.578   2.932 -32.529  1.00  0.00     0.032 A 
HETATM   10  C   UNL     1      -5.432   3.558 -33.443  1.00  0.00     0.020 A 
HETATM   11  C   UNL     1      -4.979   4.668 -34.163  1.00  0.00     0.038 A 
HETATM   12  C   UNL     1      -3.676   5.133 -33.972  1.00  0.00     0.068 A 
HETATM   13  C   UNL     1      -2.809   4.474 -33.100  1.00  0.00     0.038 A 
HETATM   14  C   UNL     1      -3.267   3.390 -32.353  1.00  0.00     0.020 A 
BRANCH  12  15
HETATM   15  O   UNL     1      -3.174   6.212 -34.647  1.00  0.00    -0.356 OA
HETATM   16  C   UNL     1      -1.840   6.518 -34.245  1.00  0.00     0.210 C 
ENDBRANCH  12  15
ENDBRANCH   6   9
ENDBRANCH   3   5
ENDBRANCH   1   3
BRANCH   1  17
HETATM   17  C   UNL     1      -5.037  -2.044 -34.115  1.00  0.00     0.050 A 
HETATM   18  C   UNL     1      -6.406  -2.053 -34.436  1.00  0.00     0.058 A 
HETATM   19  C   UNL     1      -7.041  -3.270 -34.758  1.00  0.00     0.019 A 
HETATM   20  C   UNL     1      -6.323  -4.465 -34.767  1.00  0.00     0.001 A 
HETATM   21  C   UNL     1      -4.960  -4.455 -34.491  1.00  0.00     0.002 A 
HETATM   22  C   UNL     1      -4.320  -3.252 -34.184  1.00  0.00     0.030 A 
BRANCH  18  23
HETATM   23  C   UNL     1      -7.190  -0.805 -34.637  1.00  0.00     0.253 C 
HETATM   24  N   UNL     1      -8.230  -0.607 -33.748  1.00  0.00    -0.357 N 
HETATM   25  H   UNL     1      -8.390  -1.281 -33.010  1.00  0.00     0.162 HD
HETATM   26  O   UNL     1      -6.922  -0.039 -35.555  1.00  0.00    -0.268 OA
BRANCH  24  27
HETATM   27  C   UNL     1      -9.139   0.509 -33.892  1.00  0.00     0.125 C 
BRANCH  27  28
HETATM   28  C   UNL     1      -9.781   0.922 -32.575  1.00  0.00     0.046 C 
BRANCH  28  29
HETATM   29  C   UNL     1      -8.786   1.550 -31.610  1.00  0.00     0.165 C 
BRANCH  29  30
HETATM   30  O   UNL     1      -8.057   0.522 -30.948  1.00  0.00    -0.401 OA
HETATM   31  H   UNL     1      -8.689   0.020 -30.407  1.00  0.00     0.209 HD
ENDBRANCH  29  30
ENDBRANCH  28  29
ENDBRANCH  27  28
ENDBRANCH  24  27
ENDBRANCH  18  23
ENDBRANCH   1  17
TORSDOF 10
ENDMDL
MODEL 2
REMARK VINA RESULT:      -7.4      3.054      5.880
REMARK  10 active torsions:
REMARK  status: ('A' for Active; 'I' for Inactive)
REMARK    1  A    between atoms: O_2  and  C_3 
REMARK    2  A    between atoms: C_6  and  C_7 
REMARK       I    between atoms: C_7  and  N_8 
REMARK    3  A    between atoms: N_8  and  C_9 
REMARK    4  A    between atoms: C_9  and  N_10 
REMARK    5  A    between atoms: N_10  and  C_11 
REMARK    6  A    between atoms: C_12  and  C_13 
REMARK       I    between atoms: C_13  and  N_14 
REMARK    7  A    between atoms: N_14  and  C_15 
REMARK    8  A    between atoms: C_15  and  C_16 
REMARK    9  A    between atoms: C_16  and  C_17 
REMARK   10  A    between atoms: C_17  and  O_18 
ROOT
HETATM    1  N   UNL     1      -4.986   2.146 -32.850  1.00  0.00    -0.332 N 
HETATM    2  H   UNL     1      -3.995   1.943 -32.829  1.00  0.00     0.168 HD
ENDROOT
BRANCH   1   3
HETATM    3  C   UNL     1      -5.399   2.930 -31.791  1.00  0.00     0.179 C 
HETATM    4  S   UNL     1      -5.272   4.596 -31.649  1.00  0.00    -0.040 SA
BRANCH   3   5
HETATM    5  N   UNL     1      -6.132   2.284 -30.808  1.00  0.00    -0.299 N 
HETATM    6  C   UNL     1      -7.417   2.598 -30.424  1.00  0.00     0.257 C 
HETATM    7  O   UNL     1      -7.659   3.206 -29.387  1.00  0.00    -0.267 OA
HETATM    8  H   UNL     1      -5.523   2.143 -30.009  1.00  0.00     0.171 HD
BRANCH   6   9
HETATM    9  C   UNL     1      -8.518   2.169 -31.315  1.00  0.00     0.032 A 
HETATM   10  C   UNL     1      -9.240   3.112 -32.054  1.00  0.00     0.020 A 
HETATM   11  C   UNL     1     -10.185   2.679 -32.989  1.00  0.00     0.038 A 
HETATM   12  C   UNL     1     -10.407   1.312 -33.168  1.00  0.00     0.068 A 
HETATM   13  C   UNL     1      -9.724   0.376 -32.391  1.00  0.00     0.038 A 
HETATM   14  C   UNL     1      -8.755   0.801 -31.483  1.00  0.00     0.020 A 
BRANCH  12  15
HETATM   15  O   UNL     1     -11.318   0.825 -34.065  1.00  0.00    -0.356 OA
HETATM   16  C   UNL     1     -11.935   1.869 -34.817  1.00  0.00     0.210 C 
ENDBRANCH  12  15
ENDBRANCH   6   9
ENDBRANCH   3   5
ENDBRANCH   1   3
BRANCH   1  17
HETATM   17  C   UNL     1      -5.747   1.186 -33.565  1.00  0.00     0.050 A 
HETATM   18  C   UNL     1      -5.633  -0.210 -33.440  1.00  0.00     0.058 A 
HETATM   19  C   UNL     1      -6.438  -1.051 -34.236  1.00  0.00     0.019 A 
HETATM   20  C   UNL     1      -7.351  -0.512 -35.142  1.00  0.00     0.001 A 
HETATM   21  C   UNL     1      -7.496   0.867 -35.238  1.00  0.00     0.002 A 
HETATM   22  C   UNL     1      -6.713   1.708 -34.444  1.00  0.00     0.030 A 
BRANCH  18  23
HETATM   23  C   UNL     1      -4.829  -0.856 -32.368  1.00  0.00     0.253 C 
HETATM   24  N   UNL     1      -3.798  -1.666 -32.804  1.00  0.00    -0.357 N 
HETATM   25  H   UNL     1      -3.624  -1.759 -33.798  1.00  0.00     0.162 HD
HETATM   26  O   UNL     1      -5.107  -0.682 -31.188  1.00  0.00    -0.268 OA
BRANCH  24  27
HETATM   27  C   UNL     1      -3.004  -2.438 -31.874  1.00  0.00     0.125 C 
BRANCH  27  28
HETATM   28  C   UNL     1      -3.130  -3.939 -32.094  1.00  0.00     0.046 C 
BRANCH  28  29
HETATM   29  C   UNL     1      -3.754  -4.283 -33.439  1.00  0.00     0.165 C 
BRANCH  29  30
HETATM   30  O   UNL     1      -2.993  -5.311 -34.064  1.00  0.00    -0.401 OA
HETATM   31  H   UNL     1      -2.668  -4.959 -34.910  1.00  0.00     0.209 HD
ENDBRANCH  29  30
ENDBRANCH  28  29
ENDBRANCH  27  28
ENDBRANCH  24  27
ENDBRANCH  18  23
ENDBRANCH   1  17
TORSDOF 10
ENDMDL
MODEL 3
REMARK VINA RESULT:      -7.4      2.555      6.374
REMARK  10 active torsions:
REMARK  status: ('A' for Active; 'I' for Inactive)
REMARK    1  A    between atoms: O_2  and  C_3 
REMARK    2  A    between atoms: C_6  and  C_7 
REMARK       I    between atoms: C_7  and  N_8 
REMARK    3  A    between atoms: N_8  and  C_9 
REMARK    4  A    between atoms: C_9  and  N_10 
REMARK    5  A    between atoms: N_10  and  C_11 
REMARK    6  A    between atoms: C_12  and  C_13 
REMARK       I    between atoms: C_13  and  N_14 
REMARK    7  A    between atoms: N_14  and  C_15 
REMARK    8  A    between atoms: C_15  and  C_16 
REMARK    9  A    between atoms: C_16  and  C_17 
REMARK   10  A    between atoms: C_17  and  O_18 
ROOT
HETATM    1  N   UNL     1      -7.618   2.247 -30.310  1.00  0.00    -0.332 N 
HETATM    2  H   UNL     1      -7.799   1.894 -29.378  1.00  0.00     0.168 HD
ENDROOT
BRANCH   1   3
HETATM    3  C   UNL     1      -8.741   2.778 -30.914  1.00  0.00     0.179 C 
HETATM    4  S   UNL     1      -9.050   4.391 -31.248  1.00  0.00    -0.040 SA
BRANCH   3   5
HETATM    5  N   UNL     1      -9.641   1.860 -31.433  1.00  0.00    -0.299 N 
HETATM    6  C   UNL     1      -9.881   1.636 -32.772  1.00  0.00     0.257 C 
HETATM    7  O   UNL     1     -10.882   2.061 -33.336  1.00  0.00    -0.267 OA
HETATM    8  H   UNL     1     -10.502   1.935 -30.903  1.00  0.00     0.171 HD
BRANCH   6   9
HETATM    9  C   UNL     1      -8.876   0.849 -33.520  1.00  0.00     0.032 A 
HETATM   10  C   UNL     1      -8.018   1.476 -34.429  1.00  0.00     0.020 A 
HETATM   11  C   UNL     1      -6.989   0.742 -35.026  1.00  0.00     0.038 A 
HETATM   12  C   UNL     1      -6.836  -0.612 -34.720  1.00  0.00     0.068 A 
HETATM   13  C   UNL     1      -7.727  -1.248 -33.855  1.00  0.00     0.038 A 
HETATM   14  C   UNL     1      -8.731  -0.512 -33.229  1.00  0.00     0.020 A 
BRANCH  12  15
HETATM   15  O   UNL     1      -5.851  -1.385 -35.272  1.00  0.00    -0.356 OA
HETATM   16  C   UNL     1      -5.836  -2.702 -34.724  1.00  0.00     0.210 C 
ENDBRANCH  12  15
ENDBRANCH   6   9
ENDBRANCH   3   5
ENDBRANCH   1   3
BRANCH   1  17
HETATM   17  C   UNL     1      -6.502   1.640 -30.939  1.00  0.00     0.050 A 
HETATM   18  C   UNL     1      -5.544   2.300 -31.729  1.00  0.00     0.058 A 
HETATM   19  C   UNL     1      -4.496   1.564 -32.318  1.00  0.00     0.019 A 
HETATM   20  C   UNL     1      -4.394   0.188 -32.119  1.00  0.00     0.001 A 
HETATM   21  C   UNL     1      -5.314  -0.462 -31.304  1.00  0.00     0.002 A 
HETATM   22  C   UNL     1      -6.349   0.262 -30.706  1.00  0.00     0.030 A 
BRANCH  18  23
HETATM   23  C   UNL     1      -5.472   3.783 -31.829  1.00  0.00     0.253 C 
HETATM   24  N   UNL     1      -5.327   4.287 -33.108  1.00  0.00    -0.357 N 
HETATM   25  H   UNL     1      -5.304   3.649 -33.895  1.00  0.00     0.162 HD
HETATM   26  O   UNL     1      -5.515   4.480 -30.822  1.00  0.00    -0.268 OA
BRANCH  24  27
HETATM   27  C   UNL     1      -5.138   5.701 -33.341  1.00  0.00     0.125 C 
BRANCH  27  28
HETATM   28  C   UNL     1      -3.675   6.120 -33.280  1.00  0.00     0.046 C 
BRANCH  28  29
HETATM   29  C   UNL     1      -2.886   5.666 -34.501  1.00  0.00     0.165 C 
BRANCH  29  30
HETATM   30  O   UNL     1      -3.779   5.455 -35.589  1.00  0.00    -0.401 OA
HETATM   31  H   UNL     1      -3.532   4.613 -36.008  1.00  0.00     0.209 HD
ENDBRANCH  29  30
ENDBRANCH  28  29
ENDBRANCH  27  28
ENDBRANCH  24  27
ENDBRANCH  18  23
ENDBRANCH   1  17
TORSDOF 10
ENDMDL
MODEL 4
REMARK VINA RESULT:      -7.3      2.575      6.338
REMARK  10 active torsions:
REMARK  status: ('A' for Active; 'I' for Inactive)
REMARK    1  A    between atoms: O_2  and  C_3 
REMARK    2  A    between atoms: C_6  and  C_7 
REMARK       I    between atoms: C_7  and  N_8 
REMARK    3  A    between atoms: N_8  and  C_9 
REMARK    4  A    between atoms: C_9  and  N_10 
REMARK    5  A    between atoms: N_10  and  C_11 
REMARK    6  A    between atoms: C_12  and  C_13 
REMARK       I    between atoms: C_13  and  N_14 
REMARK    7  A    between atoms: N_14  and  C_15 
REMARK    8  A    between atoms: C_15  and  C_16 
REMARK    9  A    between atoms: C_16  and  C_17 
REMARK   10  A    between atoms: C_17  and  O_18 
ROOT
HETATM    1  N   UNL     1      -6.253   2.557 -29.802  1.00  0.00    -0.332 N 
HETATM    2  H   UNL     1      -6.154   2.263 -28.838  1.00  0.00     0.168 HD
ENDROOT
BRANCH   1   3
HETATM    3  C   UNL     1      -7.387   3.314 -30.022  1.00  0.00     0.179 C 
HETATM    4  S   UNL     1      -7.476   4.976 -30.224  1.00  0.00    -0.040 SA
BRANCH   3   5
HETATM    5  N   UNL     1      -8.556   2.605 -30.247  1.00  0.00    -0.299 N 
HETATM    6  C   UNL     1      -9.253   2.558 -31.435  1.00  0.00     0.257 C 
HETATM    7  O   UNL     1     -10.290   3.188 -31.609  1.00  0.00    -0.267 OA
HETATM    8  H   UNL     1      -9.170   2.759 -29.455  1.00  0.00     0.171 HD
BRANCH   6   9
HETATM    9  C   UNL     1      -8.705   1.704 -32.512  1.00  0.00     0.032 A 
HETATM   10  C   UNL     1      -7.968   2.268 -33.558  1.00  0.00     0.020 A 
HETATM   11  C   UNL     1      -7.346   1.435 -34.492  1.00  0.00     0.038 A 
HETATM   12  C   UNL     1      -7.476   0.049 -34.379  1.00  0.00     0.068 A 
HETATM   13  C   UNL     1      -8.256  -0.509 -33.366  1.00  0.00     0.038 A 
HETATM   14  C   UNL     1      -8.848   0.316 -32.411  1.00  0.00     0.020 A 
BRANCH  12  15
HETATM   15  O   UNL     1      -6.893  -0.819 -35.262  1.00  0.00    -0.356 OA
HETATM   16  C   UNL     1      -6.708  -2.114 -34.693  1.00  0.00     0.210 C 
ENDBRANCH  12  15
ENDBRANCH   6   9
ENDBRANCH   3   5
ENDBRANCH   1   3
BRANCH   1  17
HETATM   17  C   UNL     1      -5.585   1.710 -30.724  1.00  0.00     0.050 A 
HETATM   18  C   UNL     1      -4.784   2.136 -31.798  1.00  0.00     0.058 A 
HETATM   19  C   UNL     1      -4.199   1.182 -32.655  1.00  0.00     0.019 A 
HETATM   20  C   UNL     1      -4.401  -0.182 -32.444  1.00  0.00     0.001 A 
HETATM   21  C   UNL     1      -5.158  -0.608 -31.359  1.00  0.00     0.002 A 
HETATM   22  C   UNL     1      -5.731   0.331 -30.497  1.00  0.00     0.030 A 
BRANCH  18  23
HETATM   23  C   UNL     1      -4.365   3.553 -31.973  1.00  0.00     0.253 C 
HETATM   24  N   UNL     1      -4.521   4.066 -33.246  1.00  0.00    -0.357 N 
HETATM   25  H   UNL     1      -4.924   3.486 -33.972  1.00  0.00     0.162 HD
HETATM   26  O   UNL     1      -3.891   4.184 -31.036  1.00  0.00    -0.268 OA
BRANCH  24  27
HETATM   27  C   UNL     1      -4.056   5.394 -33.583  1.00  0.00     0.125 C 
BRANCH  27  28
HETATM   28  C   UNL     1      -3.176   5.415 -34.825  1.00  0.00     0.046 C 
BRANCH  28  29
HETATM   29  C   UNL     1      -1.693   5.497 -34.491  1.00  0.00     0.165 C 
BRANCH  29  30
HETATM   30  O   UNL     1      -0.932   5.049 -35.607  1.00  0.00    -0.401 OA
HETATM   31  H   UNL     1      -0.604   4.158 -35.396  1.00  0.00     0.209 HD
ENDBRANCH  29  30
ENDBRANCH  28  29
ENDBRANCH  27  28
ENDBRANCH  24  27
ENDBRANCH  18  23
ENDBRANCH   1  17
TORSDOF 10
ENDMDL
MODEL 5
REMARK VINA RESULT:      -7.2      2.890      3.887
REMARK  10 active torsions:
REMARK  status: ('A' for Active; 'I' for Inactive)
REMARK    1  A    between atoms: O_2  and  C_3 
REMARK    2  A    between atoms: C_6  and  C_7 
REMARK       I    between atoms: C_7  and  N_8 
REMARK    3  A    between atoms: N_8  and  C_9 
REMARK    4  A    between atoms: C_9  and  N_10 
REMARK    5  A    between atoms: N_10  and  C_11 
REMARK    6  A    between atoms: C_12  and  C_13 
REMARK       I    between atoms: C_13  and  N_14 
REMARK    7  A    between atoms: N_14  and  C_15 
REMARK    8  A    between atoms: C_15  and  C_16 
REMARK    9  A    between atoms: C_16  and  C_17 
REMARK   10  A    between atoms: C_17  and  O_18 
ROOT
HETATM    1  N   UNL     1      -8.412   0.911 -31.308  1.00  0.00    -0.332 N 
HETATM    2  H   UNL     1      -9.278   0.504 -30.979  1.00  0.00     0.168 HD
ENDROOT
BRANCH   1   3
HETATM    3  C   UNL     1      -8.156   2.152 -30.760  1.00  0.00     0.179 C 
HETATM    4  S   UNL     1      -8.993   3.578 -31.037  1.00  0.00    -0.040 SA
BRANCH   3   5
HETATM    5  N   UNL     1      -7.198   2.187 -29.759  1.00  0.00    -0.299 N 
HETATM    6  C   UNL     1      -5.945   1.615 -29.823  1.00  0.00     0.257 C 
HETATM    7  O   UNL     1      -5.674   0.570 -29.242  1.00  0.00    -0.267 OA
HETATM    8  H   UNL     1      -7.660   1.986 -28.879  1.00  0.00     0.171 HD
BRANCH   6   9
HETATM    9  C   UNL     1      -4.918   2.315 -30.624  1.00  0.00     0.032 A 
HETATM   10  C   UNL     1      -4.080   1.599 -31.485  1.00  0.00     0.020 A 
HETATM   11  C   UNL     1      -3.207   2.288 -32.332  1.00  0.00     0.038 A 
HETATM   12  C   UNL     1      -3.172   3.684 -32.302  1.00  0.00     0.068 A 
HETATM   13  C   UNL     1      -3.970   4.394 -31.405  1.00  0.00     0.038 A 
HETATM   14  C   UNL     1      -4.868   3.713 -30.585  1.00  0.00     0.020 A 
BRANCH  12  15
HETATM   15  O   UNL     1      -2.339   4.416 -33.105  1.00  0.00    -0.356 OA
HETATM   16  C   UNL     1      -1.309   5.060 -32.357  1.00  0.00     0.210 C 
ENDBRANCH  12  15
ENDBRANCH   6   9
ENDBRANCH   3   5
ENDBRANCH   1   3
BRANCH   1  17
HETATM   17  C   UNL     1      -8.001   0.423 -32.575  1.00  0.00     0.050 A 
HETATM   18  C   UNL     1      -8.694   0.594 -33.786  1.00  0.00     0.058 A 
HETATM   19  C   UNL     1      -8.181   0.030 -34.971  1.00  0.00     0.019 A 
HETATM   20  C   UNL     1      -6.988  -0.692 -34.957  1.00  0.00     0.001 A 
HETATM   21  C   UNL     1      -6.278  -0.828 -33.769  1.00  0.00     0.002 A 
HETATM   22  C   UNL     1      -6.772  -0.261 -32.592  1.00  0.00     0.030 A 
BRANCH  18  23
HETATM   23  C   UNL     1      -9.861   1.507 -33.919  1.00  0.00     0.253 C 
HETATM   24  N   UNL     1     -11.048   1.036 -33.392  1.00  0.00    -0.357 N 
HETATM   25  H   UNL     1     -11.065   0.134 -32.931  1.00  0.00     0.162 HD
HETATM   26  O   UNL     1      -9.748   2.587 -34.487  1.00  0.00    -0.268 OA
BRANCH  24  27
HETATM   27  C   UNL     1     -12.283   1.772 -33.545  1.00  0.00     0.125 C 
BRANCH  27  28
HETATM   28  C   UNL     1     -13.249   1.112 -34.520  1.00  0.00     0.046 C 
BRANCH  28  29
HETATM   29  C   UNL     1     -14.195   0.136 -33.835  1.00  0.00     0.165 C 
BRANCH  29  30
HETATM   30  O   UNL     1     -13.477  -1.033 -33.457  1.00  0.00    -0.401 OA
HETATM   31  H   UNL     1     -13.690  -1.217 -32.527  1.00  0.00     0.209 HD
ENDBRANCH  29  30
ENDBRANCH  28  29
ENDBRANCH  27  28
ENDBRANCH  24  27
ENDBRANCH  18  23
ENDBRANCH   1  17
TORSDOF 10
ENDMDL
MODEL 6
REMARK VINA RESULT:      -7.1      2.183      6.053
REMARK  10 active torsions:
REMARK  status: ('A' for Active; 'I' for Inactive)
REMARK    1  A    between atoms: O_2  and  C_3 
REMARK    2  A    between atoms: C_6  and  C_7 
REMARK       I    between atoms: C_7  and  N_8 
REMARK    3  A    between atoms: N_8  and  C_9 
REMARK    4  A    between atoms: C_9  and  N_10 
REMARK    5  A    between atoms: N_10  and  C_11 
REMARK    6  A    between atoms: C_12  and  C_13 
REMARK       I    between atoms: C_13  and  N_14 
REMARK    7  A    between atoms: N_14  and  C_15 
REMARK    8  A    between atoms: C_15  and  C_16 
REMARK    9  A    between atoms: C_16  and  C_17 
REMARK   10  A    between atoms: C_17  and  O_18 
ROOT
HETATM    1  N   UNL     1      -7.822   1.836 -30.836  1.00  0.00    -0.332 N 
HETATM    2  H   UNL     1      -8.036   2.619 -30.230  1.00  0.00     0.168 HD
ENDROOT
BRANCH   1   3
HETATM    3  C   UNL     1      -6.491   1.469 -30.796  1.00  0.00     0.179 C 
HETATM    4  S   UNL     1      -5.723   0.557 -29.618  1.00  0.00    -0.040 SA
BRANCH   3   5
HETATM    5  N   UNL     1      -5.747   1.762 -31.928  1.00  0.00    -0.299 N 
HETATM    6  C   UNL     1      -4.700   1.013 -32.419  1.00  0.00     0.257 C 
HETATM    7  O   UNL     1      -3.530   1.351 -32.273  1.00  0.00    -0.267 OA
HETATM    8  H   UNL     1      -5.526   2.752 -31.907  1.00  0.00     0.171 HD
BRANCH   6   9
HETATM    9  C   UNL     1      -5.036  -0.231 -33.145  1.00  0.00     0.032 A 
HETATM   10  C   UNL     1      -6.184  -0.300 -33.940  1.00  0.00     0.020 A 
HETATM   11  C   UNL     1      -6.415  -1.435 -34.723  1.00  0.00     0.038 A 
HETATM   12  C   UNL     1      -5.504  -2.493 -34.695  1.00  0.00     0.068 A 
HETATM   13  C   UNL     1      -4.387  -2.444 -33.861  1.00  0.00     0.038 A 
HETATM   14  C   UNL     1      -4.133  -1.300 -33.106  1.00  0.00     0.020 A 
BRANCH  12  15
HETATM   15  O   UNL     1      -5.674  -3.631 -35.436  1.00  0.00    -0.356 OA
HETATM   16  C   UNL     1      -6.748  -4.431 -34.946  1.00  0.00     0.210 C 
ENDBRANCH  12  15
ENDBRANCH   6   9
ENDBRANCH   3   5
ENDBRANCH   1   3
BRANCH   1  17
HETATM   17  C   UNL     1      -8.727   1.696 -31.920  1.00  0.00     0.050 A 
HETATM   18  C   UNL     1      -9.065   2.702 -32.842  1.00  0.00     0.058 A 
HETATM   19  C   UNL     1     -10.004   2.430 -33.859  1.00  0.00     0.019 A 
HETATM   20  C   UNL     1     -10.595   1.172 -33.963  1.00  0.00     0.001 A 
HETATM   21  C   UNL     1     -10.231   0.163 -33.079  1.00  0.00     0.002 A 
HETATM   22  C   UNL     1      -9.293   0.419 -32.076  1.00  0.00     0.030 A 
BRANCH  18  23
HETATM   23  C   UNL     1      -8.340   3.998 -32.917  1.00  0.00     0.253 C 
HETATM   24  N   UNL     1      -7.207   4.002 -33.708  1.00  0.00    -0.357 N 
HETATM   25  H   UNL     1      -6.944   3.160 -34.206  1.00  0.00     0.162 HD
HETATM   26  O   UNL     1      -8.733   4.971 -32.284  1.00  0.00    -0.268 OA
BRANCH  24  27
HETATM   27  C   UNL     1      -6.348   5.163 -33.785  1.00  0.00     0.125 C 
BRANCH  27  28
HETATM   28  C   UNL     1      -5.001   4.860 -34.427  1.00  0.00     0.046 C 
BRANCH  28  29
HETATM   29  C   UNL     1      -3.893   4.670 -33.400  1.00  0.00     0.165 C 
BRANCH  29  30
HETATM   30  O   UNL     1      -4.471   4.426 -32.122  1.00  0.00    -0.401 OA
HETATM   31  H   UNL     1      -5.006   5.204 -31.893  1.00  0.00     0.209 HD
ENDBRANCH  29  30
ENDBRANCH  28  29
ENDBRANCH  27  28
ENDBRANCH  24  27
ENDBRANCH  18  23
ENDBRANCH   1  17
TORSDOF 10
ENDMDL
MODEL 7
REMARK VINA RESULT:      -7.1      2.664      4.871
REMARK  10 active torsions:
REMARK  status: ('A' for Active; 'I' for Inactive)
REMARK    1  A    between atoms: O_2  and  C_3 
REMARK    2  A    between atoms: C_6  and  C_7 
REMARK       I    between atoms: C_7  and  N_8 
REMARK    3  A    between atoms: N_8  and  C_9 
REMARK    4  A    between atoms: C_9  and  N_10 
REMARK    5  A    between atoms: N_10  and  C_11 
REMARK    6  A    between atoms: C_12  and  C_13 
REMARK       I    between atoms: C_13  and  N_14 
REMARK    7  A    between atoms: N_14  and  C_15 
REMARK    8  A    between atoms: C_15  and  C_16 
REMARK    9  A    between atoms: C_16  and  C_17 
REMARK   10  A    between atoms: C_17  and  O_18 
ROOT
HETATM    1  N   UNL     1      -7.728   1.919 -31.697  1.00  0.00    -0.332 N 
HETATM    2  H   UNL     1      -8.173   1.013 -31.611  1.00  0.00     0.168 HD
ENDROOT
BRANCH   1   3
HETATM    3  C   UNL     1      -8.561   2.880 -32.236  1.00  0.00     0.179 C 
HETATM    4  S   UNL     1      -9.760   3.745 -31.447  1.00  0.00    -0.040 SA
BRANCH   3   5
HETATM    5  N   UNL     1      -8.270   3.276 -33.532  1.00  0.00    -0.299 N 
HETATM    6  C   UNL     1      -7.901   4.545 -33.923  1.00  0.00     0.257 C 
HETATM    7  O   UNL     1      -8.679   5.307 -34.485  1.00  0.00    -0.267 OA
HETATM    8  H   UNL     1      -8.977   2.883 -34.143  1.00  0.00     0.171 HD
BRANCH   6   9
HETATM    9  C   UNL     1      -6.511   4.966 -33.642  1.00  0.00     0.032 A 
HETATM   10  C   UNL     1      -5.447   4.433 -34.377  1.00  0.00     0.020 A 
HETATM   11  C   UNL     1      -4.157   4.939 -34.191  1.00  0.00     0.038 A 
HETATM   12  C   UNL     1      -3.941   5.963 -33.265  1.00  0.00     0.068 A 
HETATM   13  C   UNL     1      -4.995   6.455 -32.496  1.00  0.00     0.038 A 
HETATM   14  C   UNL     1      -6.289   5.979 -32.704  1.00  0.00     0.020 A 
BRANCH  12  15
HETATM   15  O   UNL     1      -2.703   6.499 -33.036  1.00  0.00    -0.356 OA
HETATM   16  C   UNL     1      -1.814   6.273 -34.128  1.00  0.00     0.210 C 
ENDBRANCH  12  15
ENDBRANCH   6   9
ENDBRANCH   3   5
ENDBRANCH   1   3
BRANCH   1  17
HETATM   17  C   UNL     1      -6.314   1.850 -31.783  1.00  0.00     0.050 A 
HETATM   18  C   UNL     1      -5.583   0.996 -32.628  1.00  0.00     0.058 A 
HETATM   19  C   UNL     1      -4.174   1.015 -32.591  1.00  0.00     0.019 A 
HETATM   20  C   UNL     1      -3.497   1.878 -31.729  1.00  0.00     0.001 A 
HETATM   21  C   UNL     1      -4.215   2.753 -30.923  1.00  0.00     0.002 A 
HETATM   22  C   UNL     1      -5.612   2.751 -30.963  1.00  0.00     0.030 A 
BRANCH  18  23
HETATM   23  C   UNL     1      -6.223   0.194 -33.704  1.00  0.00     0.253 C 
HETATM   24  N   UNL     1      -6.043  -1.173 -33.614  1.00  0.00    -0.357 N 
HETATM   25  H   UNL     1      -5.525  -1.557 -32.833  1.00  0.00     0.162 HD
HETATM   26  O   UNL     1      -6.839   0.742 -34.610  1.00  0.00    -0.268 OA
BRANCH  24  27
HETATM   27  C   UNL     1      -6.520  -2.064 -34.649  1.00  0.00     0.125 C 
BRANCH  27  28
HETATM   28  C   UNL     1      -5.446  -3.025 -35.142  1.00  0.00     0.046 C 
BRANCH  28  29
HETATM   29  C   UNL     1      -5.700  -4.460 -34.703  1.00  0.00     0.165 C 
BRANCH  29  30
HETATM   30  O   UNL     1      -6.885  -4.943 -35.327  1.00  0.00    -0.401 OA
HETATM   31  H   UNL     1      -6.896  -5.909 -35.221  1.00  0.00     0.209 HD
ENDBRANCH  29  30
ENDBRANCH  28  29
ENDBRANCH  27  28
ENDBRANCH  24  27
ENDBRANCH  18  23
ENDBRANCH   1  17
TORSDOF 10
ENDMDL
MODEL 8
REMARK VINA RESULT:      -7.1      3.153      6.357
REMARK  10 active torsions:
REMARK  status: ('A' for Active; 'I' for Inactive)
REMARK    1  A    between atoms: O_2  and  C_3 
REMARK    2  A    between atoms: C_6  and  C_7 
REMARK       I    between atoms: C_7  and  N_8 
REMARK    3  A    between atoms: N_8  and  C_9 
REMARK    4  A    between atoms: C_9  and  N_10 
REMARK    5  A    between atoms: N_10  and  C_11 
REMARK    6  A    between atoms: C_12  and  C_13 
REMARK       I    between atoms: C_13  and  N_14 
REMARK    7  A    between atoms: N_14  and  C_15 
REMARK    8  A    between atoms: C_15  and  C_16 
REMARK    9  A    between atoms: C_16  and  C_17 
REMARK   10  A    between atoms: C_17  and  O_18 
ROOT
HETATM    1  N   UNL     1      -7.163   2.671 -29.537  1.00  0.00    -0.332 N 
HETATM    2  H   UNL     1      -7.232   2.281 -28.605  1.00  0.00     0.168 HD
ENDROOT
BRANCH   1   3
HETATM    3  C   UNL     1      -8.304   3.345 -29.926  1.00  0.00     0.179 C 
HETATM    4  S   UNL     1      -8.523   5.005 -30.017  1.00  0.00    -0.040 SA
BRANCH   3   5
HETATM    5  N   UNL     1      -9.326   2.562 -30.437  1.00  0.00    -0.299 N 
HETATM    6  C   UNL     1      -9.664   2.447 -31.768  1.00  0.00     0.257 C 
HETATM    7  O   UNL     1     -10.643   3.010 -32.245  1.00  0.00    -0.267 OA
HETATM    8  H   UNL     1     -10.143   2.695 -29.851  1.00  0.00     0.171 HD
BRANCH   6   9
HETATM    9  C   UNL     1      -8.796   1.605 -32.620  1.00  0.00     0.032 A 
HETATM   10  C   UNL     1      -8.813   0.212 -32.492  1.00  0.00     0.020 A 
HETATM   11  C   UNL     1      -8.088  -0.573 -33.394  1.00  0.00     0.038 A 
HETATM   12  C   UNL     1      -7.345   0.040 -34.405  1.00  0.00     0.068 A 
HETATM   13  C   UNL     1      -7.286   1.431 -34.497  1.00  0.00     0.038 A 
HETATM   14  C   UNL     1      -8.036   2.217 -33.624  1.00  0.00     0.020 A 
BRANCH  12  15
HETATM   15  O   UNL     1      -6.613  -0.672 -35.316  1.00  0.00    -0.356 OA
HETATM   16  C   UNL     1      -6.187  -1.929 -34.791  1.00  0.00     0.210 C 
ENDBRANCH  12  15
ENDBRANCH   6   9
ENDBRANCH   3   5
ENDBRANCH   1   3
BRANCH   1  17
HETATM   17  C   UNL     1      -6.231   1.996 -30.366  1.00  0.00     0.050 A 
HETATM   18  C   UNL     1      -5.364   2.603 -31.292  1.00  0.00     0.058 A 
HETATM   19  C   UNL     1      -4.504   1.804 -32.072  1.00  0.00     0.019 A 
HETATM   20  C   UNL     1      -4.500   0.417 -31.932  1.00  0.00     0.001 A 
HETATM   21  C   UNL     1      -5.325  -0.184 -30.989  1.00  0.00     0.002 A 
HETATM   22  C   UNL     1      -6.171   0.601 -30.201  1.00  0.00     0.030 A 
BRANCH  18  23
HETATM   23  C   UNL     1      -5.171   4.076 -31.361  1.00  0.00     0.253 C 
HETATM   24  N   UNL     1      -4.393   4.623 -30.358  1.00  0.00    -0.357 N 
HETATM   25  H   UNL     1      -3.981   4.015 -29.660  1.00  0.00     0.162 HD
HETATM   26  O   UNL     1      -5.703   4.735 -32.247  1.00  0.00    -0.268 OA
BRANCH  24  27
HETATM   27  C   UNL     1      -4.212   6.053 -30.243  1.00  0.00     0.125 C 
BRANCH  27  28
HETATM   28  C   UNL     1      -5.192   6.697 -29.272  1.00  0.00     0.046 C 
BRANCH  28  29
HETATM   29  C   UNL     1      -5.049   6.160 -27.855  1.00  0.00     0.165 C 
BRANCH  29  30
HETATM   30  O   UNL     1      -5.527   4.820 -27.807  1.00  0.00    -0.401 OA
HETATM   31  H   UNL     1      -5.785   4.636 -26.888  1.00  0.00     0.209 HD
ENDBRANCH  29  30
ENDBRANCH  28  29
ENDBRANCH  27  28
ENDBRANCH  24  27
ENDBRANCH  18  23
ENDBRANCH   1  17
TORSDOF 10
ENDMDL
MODEL 9
REMARK VINA RESULT:      -7.0      3.479      5.980
REMARK  10 active torsions:
REMARK  status: ('A' for Active; 'I' for Inactive)
REMARK    1  A    between atoms: O_2  and  C_3 
REMARK    2  A    between atoms: C_6  and  C_7 
REMARK       I    between atoms: C_7  and  N_8 
REMARK    3  A    between atoms: N_8  and  C_9 
REMARK    4  A    between atoms: C_9  and  N_10 
REMARK    5  A    between atoms: N_10  and  C_11 
REMARK    6  A    between atoms: C_12  and  C_13 
REMARK       I    between atoms: C_13  and  N_14 
REMARK    7  A    between atoms: N_14  and  C_15 
REMARK    8  A    between atoms: C_15  and  C_16 
REMARK    9  A    between atoms: C_16  and  C_17 
REMARK   10  A    between atoms: C_17  and  O_18 
ROOT
HETATM    1  N   UNL     1      -8.509   3.493 -31.435  1.00  0.00    -0.332 N 
HETATM    2  H   UNL     1      -9.096   4.318 -31.438  1.00  0.00     0.168 HD
ENDROOT
BRANCH   1   3
HETATM    3  C   UNL     1      -7.163   3.788 -31.358  1.00  0.00     0.179 C 
HETATM    4  S   UNL     1      -6.210   3.839 -29.980  1.00  0.00    -0.040 SA
BRANCH   3   5
HETATM    5  N   UNL     1      -6.498   3.907 -32.569  1.00  0.00    -0.299 N 
HETATM    6  C   UNL     1      -5.466   3.104 -33.004  1.00  0.00     0.257 C 
HETATM    7  O   UNL     1      -4.298   3.475 -32.990  1.00  0.00    -0.267 OA
HETATM    8  H   UNL     1      -6.299   4.890 -32.718  1.00  0.00     0.171 HD
BRANCH   6   9
HETATM    9  C   UNL     1      -5.818   1.755 -33.501  1.00  0.00     0.032 A 
HETATM   10  C   UNL     1      -5.412   0.614 -32.803  1.00  0.00     0.020 A 
HETATM   11  C   UNL     1      -5.864  -0.644 -33.212  1.00  0.00     0.038 A 
HETATM   12  C   UNL     1      -6.707  -0.750 -34.321  1.00  0.00     0.068 A 
HETATM   13  C   UNL     1      -7.068   0.385 -35.048  1.00  0.00     0.038 A 
HETATM   14  C   UNL     1      -6.649   1.644 -34.622  1.00  0.00     0.020 A 
BRANCH  12  15
HETATM   15  O   UNL     1      -7.183  -1.951 -34.772  1.00  0.00    -0.356 OA
HETATM   16  C   UNL     1      -6.190  -2.974 -34.712  1.00  0.00     0.210 C 
ENDBRANCH  12  15
ENDBRANCH   6   9
ENDBRANCH   3   5
ENDBRANCH   1   3
BRANCH   1  17
HETATM   17  C   UNL     1      -9.116   2.365 -32.045  1.00  0.00     0.050 A 
HETATM   18  C   UNL     1      -9.925   2.389 -33.195  1.00  0.00     0.058 A 
HETATM   19  C   UNL     1     -10.486   1.190 -33.680  1.00  0.00     0.019 A 
HETATM   20  C   UNL     1     -10.242  -0.022 -33.034  1.00  0.00     0.001 A 
HETATM   21  C   UNL     1      -9.409  -0.055 -31.922  1.00  0.00     0.002 A 
HETATM   22  C   UNL     1      -8.837   1.126 -31.443  1.00  0.00     0.030 A 
BRANCH  18  23
HETATM   23  C   UNL     1     -10.073   3.600 -34.046  1.00  0.00     0.253 C 
HETATM   24  N   UNL     1     -11.357   3.869 -34.481  1.00  0.00    -0.357 N 
HETATM   25  H   UNL     1     -12.117   3.266 -34.190  1.00  0.00     0.162 HD
HETATM   26  O   UNL     1      -9.096   4.278 -34.344  1.00  0.00    -0.268 OA
BRANCH  24  27
HETATM   27  C   UNL     1     -11.628   4.952 -35.400  1.00  0.00     0.125 C 
BRANCH  27  28
HETATM   28  C   UNL     1     -11.724   6.305 -34.707  1.00  0.00     0.046 C 
BRANCH  28  29
HETATM   29  C   UNL     1     -10.780   7.337 -35.307  1.00  0.00     0.165 C 
BRANCH  29  30
HETATM   30  O   UNL     1      -9.710   6.671 -35.969  1.00  0.00    -0.401 OA
HETATM   31  H   UNL     1     -10.035   5.794 -36.235  1.00  0.00     0.209 HD
ENDBRANCH  29  30
ENDBRANCH  28  29
ENDBRANCH  27  28
ENDBRANCH  24  27
ENDBRANCH  18  23
ENDBRANCH   1  17
TORSDOF 10
ENDMDL
MODEL 10
REMARK VINA RESULT:      -6.9      2.863      6.668
REMARK  10 active torsions:
REMARK  status: ('A' for Active; 'I' for Inactive)
REMARK    1  A    between atoms: O_2  and  C_3 
REMARK    2  A    between atoms: C_6  and  C_7 
REMARK       I    between atoms: C_7  and  N_8 
REMARK    3  A    between atoms: N_8  and  C_9 
REMARK    4  A    between atoms: C_9  and  N_10 
REMARK    5  A    between atoms: N_10  and  C_11 
REMARK    6  A    between atoms: C_12  and  C_13 
REMARK       I    between atoms: C_13  and  N_14 
REMARK    7  A    between atoms: N_14  and  C_15 
REMARK    8  A    between atoms: C_15  and  C_16 
REMARK    9  A    between atoms: C_16  and  C_17 
REMARK   10  A    between atoms: C_17  and  O_18 
ROOT
HETATM    1  N   UNL     1      -6.853   3.423 -32.745  1.00  0.00    -0.332 N 
HETATM    2  H   UNL     1      -7.127   3.162 -33.684  1.00  0.00     0.168 HD
ENDROOT
BRANCH   1   3
HETATM    3  C   UNL     1      -5.768   2.707 -32.280  1.00  0.00     0.179 C 
HETATM    4  S   UNL     1      -4.148   3.117 -32.411  1.00  0.00    -0.040 SA
BRANCH   3   5
HETATM    5  N   UNL     1      -6.062   1.607 -31.490  1.00  0.00    -0.299 N 
HETATM    6  C   UNL     1      -6.914   0.577 -31.827  1.00  0.00     0.257 C 
HETATM    7  O   UNL     1      -8.043   0.484 -31.358  1.00  0.00    -0.267 OA
HETATM    8  H   UNL     1      -6.224   1.937 -30.545  1.00  0.00     0.171 HD
BRANCH   6   9
HETATM    9  C   UNL     1      -6.415  -0.433 -32.786  1.00  0.00     0.032 A 
HETATM   10  C   UNL     1      -5.094  -0.886 -32.714  1.00  0.00     0.020 A 
HETATM   11  C   UNL     1      -4.678  -1.935 -33.540  1.00  0.00     0.038 A 
HETATM   12  C   UNL     1      -5.581  -2.511 -34.436  1.00  0.00     0.068 A 
HETATM   13  C   UNL     1      -6.883  -2.022 -34.543  1.00  0.00     0.038 A 
HETATM   14  C   UNL     1      -7.313  -1.001 -33.696  1.00  0.00     0.020 A 
BRANCH  12  15
HETATM   15  O   UNL     1      -5.235  -3.539 -35.271  1.00  0.00    -0.356 OA
HETATM   16  C   UNL     1      -6.297  -4.478 -35.428  1.00  0.00     0.210 C 
ENDBRANCH  12  15
ENDBRANCH   6   9
ENDBRANCH   3   5
ENDBRANCH   1   3
BRANCH   1  17
HETATM   17  C   UNL     1      -7.908   3.989 -31.984  1.00  0.00     0.050 A 
HETATM   18  C   UNL     1      -9.282   3.798 -32.216  1.00  0.00     0.058 A 
HETATM   19  C   UNL     1     -10.226   4.446 -31.393  1.00  0.00     0.019 A 
HETATM   20  C   UNL     1      -9.811   5.269 -30.347  1.00  0.00     0.001 A 
HETATM   21  C   UNL     1      -8.455   5.427 -30.088  1.00  0.00     0.002 A 
HETATM   22  C   UNL     1      -7.512   4.778 -30.890  1.00  0.00     0.030 A 
BRANCH  18  23
HETATM   23  C   UNL     1      -9.800   2.791 -33.180  1.00  0.00     0.253 C 
HETATM   24  N   UNL     1     -10.554   1.773 -32.629  1.00  0.00    -0.357 N 
HETATM   25  H   UNL     1     -10.737   1.771 -31.633  1.00  0.00     0.162 HD
HETATM   26  O   UNL     1      -9.534   2.874 -34.373  1.00  0.00    -0.268 OA
BRANCH  24  27
HETATM   27  C   UNL     1     -11.030   0.670 -33.435  1.00  0.00     0.125 C 
BRANCH  27  28
HETATM   28  C   UNL     1     -12.537   0.703 -33.652  1.00  0.00     0.046 C 
BRANCH  28  29
HETATM   29  C   UNL     1     -12.925   1.394 -34.952  1.00  0.00     0.165 C 
BRANCH  29  30
HETATM   30  O   UNL     1     -11.759   1.604 -35.741  1.00  0.00    -0.401 OA
HETATM   31  H   UNL     1     -10.992   1.358 -35.197  1.00  0.00     0.209 HD
ENDBRANCH  29  30
ENDBRANCH  28  29
ENDBRANCH  27  28
ENDBRANCH  24  27
ENDBRANCH  18  23
ENDBRANCH   1  17
TORSDOF 10
ENDMDL
