MODEL 1
REMARK VINA RESULT:      -8.3      0.000      0.000
REMARK  6 active torsions:
REMARK  status: ('A' for Active; 'I' for Inactive)
REMARK    1  A    between atoms: C_3  and  C_4 
REMARK    2  A    between atoms: C_9  and  C_10 
REMARK    3  A    between atoms: C_10  and  O_11 
REMARK    4  A    between atoms: C_10  and  C_12 
REMARK    5  A    between atoms: C_12  and  N_13 
REMARK    6  A    between atoms: C_17  and  C_18 
ROOT
HETATM    1  C   UNL     1      -6.601   0.964 -34.367  1.00  0.00     0.271 C 
ENDROOT
BRANCH   1   2
HETATM    2  C   UNL     1      -5.519   0.106 -33.656  1.00  0.00     0.177 C 
BRANCH   2   3
HETATM    3  C   UNL     1      -5.578  -1.357 -34.042  1.00  0.00    -0.027 A 
HETATM    4  C   UNL     1      -4.592  -2.274 -33.636  1.00  0.00     0.025 A 
HETATM    5  C   UNL     1      -4.674  -3.635 -33.981  1.00  0.00     0.048 A 
HETATM    6  C   UNL     1      -5.754  -4.073 -34.756  1.00  0.00     0.016 A 
HETATM    7  C   UNL     1      -6.735  -3.174 -35.171  1.00  0.00     0.001 A 
HETATM    8  C   UNL     1      -6.651  -1.827 -34.815  1.00  0.00     0.010 A 
BRANCH   5   9
HETATM    9  C   UNL     1      -3.594  -4.592 -33.527  1.00  0.00     0.417 C 
HETATM   10  F   UNL     1      -4.071  -5.765 -33.036  1.00  0.00    -0.166 F 
HETATM   11  F   UNL     1      -2.730  -4.909 -34.525  1.00  0.00    -0.166 F 
HETATM   12  F   UNL     1      -2.837  -4.045 -32.533  1.00  0.00    -0.166 F 
ENDBRANCH   5   9
ENDBRANCH   2   3
BRANCH   2  13
HETATM   13  O   UNL     1      -5.609   0.268 -32.242  1.00  0.00    -0.389 OA
HETATM   14  H   UNL     1      -6.542   0.480 -32.039  1.00  0.00     0.210 HD
ENDBRANCH   2  13
ENDBRANCH   1   2
BRANCH   1  15
HETATM   15  N   UNL     1      -7.790   1.363 -33.473  1.00  0.00    -0.068 N 
HETATM   16  H   UNL     1      -7.471   1.278 -32.498  1.00  0.00     0.280 HD
HETATM   17  C   UNL     1      -8.225   2.799 -33.688  1.00  0.00     0.235 C 
HETATM   18  C   UNL     1      -9.403   3.131 -32.779  1.00  0.00     0.037 C 
HETATM   19  C   UNL     1     -10.594   2.188 -32.998  1.00  0.00     0.025 C 
HETATM   20  C   UNL     1     -10.105   0.751 -32.771  1.00  0.00     0.037 C 
HETATM   21  C   UNL     1      -8.930   0.390 -33.670  1.00  0.00     0.235 C 
BRANCH  19  22
HETATM   22  C   UNL     1     -11.276   2.399 -34.326  1.00  0.00    -0.018 A 
HETATM   23  C   UNL     1     -12.242   1.584 -34.969  1.00  0.00     0.147 A 
HETATM   24  N   UNL     1     -12.612   2.057 -36.158  1.00  0.00    -0.187 NA
HETATM   25  N   UNL     1     -11.978   3.233 -36.250  1.00  0.00    -0.289 N 
HETATM   26  H   UNL     1     -12.155   3.817 -37.062  1.00  0.00     0.188 HD
HETATM   27  C   UNL     1     -11.151   3.473 -35.188  1.00  0.00     0.118 A 
ENDBRANCH  19  22
ENDBRANCH   1  15
TORSDOF 6
ENDMDL
MODEL 2
REMARK VINA RESULT:      -8.3      2.473      3.435
REMARK  6 active torsions:
REMARK  status: ('A' for Active; 'I' for Inactive)
REMARK    1  A    between atoms: C_3  and  C_4 
REMARK    2  A    between atoms: C_9  and  C_10 
REMARK    3  A    between atoms: C_10  and  O_11 
REMARK    4  A    between atoms: C_10  and  C_12 
REMARK    5  A    between atoms: C_12  and  N_13 
REMARK    6  A    between atoms: C_17  and  C_18 
ROOT
HETATM    1  C   UNL     1      -8.906   0.833 -33.979  1.00  0.00     0.271 C 
ENDROOT
BRANCH   1   2
HETATM    2  C   UNL     1      -7.524   0.923 -34.682  1.00  0.00     0.177 C 
BRANCH   2   3
HETATM    3  C   UNL     1      -6.634  -0.267 -34.391  1.00  0.00    -0.027 A 
HETATM    4  C   UNL     1      -7.040  -1.585 -34.666  1.00  0.00     0.025 A 
HETATM    5  C   UNL     1      -6.192  -2.679 -34.414  1.00  0.00     0.048 A 
HETATM    6  C   UNL     1      -4.927  -2.442 -33.865  1.00  0.00     0.016 A 
HETATM    7  C   UNL     1      -4.514  -1.141 -33.581  1.00  0.00     0.001 A 
HETATM    8  C   UNL     1      -5.358  -0.061 -33.844  1.00  0.00     0.010 A 
BRANCH   5   9
HETATM    9  C   UNL     1      -6.664  -4.082 -34.722  1.00  0.00     0.417 C 
HETATM   10  F   UNL     1      -7.009  -4.273 -36.022  1.00  0.00    -0.166 F 
HETATM   11  F   UNL     1      -5.727  -5.020 -34.426  1.00  0.00    -0.166 F 
HETATM   12  F   UNL     1      -7.765  -4.405 -33.986  1.00  0.00    -0.166 F 
ENDBRANCH   5   9
ENDBRANCH   2   3
BRANCH   2  13
HETATM   13  O   UNL     1      -6.873   2.145 -34.342  1.00  0.00    -0.389 OA
HETATM   14  H   UNL     1      -6.879   2.704 -35.145  1.00  0.00     0.210 HD
ENDBRANCH   2  13
ENDBRANCH   1   2
BRANCH   1  15
HETATM   15  N   UNL     1     -10.024   1.643 -34.663  1.00  0.00    -0.068 N 
HETATM   16  H   UNL     1      -9.743   1.768 -35.645  1.00  0.00     0.280 HD
HETATM   17  C   UNL     1     -11.354   0.917 -34.657  1.00  0.00     0.235 C 
HETATM   18  C   UNL     1     -12.418   1.767 -35.343  1.00  0.00     0.037 C 
HETATM   19  C   UNL     1     -12.575   3.147 -34.689  1.00  0.00     0.025 C 
HETATM   20  C   UNL     1     -11.205   3.840 -34.717  1.00  0.00     0.037 C 
HETATM   21  C   UNL     1     -10.124   3.014 -34.034  1.00  0.00     0.235 C 
BRANCH  19  22
HETATM   22  C   UNL     1     -13.198   3.081 -33.318  1.00  0.00    -0.018 A 
HETATM   23  C   UNL     1     -13.067   3.990 -32.237  1.00  0.00     0.147 A 
HETATM   24  N   UNL     1     -13.736   3.605 -31.152  1.00  0.00    -0.187 NA
HETATM   25  N   UNL     1     -14.394   2.509 -31.549  1.00  0.00    -0.289 N 
HETATM   26  H   UNL     1     -15.031   2.062 -30.895  1.00  0.00     0.188 HD
HETATM   27  C   UNL     1     -14.090   2.144 -32.830  1.00  0.00     0.118 A 
ENDBRANCH  19  22
ENDBRANCH   1  15
TORSDOF 6
ENDMDL
MODEL 3
REMARK VINA RESULT:      -8.3      3.618      5.260
REMARK  6 active torsions:
REMARK  status: ('A' for Active; 'I' for Inactive)
REMARK    1  A    between atoms: C_3  and  C_4 
REMARK    2  A    between atoms: C_9  and  C_10 
REMARK    3  A    between atoms: C_10  and  O_11 
REMARK    4  A    between atoms: C_10  and  C_12 
REMARK    5  A    between atoms: C_12  and  N_13 
REMARK    6  A    between atoms: C_17  and  C_18 
ROOT
HETATM    1  C   UNL     1      -5.661   1.256 -31.929  1.00  0.00     0.271 C 
ENDROOT
BRANCH   1   2
HETATM    2  C   UNL     1      -4.503   0.627 -32.750  1.00  0.00     0.177 C 
BRANCH   2   3
HETATM    3  C   UNL     1      -4.896  -0.669 -33.429  1.00  0.00    -0.027 A 
HETATM    4  C   UNL     1      -4.169  -1.858 -33.241  1.00  0.00     0.025 A 
HETATM    5  C   UNL     1      -4.562  -3.059 -33.859  1.00  0.00     0.048 A 
HETATM    6  C   UNL     1      -5.691  -3.057 -34.687  1.00  0.00     0.016 A 
HETATM    7  C   UNL     1      -6.416  -1.884 -34.887  1.00  0.00     0.001 A 
HETATM    8  C   UNL     1      -6.025  -0.699 -34.262  1.00  0.00     0.010 A 
BRANCH   5   9
HETATM    9  C   UNL     1      -3.756  -4.319 -33.633  1.00  0.00     0.417 C 
HETATM   10  F   UNL     1      -2.902  -4.613 -34.648  1.00  0.00    -0.166 F 
HETATM   11  F   UNL     1      -3.010  -4.261 -32.500  1.00  0.00    -0.166 F 
HETATM   12  F   UNL     1      -4.568  -5.406 -33.494  1.00  0.00    -0.166 F 
ENDBRANCH   5   9
ENDBRANCH   2   3
BRANCH   2  13
HETATM   13  O   UNL     1      -3.353   0.446 -31.926  1.00  0.00    -0.389 OA
HETATM   14  H   UNL     1      -3.545  -0.305 -31.329  1.00  0.00     0.210 HD
ENDBRANCH   2  13
ENDBRANCH   1   2
BRANCH   1  15
HETATM   15  N   UNL     1      -5.887   2.757 -32.190  1.00  0.00    -0.068 N 
HETATM   16  H   UNL     1      -6.841   2.974 -31.871  1.00  0.00     0.280 HD
HETATM   17  C   UNL     1      -4.932   3.634 -31.405  1.00  0.00     0.235 C 
HETATM   18  C   UNL     1      -5.203   5.104 -31.706  1.00  0.00     0.037 C 
HETATM   19  C   UNL     1      -5.093   5.424 -33.204  1.00  0.00     0.025 C 
HETATM   20  C   UNL     1      -6.074   4.512 -33.954  1.00  0.00     0.037 C 
HETATM   21  C   UNL     1      -5.823   3.036 -33.674  1.00  0.00     0.235 C 
BRANCH  19  22
HETATM   22  C   UNL     1      -3.678   5.352 -33.719  1.00  0.00    -0.018 A 
HETATM   23  C   UNL     1      -3.222   5.273 -35.060  1.00  0.00     0.147 A 
HETATM   24  N   UNL     1      -1.896   5.192 -35.153  1.00  0.00    -0.187 NA
HETATM   25  N   UNL     1      -1.473   5.330 -33.891  1.00  0.00    -0.289 N 
HETATM   26  H   UNL     1      -0.473   5.360 -33.714  1.00  0.00     0.188 HD
HETATM   27  C   UNL     1      -2.501   5.408 -32.993  1.00  0.00     0.118 A 
ENDBRANCH  19  22
ENDBRANCH   1  15
TORSDOF 6
ENDMDL
MODEL 4
REMARK VINA RESULT:      -8.2      1.642      2.172
REMARK  6 active torsions:
REMARK  status: ('A' for Active; 'I' for Inactive)
REMARK    1  A    between atoms: C_3  and  C_4 
REMARK    2  A    between atoms: C_9  and  C_10 
REMARK    3  A    between atoms: C_10  and  O_11 
REMARK    4  A    between atoms: C_10  and  C_12 
REMARK    5  A    between atoms: C_12  and  N_13 
REMARK    6  A    between atoms: C_17  and  C_18 
ROOT
HETATM    1  C   UNL     1      -6.729   1.797 -33.640  1.00  0.00     0.271 C 
ENDROOT
BRANCH   1   2
HETATM    2  C   UNL     1      -7.175   0.516 -34.396  1.00  0.00     0.177 C 
BRANCH   2   3
HETATM    3  C   UNL     1      -6.216  -0.642 -34.214  1.00  0.00    -0.027 A 
HETATM    4  C   UNL     1      -6.542  -1.948 -34.620  1.00  0.00     0.025 A 
HETATM    5  C   UNL     1      -5.630  -3.009 -34.469  1.00  0.00     0.048 A 
HETATM    6  C   UNL     1      -4.383  -2.752 -33.888  1.00  0.00     0.016 A 
HETATM    7  C   UNL     1      -4.049  -1.463 -33.475  1.00  0.00     0.001 A 
HETATM    8  C   UNL     1      -4.956  -0.415 -33.639  1.00  0.00     0.010 A 
BRANCH   5   9
HETATM    9  C   UNL     1      -6.016  -4.401 -34.916  1.00  0.00     0.417 C 
HETATM   10  F   UNL     1      -7.207  -4.827 -34.422  1.00  0.00    -0.166 F 
HETATM   11  F   UNL     1      -6.093  -4.508 -36.268  1.00  0.00    -0.166 F 
HETATM   12  F   UNL     1      -5.090  -5.321 -34.519  1.00  0.00    -0.166 F 
ENDBRANCH   5   9
ENDBRANCH   2   3
BRANCH   2  13
HETATM   13  O   UNL     1      -7.378   0.802 -35.778  1.00  0.00    -0.389 OA
HETATM   14  H   UNL     1      -8.322   1.038 -35.884  1.00  0.00     0.210 HD
ENDBRANCH   2  13
ENDBRANCH   1   2
BRANCH   1  15
HETATM   15  N   UNL     1      -7.887   2.650 -33.089  1.00  0.00    -0.068 N 
HETATM   16  H   UNL     1      -7.553   3.075 -32.214  1.00  0.00     0.280 HD
HETATM   17  C   UNL     1      -8.276   3.777 -34.025  1.00  0.00     0.235 C 
HETATM   18  C   UNL     1      -9.425   4.582 -33.428  1.00  0.00     0.037 C 
HETATM   19  C   UNL     1     -10.652   3.710 -33.123  1.00  0.00     0.025 C 
HETATM   20  C   UNL     1     -10.208   2.586 -32.177  1.00  0.00     0.037 C 
HETATM   21  C   UNL     1      -9.063   1.763 -32.751  1.00  0.00     0.235 C 
BRANCH  19  22
HETATM   22  C   UNL     1     -11.350   3.222 -34.367  1.00  0.00    -0.018 A 
HETATM   23  C   UNL     1     -12.167   2.075 -34.536  1.00  0.00     0.147 A 
HETATM   24  N   UNL     1     -12.601   1.926 -35.786  1.00  0.00    -0.187 NA
HETATM   25  N   UNL     1     -12.166   3.026 -36.413  1.00  0.00    -0.289 N 
HETATM   26  H   UNL     1     -12.430   3.168 -37.384  1.00  0.00     0.188 HD
HETATM   27  C   UNL     1     -11.396   3.822 -35.612  1.00  0.00     0.118 A 
ENDBRANCH  19  22
ENDBRANCH   1  15
TORSDOF 6
ENDMDL
MODEL 5
REMARK VINA RESULT:      -7.9      5.115      7.281
REMARK  6 active torsions:
REMARK  status: ('A' for Active; 'I' for Inactive)
REMARK    1  A    between atoms: C_3  and  C_4 
REMARK    2  A    between atoms: C_9  and  C_10 
REMARK    3  A    between atoms: C_10  and  O_11 
REMARK    4  A    between atoms: C_10  and  C_12 
REMARK    5  A    between atoms: C_12  and  N_13 
REMARK    6  A    between atoms: C_17  and  C_18 
ROOT
HETATM    1  C   UNL     1      -5.165   3.191 -32.265  1.00  0.00     0.271 C 
ENDROOT
BRANCH   1   2
HETATM    2  C   UNL     1      -4.649   1.735 -32.428  1.00  0.00     0.177 C 
BRANCH   2   3
HETATM    3  C   UNL     1      -5.504   0.906 -33.363  1.00  0.00    -0.027 A 
HETATM    4  C   UNL     1      -5.276  -0.468 -33.558  1.00  0.00     0.025 A 
HETATM    5  C   UNL     1      -6.096  -1.230 -34.410  1.00  0.00     0.048 A 
HETATM    6  C   UNL     1      -7.147  -0.597 -35.084  1.00  0.00     0.016 A 
HETATM    7  C   UNL     1      -7.380   0.765 -34.904  1.00  0.00     0.001 A 
HETATM    8  C   UNL     1      -6.568   1.512 -34.049  1.00  0.00     0.010 A 
BRANCH   5   9
HETATM    9  C   UNL     1      -5.821  -2.706 -34.596  1.00  0.00     0.417 C 
HETATM   10  F   UNL     1      -6.905  -3.497 -34.389  1.00  0.00    -0.166 F 
HETATM   11  F   UNL     1      -5.359  -2.993 -35.840  1.00  0.00    -0.166 F 
HETATM   12  F   UNL     1      -4.863  -3.141 -33.729  1.00  0.00    -0.166 F 
ENDBRANCH   5   9
ENDBRANCH   2   3
BRANCH   2  13
HETATM   13  O   UNL     1      -4.526   1.108 -31.153  1.00  0.00    -0.389 OA
HETATM   14  H   UNL     1      -3.948   0.328 -31.274  1.00  0.00     0.210 HD
ENDBRANCH   2  13
ENDBRANCH   1   2
BRANCH   1  15
HETATM   15  N   UNL     1      -4.214   4.271 -32.816  1.00  0.00    -0.068 N 
HETATM   16  H   UNL     1      -4.531   4.487 -33.770  1.00  0.00     0.280 HD
HETATM   17  C   UNL     1      -4.268   5.556 -32.014  1.00  0.00     0.235 C 
HETATM   18  C   UNL     1      -3.307   6.582 -32.605  1.00  0.00     0.037 C 
HETATM   19  C   UNL     1      -1.863   6.064 -32.663  1.00  0.00     0.025 C 
HETATM   20  C   UNL     1      -1.861   4.765 -33.481  1.00  0.00     0.037 C 
HETATM   21  C   UNL     1      -2.810   3.720 -32.910  1.00  0.00     0.235 C 
BRANCH  19  22
HETATM   22  C   UNL     1      -1.230   5.930 -31.302  1.00  0.00    -0.018 A 
HETATM   23  C   UNL     1      -0.074   5.199 -30.926  1.00  0.00     0.147 A 
HETATM   24  N   UNL     1       0.187   5.275 -29.623  1.00  0.00    -0.187 NA
HETATM   25  N   UNL     1      -0.723   6.139 -29.159  1.00  0.00    -0.289 N 
HETATM   26  H   UNL     1      -0.685   6.406 -28.180  1.00  0.00     0.188 HD
HETATM   27  C   UNL     1      -1.607   6.544 -30.121  1.00  0.00     0.118 A 
ENDBRANCH  19  22
ENDBRANCH   1  15
TORSDOF 6
ENDMDL
MODEL 6
REMARK VINA RESULT:      -7.9      4.393      6.266
REMARK  6 active torsions:
REMARK  status: ('A' for Active; 'I' for Inactive)
REMARK    1  A    between atoms: C_3  and  C_4 
REMARK    2  A    between atoms: C_9  and  C_10 
REMARK    3  A    between atoms: C_10  and  O_11 
REMARK    4  A    between atoms: C_10  and  C_12 
REMARK    5  A    between atoms: C_12  and  N_13 
REMARK    6  A    between atoms: C_17  and  C_18 
ROOT
HETATM    1  C   UNL     1      -4.634   2.241 -30.895  1.00  0.00     0.271 C 
ENDROOT
BRANCH   1   2
HETATM    2  C   UNL     1      -5.757   1.345 -30.307  1.00  0.00     0.177 C 
BRANCH   2   3
HETATM    3  C   UNL     1      -6.648   0.738 -31.371  1.00  0.00    -0.027 A 
HETATM    4  C   UNL     1      -6.183  -0.255 -32.251  1.00  0.00     0.025 A 
HETATM    5  C   UNL     1      -7.030  -0.828 -33.218  1.00  0.00     0.048 A 
HETATM    6  C   UNL     1      -8.355  -0.384 -33.306  1.00  0.00     0.016 A 
HETATM    7  C   UNL     1      -8.826   0.604 -32.444  1.00  0.00     0.001 A 
HETATM    8  C   UNL     1      -7.981   1.159 -31.481  1.00  0.00     0.010 A 
BRANCH   5   9
HETATM    9  C   UNL     1      -6.495  -1.894 -34.149  1.00  0.00     0.417 C 
HETATM   10  F   UNL     1      -7.272  -3.006 -34.214  1.00  0.00    -0.166 F 
HETATM   11  F   UNL     1      -6.351  -1.444 -35.422  1.00  0.00    -0.166 F 
HETATM   12  F   UNL     1      -5.260  -2.316 -33.756  1.00  0.00    -0.166 F 
ENDBRANCH   5   9
ENDBRANCH   2   3
BRANCH   2  13
HETATM   13  O   UNL     1      -6.524   2.075 -29.351  1.00  0.00    -0.389 OA
HETATM   14  H   UNL     1      -6.701   1.469 -28.604  1.00  0.00     0.210 HD
ENDBRANCH   2  13
ENDBRANCH   1   2
BRANCH   1  15
HETATM   15  N   UNL     1      -5.139   3.476 -31.665  1.00  0.00    -0.068 N 
HETATM   16  H   UNL     1      -6.144   3.561 -31.464  1.00  0.00     0.280 HD
HETATM   17  C   UNL     1      -4.471   4.759 -31.208  1.00  0.00     0.235 C 
HETATM   18  C   UNL     1      -5.009   5.941 -32.006  1.00  0.00     0.037 C 
HETATM   19  C   UNL     1      -4.816   5.763 -33.519  1.00  0.00     0.025 C 
HETATM   20  C   UNL     1      -5.506   4.454 -33.930  1.00  0.00     0.037 C 
HETATM   21  C   UNL     1      -4.984   3.254 -33.152  1.00  0.00     0.235 C 
BRANCH  19  22
HETATM   22  C   UNL     1      -3.372   5.852 -33.942  1.00  0.00    -0.018 A 
HETATM   23  C   UNL     1      -2.383   6.785 -33.539  1.00  0.00     0.147 A 
HETATM   24  N   UNL     1      -1.210   6.589 -34.138  1.00  0.00    -0.187 NA
HETATM   25  N   UNL     1      -1.392   5.469 -34.847  1.00  0.00    -0.289 N 
HETATM   26  H   UNL     1      -0.600   5.082 -35.354  1.00  0.00     0.188 HD
HETATM   27  C   UNL     1      -2.674   5.001 -34.779  1.00  0.00     0.118 A 
ENDBRANCH  19  22
ENDBRANCH   1  15
TORSDOF 6
ENDMDL
MODEL 7
REMARK VINA RESULT:      -7.9      5.798      7.721
REMARK  6 active torsions:
REMARK  status: ('A' for Active; 'I' for Inactive)
REMARK    1  A    between atoms: C_3  and  C_4 
REMARK    2  A    between atoms: C_9  and  C_10 
REMARK    3  A    between atoms: C_10  and  O_11 
REMARK    4  A    between atoms: C_10  and  C_12 
REMARK    5  A    between atoms: C_12  and  N_13 
REMARK    6  A    between atoms: C_17  and  C_18 
ROOT
HETATM    1  C   UNL     1      -3.737   2.808 -31.371  1.00  0.00     0.271 C 
ENDROOT
BRANCH   1   2
HETATM    2  C   UNL     1      -3.829   3.535 -32.739  1.00  0.00     0.177 C 
BRANCH   2   3
HETATM    3  C   UNL     1      -2.804   4.640 -32.892  1.00  0.00    -0.027 A 
HETATM    4  C   UNL     1      -1.744   4.803 -31.982  1.00  0.00     0.025 A 
HETATM    5  C   UNL     1      -0.785   5.817 -32.152  1.00  0.00     0.048 A 
HETATM    6  C   UNL     1      -0.904   6.686 -33.243  1.00  0.00     0.016 A 
HETATM    7  C   UNL     1      -1.953   6.540 -34.150  1.00  0.00     0.001 A 
HETATM    8  C   UNL     1      -2.894   5.523 -33.979  1.00  0.00     0.010 A 
BRANCH   5   9
HETATM    9  C   UNL     1       0.340   5.963 -31.152  1.00  0.00     0.417 C 
HETATM   10  F   UNL     1       1.181   4.897 -31.113  1.00  0.00    -0.166 F 
HETATM   11  F   UNL     1       1.108   7.057 -31.392  1.00  0.00    -0.166 F 
HETATM   12  F   UNL     1      -0.142   6.112 -29.885  1.00  0.00    -0.166 F 
ENDBRANCH   5   9
ENDBRANCH   2   3
BRANCH   2  13
HETATM   13  O   UNL     1      -5.150   4.029 -32.950  1.00  0.00    -0.389 OA
HETATM   14  H   UNL     1      -5.424   3.738 -33.843  1.00  0.00     0.210 HD
ENDBRANCH   2  13
ENDBRANCH   1   2
BRANCH   1  15
HETATM   15  N   UNL     1      -4.274   1.365 -31.376  1.00  0.00    -0.068 N 
HETATM   16  H   UNL     1      -3.744   0.847 -30.663  1.00  0.00     0.280 HD
HETATM   17  C   UNL     1      -5.741   1.289 -31.001  1.00  0.00     0.235 C 
HETATM   18  C   UNL     1      -6.214  -0.160 -31.026  1.00  0.00     0.037 C 
HETATM   19  C   UNL     1      -5.991  -0.824 -32.393  1.00  0.00     0.025 C 
HETATM   20  C   UNL     1      -4.497  -0.720 -32.729  1.00  0.00     0.037 C 
HETATM   21  C   UNL     1      -3.998   0.719 -32.715  1.00  0.00     0.235 C 
BRANCH  19  22
HETATM   22  C   UNL     1      -6.898  -0.278 -33.467  1.00  0.00    -0.018 A 
HETATM   23  C   UNL     1      -8.143   0.388 -33.326  1.00  0.00     0.147 A 
HETATM   24  N   UNL     1      -8.694   0.709 -34.495  1.00  0.00    -0.187 NA
HETATM   25  N   UNL     1      -7.769   0.359 -35.397  1.00  0.00    -0.289 N 
HETATM   26  H   UNL     1      -7.943   0.566 -36.376  1.00  0.00     0.188 HD
HETATM   27  C   UNL     1      -6.686  -0.255 -34.833  1.00  0.00     0.118 A 
ENDBRANCH  19  22
ENDBRANCH   1  15
TORSDOF 6
ENDMDL
MODEL 8
REMARK VINA RESULT:      -7.9      4.007      5.830
REMARK  6 active torsions:
REMARK  status: ('A' for Active; 'I' for Inactive)
REMARK    1  A    between atoms: C_3  and  C_4 
REMARK    2  A    between atoms: C_9  and  C_10 
REMARK    3  A    between atoms: C_10  and  O_11 
REMARK    4  A    between atoms: C_10  and  C_12 
REMARK    5  A    between atoms: C_12  and  N_13 
REMARK    6  A    between atoms: C_17  and  C_18 
ROOT
HETATM    1  C   UNL     1      -6.899   2.252 -31.435  1.00  0.00     0.271 C 
ENDROOT
BRANCH   1   2
HETATM    2  C   UNL     1      -5.759   1.517 -30.679  1.00  0.00     0.177 C 
BRANCH   2   3
HETATM    3  C   UNL     1      -5.185   0.354 -31.460  1.00  0.00    -0.027 A 
HETATM    4  C   UNL     1      -5.864  -0.217 -32.551  1.00  0.00     0.025 A 
HETATM    5  C   UNL     1      -5.305  -1.280 -33.284  1.00  0.00     0.048 A 
HETATM    6  C   UNL     1      -4.056  -1.782 -32.903  1.00  0.00     0.016 A 
HETATM    7  C   UNL     1      -3.374  -1.230 -31.820  1.00  0.00     0.001 A 
HETATM    8  C   UNL     1      -3.932  -0.168 -31.105  1.00  0.00     0.010 A 
BRANCH   5   9
HETATM    9  C   UNL     1      -6.066  -1.870 -34.451  1.00  0.00     0.417 C 
HETATM   10  F   UNL     1      -7.129  -2.631 -34.085  1.00  0.00    -0.166 F 
HETATM   11  F   UNL     1      -6.539  -0.917 -35.295  1.00  0.00    -0.166 F 
HETATM   12  F   UNL     1      -5.264  -2.676 -35.205  1.00  0.00    -0.166 F 
ENDBRANCH   5   9
ENDBRANCH   2   3
BRANCH   2  13
HETATM   13  O   UNL     1      -6.208   1.098 -29.392  1.00  0.00    -0.389 OA
HETATM   14  H   UNL     1      -5.416   1.030 -28.822  1.00  0.00     0.210 HD
ENDBRANCH   2  13
ENDBRANCH   1   2
BRANCH   1  15
HETATM   15  N   UNL     1      -6.650   3.755 -31.661  1.00  0.00    -0.068 N 
HETATM   16  H   UNL     1      -7.452   4.254 -31.254  1.00  0.00     0.280 HD
HETATM   17  C   UNL     1      -5.400   4.249 -30.959  1.00  0.00     0.235 C 
HETATM   18  C   UNL     1      -5.207   5.739 -31.221  1.00  0.00     0.037 C 
HETATM   19  C   UNL     1      -5.126   6.063 -32.720  1.00  0.00     0.025 C 
HETATM   20  C   UNL     1      -6.408   5.542 -33.385  1.00  0.00     0.037 C 
HETATM   21  C   UNL     1      -6.624   4.055 -33.142  1.00  0.00     0.235 C 
BRANCH  19  22
HETATM   22  C   UNL     1      -3.858   5.561 -33.363  1.00  0.00    -0.018 A 
HETATM   23  C   UNL     1      -3.564   5.398 -34.741  1.00  0.00     0.147 A 
HETATM   24  N   UNL     1      -2.348   4.899 -34.956  1.00  0.00    -0.187 NA
HETATM   25  N   UNL     1      -1.802   4.837 -33.736  1.00  0.00    -0.289 N 
HETATM   26  H   UNL     1      -0.836   4.536 -33.651  1.00  0.00     0.188 HD
HETATM   27  C   UNL     1      -2.673   5.203 -32.747  1.00  0.00     0.118 A 
ENDBRANCH  19  22
ENDBRANCH   1  15
TORSDOF 6
ENDMDL
MODEL 9
REMARK VINA RESULT:      -7.8      4.935      6.769
REMARK  6 active torsions:
REMARK  status: ('A' for Active; 'I' for Inactive)
REMARK    1  A    between atoms: C_3  and  C_4 
REMARK    2  A    between atoms: C_9  and  C_10 
REMARK    3  A    between atoms: C_10  and  O_11 
REMARK    4  A    between atoms: C_10  and  C_12 
REMARK    5  A    between atoms: C_12  and  N_13 
REMARK    6  A    between atoms: C_17  and  C_18 
ROOT
HETATM    1  C   UNL     1      -5.592   3.075 -30.915  1.00  0.00     0.271 C 
ENDROOT
BRANCH   1   2
HETATM    2  C   UNL     1      -5.270   1.690 -30.291  1.00  0.00     0.177 C 
BRANCH   2   3
HETATM    3  C   UNL     1      -5.075   0.605 -31.330  1.00  0.00    -0.027 A 
HETATM    4  C   UNL     1      -6.126   0.170 -32.157  1.00  0.00     0.025 A 
HETATM    5  C   UNL     1      -5.923  -0.820 -33.135  1.00  0.00     0.048 A 
HETATM    6  C   UNL     1      -4.651  -1.388 -33.270  1.00  0.00     0.016 A 
HETATM    7  C   UNL     1      -3.602  -0.971 -32.453  1.00  0.00     0.001 A 
HETATM    8  C   UNL     1      -3.810   0.020 -31.492  1.00  0.00     0.010 A 
BRANCH   5   9
HETATM    9  C   UNL     1      -7.078  -1.264 -34.006  1.00  0.00     0.417 C 
HETATM   10  F   UNL     1      -7.298  -2.604 -33.984  1.00  0.00    -0.166 F 
HETATM   11  F   UNL     1      -8.248  -0.670 -33.657  1.00  0.00    -0.166 F 
HETATM   12  F   UNL     1      -6.864  -0.936 -35.312  1.00  0.00    -0.166 F 
ENDBRANCH   5   9
ENDBRANCH   2   3
BRANCH   2  13
HETATM   13  O   UNL     1      -6.277   1.325 -29.350  1.00  0.00    -0.389 OA
HETATM   14  H   UNL     1      -5.821   1.136 -28.504  1.00  0.00     0.210 HD
ENDBRANCH   2  13
ENDBRANCH   1   2
BRANCH   1  15
HETATM   15  N   UNL     1      -4.782   3.409 -32.182  1.00  0.00    -0.068 N 
HETATM   16  H   UNL     1      -4.843   2.589 -32.799  1.00  0.00     0.280 HD
HETATM   17  C   UNL     1      -5.348   4.594 -32.939  1.00  0.00     0.235 C 
HETATM   18  C   UNL     1      -4.505   4.876 -34.177  1.00  0.00     0.037 C 
HETATM   19  C   UNL     1      -3.031   5.133 -33.834  1.00  0.00     0.025 C 
HETATM   20  C   UNL     1      -2.505   3.911 -33.069  1.00  0.00     0.037 C 
HETATM   21  C   UNL     1      -3.327   3.609 -31.824  1.00  0.00     0.235 C 
BRANCH  19  22
HETATM   22  C   UNL     1      -2.813   6.442 -33.119  1.00  0.00    -0.018 A 
HETATM   23  C   UNL     1      -1.834   7.439 -33.365  1.00  0.00     0.147 A 
HETATM   24  N   UNL     1      -1.910   8.462 -32.516  1.00  0.00    -0.187 NA
HETATM   25  N   UNL     1      -3.000   8.197 -31.786  1.00  0.00    -0.289 N 
HETATM   26  H   UNL     1      -3.300   8.880 -31.096  1.00  0.00     0.188 HD
HETATM   27  C   UNL     1      -3.564   6.990 -32.095  1.00  0.00     0.118 A 
ENDBRANCH  19  22
ENDBRANCH   1  15
TORSDOF 6
ENDMDL
MODEL 10
REMARK VINA RESULT:      -7.5      3.885      6.035
REMARK  6 active torsions:
REMARK  status: ('A' for Active; 'I' for Inactive)
REMARK    1  A    between atoms: C_3  and  C_4 
REMARK    2  A    between atoms: C_9  and  C_10 
REMARK    3  A    between atoms: C_10  and  O_11 
REMARK    4  A    between atoms: C_10  and  C_12 
REMARK    5  A    between atoms: C_12  and  N_13 
REMARK    6  A    between atoms: C_17  and  C_18 
ROOT
HETATM    1  C   UNL     1      -6.995   2.047 -31.036  1.00  0.00     0.271 C 
ENDROOT
BRANCH   1   2
HETATM    2  C   UNL     1      -7.717   0.696 -31.290  1.00  0.00     0.177 C 
BRANCH   2   3
HETATM    3  C   UNL     1      -7.358   0.075 -32.624  1.00  0.00    -0.027 A 
HETATM    4  C   UNL     1      -6.352  -0.901 -32.743  1.00  0.00     0.025 A 
HETATM    5  C   UNL     1      -6.047  -1.487 -33.985  1.00  0.00     0.048 A 
HETATM    6  C   UNL     1      -6.754  -1.075 -35.120  1.00  0.00     0.016 A 
HETATM    7  C   UNL     1      -7.749  -0.104 -35.017  1.00  0.00     0.001 A 
HETATM    8  C   UNL     1      -8.052   0.465 -33.779  1.00  0.00     0.010 A 
BRANCH   5   9
HETATM    9  C   UNL     1      -4.958  -2.533 -34.075  1.00  0.00     0.417 C 
HETATM   10  F   UNL     1      -4.111  -2.355 -35.122  1.00  0.00    -0.166 F 
HETATM   11  F   UNL     1      -4.191  -2.579 -32.956  1.00  0.00    -0.166 F 
HETATM   12  F   UNL     1      -5.485  -3.782 -34.223  1.00  0.00    -0.166 F 
ENDBRANCH   5   9
ENDBRANCH   2   3
BRANCH   2  13
HETATM   13  O   UNL     1      -9.128   0.857 -31.163  1.00  0.00    -0.389 OA
HETATM   14  H   UNL     1      -9.286   1.333 -30.323  1.00  0.00     0.210 HD
ENDBRANCH   2  13
ENDBRANCH   1   2
BRANCH   1  15
HETATM   15  N   UNL     1      -5.842   2.348 -32.012  1.00  0.00    -0.068 N 
HETATM   16  H   UNL     1      -5.963   1.720 -32.818  1.00  0.00     0.280 HD
HETATM   17  C   UNL     1      -5.878   3.772 -32.532  1.00  0.00     0.235 C 
HETATM   18  C   UNL     1      -4.715   4.009 -33.489  1.00  0.00     0.037 C 
HETATM   19  C   UNL     1      -3.354   3.726 -32.836  1.00  0.00     0.025 C 
HETATM   20  C   UNL     1      -3.368   2.279 -32.325  1.00  0.00     0.037 C 
HETATM   21  C   UNL     1      -4.518   2.015 -31.363  1.00  0.00     0.235 C 
BRANCH  19  22
HETATM   22  C   UNL     1      -2.983   4.741 -31.785  1.00  0.00    -0.018 A 
HETATM   23  C   UNL     1      -3.787   5.757 -31.206  1.00  0.00     0.147 A 
HETATM   24  N   UNL     1      -3.126   6.501 -30.322  1.00  0.00    -0.187 NA
HETATM   25  N   UNL     1      -1.927   5.913 -30.235  1.00  0.00    -0.289 N 
HETATM   26  H   UNL     1      -1.255   6.276 -29.565  1.00  0.00     0.188 HD
HETATM   27  C   UNL     1      -1.785   4.868 -31.105  1.00  0.00     0.118 A 
ENDBRANCH  19  22
ENDBRANCH   1  15
TORSDOF 6
ENDMDL
