MODEL 1
REMARK VINA RESULT:      -9.8      0.000      0.000
REMARK  9 active torsions:
REMARK  status: ('A' for Active; 'I' for Inactive)
REMARK    1  A    between atoms: C_6  and  C_7 
REMARK    2  A    between atoms: C_7  and  C_8 
REMARK       I    between atoms: C_8  and  N_9 
REMARK    3  A    between atoms: N_9  and  C_10 
REMARK    4  A    between atoms: C_10  and  C_11 
REMARK    5  A    between atoms: C_11  and  N_12 
REMARK    6  A    between atoms: C_17  and  C_18 
REMARK    7  A    between atoms: C_21  and  C_22 
REMARK    8  A    between atoms: C_29  and  C_30 
REMARK       I    between atoms: C_30  and  N_31 
REMARK    9  A    between atoms: N_31  and  C_32 
ROOT
HETATM    1  C   UNL     1      -6.327  -0.241 -29.867  1.00  0.00     0.071 C 
HETATM    2  C   UNL     1      -6.447   0.931 -30.814  1.00  0.00     0.047 C 
HETATM    3  N   UNL     1      -6.811   2.105 -30.171  1.00  0.00    -0.229 NA
HETATM    4  C   UNL     1      -6.713   3.201 -30.841  1.00  0.00     0.170 C 
HETATM    5  N   UNL     1      -6.425   3.279 -32.364  1.00  0.00    -0.319 N 
HETATM    6  C   UNL     1      -6.091   4.472 -32.731  1.00  0.00     0.011 C 
HETATM    7  C   UNL     1      -6.746   2.003 -33.043  1.00  0.00     0.165 C 
HETATM    8  S   UNL     1      -6.779   4.777 -30.130  1.00  0.00    -0.086 SA
HETATM    9  C   UNL     1      -6.008   5.493 -31.616  1.00  0.00     0.135 C 
HETATM   10  C   UNL     1      -6.225   0.885 -32.150  1.00  0.00     0.062 C 
ENDROOT
BRANCH   6  11
HETATM   11  C   UNL     1      -5.855   4.842 -34.166  1.00  0.00     0.156 C 
BRANCH  11  12
HETATM   12  C   UNL     1      -4.400   4.877 -34.589  1.00  0.00     0.223 C 
HETATM   13  N   UNL     1      -3.516   4.554 -33.592  1.00  0.00    -0.359 N 
HETATM   14  H   UNL     1      -3.895   4.400 -32.660  1.00  0.00     0.162 HD
HETATM   15  O   UNL     1      -4.062   5.204 -35.722  1.00  0.00    -0.273 OA
BRANCH  13  16
HETATM   16  C   UNL     1      -2.061   4.745 -33.600  1.00  0.00     0.150 C 
BRANCH  16  17
HETATM   17  C   UNL     1      -1.351   5.138 -32.287  1.00  0.00     0.253 C 
BRANCH  17  18
HETATM   18  N   UNL     1      -0.701   6.506 -32.336  1.00  0.00    -0.077 N 
HETATM   19  H   UNL     1       0.001   6.459 -33.102  1.00  0.00     0.279 HD
HETATM   20  C   UNL     1      -1.644   7.636 -32.647  1.00  0.00     0.269 C 
HETATM   21  C   UNL     1       0.072   6.789 -31.073  1.00  0.00     0.269 C 
ENDBRANCH  17  18
ENDBRANCH  16  17
ENDBRANCH  13  16
ENDBRANCH  11  12
ENDBRANCH   6  11
BRANCH   7  22
HETATM   22  C   UNL     1      -8.268   1.977 -33.309  1.00  0.00    -0.030 A 
HETATM   23  C   UNL     1      -9.032   0.845 -32.963  1.00  0.00     0.010 A 
HETATM   24  C   UNL     1     -10.356   0.694 -33.394  1.00  0.00     0.008 A 
HETATM   25  C   UNL     1     -10.976   1.684 -34.160  1.00  0.00    -0.055 A 
HETATM   26  C   UNL     1     -10.267   2.861 -34.412  1.00  0.00     0.008 A 
HETATM   27  C   UNL     1      -8.940   3.009 -33.991  1.00  0.00     0.010 A 
BRANCH  25  28
HETATM   28  C   UNL     1     -12.379   1.462 -34.703  1.00  0.00     0.010 C 
HETATM   29  C   UNL     1     -13.191   0.518 -33.818  1.00  0.00     0.015 C 
HETATM   30  C   UNL     1     -13.115   2.791 -34.907  1.00  0.00     0.015 C 
ENDBRANCH  25  28
ENDBRANCH   7  22
BRANCH  10  31
HETATM   31  C   UNL     1      -5.346  -0.090 -32.880  1.00  0.00     0.256 C 
HETATM   32  N   UNL     1      -6.031  -0.971 -33.686  1.00  0.00    -0.323 N 
HETATM   33  H   UNL     1      -6.963  -0.737 -33.991  1.00  0.00     0.169 HD
HETATM   34  O   UNL     1      -4.174  -0.173 -32.535  1.00  0.00    -0.267 OA
BRANCH  32  35
HETATM   35  C   UNL     1      -5.643  -2.266 -34.089  1.00  0.00     0.035 A 
HETATM   36  C   UNL     1      -4.368  -2.796 -33.903  1.00  0.00     0.029 A 
HETATM   37  C   UNL     1      -4.113  -4.136 -34.220  1.00  0.00     0.002 A 
HETATM   38  C   UNL     1      -5.124  -4.945 -34.737  1.00  0.00     0.000 A 
HETATM   39  C   UNL     1      -6.392  -4.416 -34.950  1.00  0.00     0.002 A 
HETATM   40  C   UNL     1      -6.651  -3.085 -34.623  1.00  0.00     0.029 A 
ENDBRANCH  32  35
ENDBRANCH  10  31
TORSDOF 9
ENDMDL
MODEL 2
REMARK VINA RESULT:      -9.6      2.682      5.430
REMARK  9 active torsions:
REMARK  status: ('A' for Active; 'I' for Inactive)
REMARK    1  A    between atoms: C_6  and  C_7 
REMARK    2  A    between atoms: C_7  and  C_8 
REMARK       I    between atoms: C_8  and  N_9 
REMARK    3  A    between atoms: N_9  and  C_10 
REMARK    4  A    between atoms: C_10  and  C_11 
REMARK    5  A    between atoms: C_11  and  N_12 
REMARK    6  A    between atoms: C_17  and  C_18 
REMARK    7  A    between atoms: C_21  and  C_22 
REMARK    8  A    between atoms: C_29  and  C_30 
REMARK       I    between atoms: C_30  and  N_31 
REMARK    9  A    between atoms: N_31  and  C_32 
ROOT
HETATM    1  C   UNL     1      -7.572   0.364 -35.264  1.00  0.00     0.071 C 
HETATM    2  C   UNL     1      -7.228   1.248 -34.086  1.00  0.00     0.047 C 
HETATM    3  N   UNL     1      -8.019   2.386 -34.020  1.00  0.00    -0.229 NA
HETATM    4  C   UNL     1      -7.966   3.079 -32.936  1.00  0.00     0.170 C 
HETATM    5  N   UNL     1      -6.935   2.858 -31.797  1.00  0.00    -0.319 N 
HETATM    6  C   UNL     1      -7.272   3.478 -30.715  1.00  0.00     0.011 C 
HETATM    7  C   UNL     1      -5.749   2.113 -32.277  1.00  0.00     0.165 C 
HETATM    8  S   UNL     1      -9.110   4.309 -32.520  1.00  0.00    -0.086 SA
HETATM    9  C   UNL     1      -8.588   4.223 -30.777  1.00  0.00     0.135 C 
HETATM   10  C   UNL     1      -6.264   0.991 -33.168  1.00  0.00     0.062 C 
ENDROOT
BRANCH   6  11
HETATM   11  C   UNL     1      -6.399   3.508 -29.494  1.00  0.00     0.156 C 
BRANCH  11  12
HETATM   12  C   UNL     1      -5.652   4.807 -29.270  1.00  0.00     0.223 C 
HETATM   13  N   UNL     1      -5.586   5.201 -27.959  1.00  0.00    -0.359 N 
HETATM   14  H   UNL     1      -6.098   4.646 -27.276  1.00  0.00     0.162 HD
HETATM   15  O   UNL     1      -5.184   5.454 -30.202  1.00  0.00    -0.273 OA
BRANCH  13  16
HETATM   16  C   UNL     1      -5.173   6.512 -27.446  1.00  0.00     0.150 C 
BRANCH  16  17
HETATM   17  C   UNL     1      -3.809   6.643 -26.736  1.00  0.00     0.253 C 
BRANCH  17  18
HETATM   18  N   UNL     1      -2.630   6.648 -27.686  1.00  0.00    -0.077 N 
HETATM   19  H   UNL     1      -2.575   5.686 -28.077  1.00  0.00     0.279 HD
HETATM   20  C   UNL     1      -2.761   7.604 -28.841  1.00  0.00     0.269 C 
HETATM   21  C   UNL     1      -1.335   6.879 -26.949  1.00  0.00     0.269 C 
ENDBRANCH  17  18
ENDBRANCH  16  17
ENDBRANCH  13  16
ENDBRANCH  11  12
ENDBRANCH   6  11
BRANCH   7  22
HETATM   22  C   UNL     1      -4.803   3.121 -32.967  1.00  0.00    -0.030 A 
HETATM   23  C   UNL     1      -3.422   3.107 -32.687  1.00  0.00     0.010 A 
HETATM   24  C   UNL     1      -2.578   4.140 -33.111  1.00  0.00     0.008 A 
HETATM   25  C   UNL     1      -3.075   5.210 -33.859  1.00  0.00    -0.055 A 
HETATM   26  C   UNL     1      -4.419   5.176 -34.241  1.00  0.00     0.008 A 
HETATM   27  C   UNL     1      -5.267   4.149 -33.808  1.00  0.00     0.010 A 
BRANCH  25  28
HETATM   28  C   UNL     1      -2.167   6.373 -34.227  1.00  0.00     0.010 C 
HETATM   29  C   UNL     1      -2.096   7.416 -33.112  1.00  0.00     0.015 C 
HETATM   30  C   UNL     1      -0.766   5.887 -34.612  1.00  0.00     0.015 C 
ENDBRANCH  25  28
ENDBRANCH   7  22
BRANCH  10  31
HETATM   31  C   UNL     1      -5.728  -0.359 -32.785  1.00  0.00     0.256 C 
HETATM   32  N   UNL     1      -5.008  -0.981 -33.780  1.00  0.00    -0.323 N 
HETATM   33  H   UNL     1      -4.618  -0.427 -34.527  1.00  0.00     0.169 HD
HETATM   34  O   UNL     1      -6.152  -0.872 -31.758  1.00  0.00    -0.267 OA
BRANCH  32  35
HETATM   35  C   UNL     1      -4.810  -2.364 -33.978  1.00  0.00     0.035 A 
HETATM   36  C   UNL     1      -3.776  -3.098 -33.399  1.00  0.00     0.029 A 
HETATM   37  C   UNL     1      -3.735  -4.490 -33.550  1.00  0.00     0.002 A 
HETATM   38  C   UNL     1      -4.715  -5.149 -34.292  1.00  0.00     0.000 A 
HETATM   39  C   UNL     1      -5.733  -4.420 -34.895  1.00  0.00     0.002 A 
HETATM   40  C   UNL     1      -5.783  -3.036 -34.735  1.00  0.00     0.029 A 
ENDBRANCH  32  35
ENDBRANCH  10  31
TORSDOF 9
ENDMDL
MODEL 3
REMARK VINA RESULT:      -8.7      3.522      9.367
REMARK  9 active torsions:
REMARK  status: ('A' for Active; 'I' for Inactive)
REMARK    1  A    between atoms: C_6  and  C_7 
REMARK    2  A    between atoms: C_7  and  C_8 
REMARK       I    between atoms: C_8  and  N_9 
REMARK    3  A    between atoms: N_9  and  C_10 
REMARK    4  A    between atoms: C_10  and  C_11 
REMARK    5  A    between atoms: C_11  and  N_12 
REMARK    6  A    between atoms: C_17  and  C_18 
REMARK    7  A    between atoms: C_21  and  C_22 
REMARK    8  A    between atoms: C_29  and  C_30 
REMARK       I    between atoms: C_30  and  N_31 
REMARK    9  A    between atoms: N_31  and  C_32 
ROOT
HETATM    1  C   UNL     1      -1.653   7.414 -33.708  1.00  0.00     0.071 C 
HETATM    2  C   UNL     1      -2.313   7.437 -32.348  1.00  0.00     0.047 C 
HETATM    3  N   UNL     1      -2.750   8.703 -31.985  1.00  0.00    -0.229 NA
HETATM    4  C   UNL     1      -3.526   8.789 -30.961  1.00  0.00     0.170 C 
HETATM    5  N   UNL     1      -3.830   7.620 -29.985  1.00  0.00    -0.319 N 
HETATM    6  C   UNL     1      -4.844   7.878 -29.227  1.00  0.00     0.011 C 
HETATM    7  C   UNL     1      -2.795   6.565 -30.064  1.00  0.00     0.165 C 
HETATM    8  S   UNL     1      -4.446  10.199 -30.562  1.00  0.00    -0.086 SA
HETATM    9  C   UNL     1      -5.526   9.205 -29.484  1.00  0.00     0.135 C 
HETATM   10  C   UNL     1      -2.484   6.362 -31.540  1.00  0.00     0.062 C 
ENDROOT
BRANCH   6  11
HETATM   11  C   UNL     1      -5.289   6.955 -28.129  1.00  0.00     0.156 C 
BRANCH  11  12
HETATM   12  C   UNL     1      -6.453   6.052 -28.482  1.00  0.00     0.223 C 
HETATM   13  N   UNL     1      -6.277   5.329 -29.634  1.00  0.00    -0.359 N 
HETATM   14  H   UNL     1      -5.438   5.514 -30.180  1.00  0.00     0.162 HD
HETATM   15  O   UNL     1      -7.473   6.013 -27.801  1.00  0.00    -0.273 OA
BRANCH  13  16
HETATM   16  C   UNL     1      -7.297   4.580 -30.377  1.00  0.00     0.150 C 
BRANCH  16  17
HETATM   17  C   UNL     1      -7.650   3.147 -29.925  1.00  0.00     0.253 C 
BRANCH  17  18
HETATM   18  N   UNL     1      -9.066   2.735 -30.269  1.00  0.00    -0.077 N 
HETATM   19  H   UNL     1      -9.390   2.142 -29.479  1.00  0.00     0.279 HD
HETATM   20  C   UNL     1     -10.034   3.879 -30.410  1.00  0.00     0.269 C 
HETATM   21  C   UNL     1      -9.098   1.858 -31.495  1.00  0.00     0.269 C 
ENDBRANCH  17  18
ENDBRANCH  16  17
ENDBRANCH  13  16
ENDBRANCH  11  12
ENDBRANCH   6  11
BRANCH   7  22
HETATM   22  C   UNL     1      -1.597   7.009 -29.194  1.00  0.00    -0.030 A 
HETATM   23  C   UNL     1      -1.811   7.523 -27.899  1.00  0.00     0.010 A 
HETATM   24  C   UNL     1      -0.782   8.142 -27.179  1.00  0.00     0.008 A 
HETATM   25  C   UNL     1       0.505   8.242 -27.711  1.00  0.00    -0.055 A 
HETATM   26  C   UNL     1       0.756   7.633 -28.944  1.00  0.00     0.008 A 
HETATM   27  C   UNL     1      -0.274   7.024 -29.670  1.00  0.00     0.010 A 
BRANCH  25  28
HETATM   28  C   UNL     1       1.586   9.003 -26.959  1.00  0.00     0.010 C 
HETATM   29  C   UNL     1       1.128  10.408 -26.571  1.00  0.00     0.015 C 
HETATM   30  C   UNL     1       2.065   8.224 -25.730  1.00  0.00     0.015 C 
ENDBRANCH  25  28
ENDBRANCH   7  22
BRANCH  10  31
HETATM   31  C   UNL     1      -2.575   4.925 -31.969  1.00  0.00     0.256 C 
HETATM   32  N   UNL     1      -3.862   4.474 -32.157  1.00  0.00    -0.323 N 
HETATM   33  H   UNL     1      -4.601   5.142 -32.315  1.00  0.00     0.169 HD
HETATM   34  O   UNL     1      -1.564   4.239 -31.891  1.00  0.00    -0.267 OA
BRANCH  32  35
HETATM   35  C   UNL     1      -4.347   3.153 -32.054  1.00  0.00     0.035 A 
HETATM   36  C   UNL     1      -4.109   2.313 -30.967  1.00  0.00     0.029 A 
HETATM   37  C   UNL     1      -4.737   1.064 -30.897  1.00  0.00     0.002 A 
HETATM   38  C   UNL     1      -5.590   0.643 -31.917  1.00  0.00     0.000 A 
HETATM   39  C   UNL     1      -5.811   1.464 -33.017  1.00  0.00     0.002 A 
HETATM   40  C   UNL     1      -5.196   2.714 -33.083  1.00  0.00     0.029 A 
ENDBRANCH  32  35
ENDBRANCH  10  31
TORSDOF 9
ENDMDL
MODEL 4
REMARK VINA RESULT:      -8.7      3.179      7.489
REMARK  9 active torsions:
REMARK  status: ('A' for Active; 'I' for Inactive)
REMARK    1  A    between atoms: C_6  and  C_7 
REMARK    2  A    between atoms: C_7  and  C_8 
REMARK       I    between atoms: C_8  and  N_9 
REMARK    3  A    between atoms: N_9  and  C_10 
REMARK    4  A    between atoms: C_10  and  C_11 
REMARK    5  A    between atoms: C_11  and  N_12 
REMARK    6  A    between atoms: C_17  and  C_18 
REMARK    7  A    between atoms: C_21  and  C_22 
REMARK    8  A    between atoms: C_29  and  C_30 
REMARK       I    between atoms: C_30  and  N_31 
REMARK    9  A    between atoms: N_31  and  C_32 
ROOT
HETATM    1  C   UNL     1      -5.221   3.703 -30.106  1.00  0.00     0.071 C 
HETATM    2  C   UNL     1      -6.283   3.495 -31.161  1.00  0.00     0.047 C 
HETATM    3  N   UNL     1      -7.478   3.028 -30.634  1.00  0.00    -0.229 NA
HETATM    4  C   UNL     1      -8.509   3.041 -31.406  1.00  0.00     0.170 C 
HETATM    5  N   UNL     1      -8.466   3.335 -32.929  1.00  0.00    -0.319 N 
HETATM    6  C   UNL     1      -9.643   3.572 -33.408  1.00  0.00     0.011 C 
HETATM    7  C   UNL     1      -7.109   3.128 -33.482  1.00  0.00     0.165 C 
HETATM    8  S   UNL     1     -10.135   2.837 -30.849  1.00  0.00    -0.086 SA
HETATM    9  C   UNL     1     -10.769   3.559 -32.396  1.00  0.00     0.135 C 
HETATM   10  C   UNL     1      -6.129   3.732 -32.486  1.00  0.00     0.062 C 
ENDROOT
BRANCH   6  11
HETATM   11  C   UNL     1      -9.892   3.790 -34.872  1.00  0.00     0.156 C 
BRANCH  11  12
HETATM   12  C   UNL     1     -10.685   5.036 -35.209  1.00  0.00     0.223 C 
HETATM   13  N   UNL     1      -9.983   6.206 -35.074  1.00  0.00    -0.359 N 
HETATM   14  H   UNL     1      -9.040   6.145 -34.693  1.00  0.00     0.162 HD
HETATM   15  O   UNL     1     -11.866   4.984 -35.538  1.00  0.00    -0.273 OA
BRANCH  13  16
HETATM   16  C   UNL     1     -10.522   7.570 -35.067  1.00  0.00     0.150 C 
BRANCH  16  17
HETATM   17  C   UNL     1     -10.998   8.193 -36.396  1.00  0.00     0.253 C 
BRANCH  17  18
HETATM   18  N   UNL     1     -12.455   7.917 -36.708  1.00  0.00    -0.077 N 
HETATM   19  H   UNL     1     -12.507   6.908 -36.951  1.00  0.00     0.279 HD
HETATM   20  C   UNL     1     -13.397   8.162 -35.561  1.00  0.00     0.269 C 
HETATM   21  C   UNL     1     -12.904   8.670 -37.934  1.00  0.00     0.269 C 
ENDBRANCH  17  18
ENDBRANCH  16  17
ENDBRANCH  13  16
ENDBRANCH  11  12
ENDBRANCH   6  11
BRANCH   7  22
HETATM   22  C   UNL     1      -6.930   1.616 -33.748  1.00  0.00    -0.030 A 
HETATM   23  C   UNL     1      -5.896   0.900 -33.112  1.00  0.00     0.010 A 
HETATM   24  C   UNL     1      -5.563  -0.404 -33.500  1.00  0.00     0.008 A 
HETATM   25  C   UNL     1      -6.271  -1.053 -34.513  1.00  0.00    -0.055 A 
HETATM   26  C   UNL     1      -7.372  -0.396 -35.071  1.00  0.00     0.008 A 
HETATM   27  C   UNL     1      -7.699   0.912 -34.692  1.00  0.00     0.010 A 
BRANCH  25  28
HETATM   28  C   UNL     1      -5.835  -2.429 -34.990  1.00  0.00     0.010 C 
HETATM   29  C   UNL     1      -4.488  -2.838 -34.396  1.00  0.00     0.015 C 
HETATM   30  C   UNL     1      -6.906  -3.486 -34.697  1.00  0.00     0.015 C 
ENDBRANCH  25  28
ENDBRANCH   7  22
BRANCH  10  31
HETATM   31  C   UNL     1      -5.166   4.697 -33.118  1.00  0.00     0.256 C 
HETATM   32  N   UNL     1      -3.856   4.273 -33.106  1.00  0.00    -0.323 N 
HETATM   33  H   UNL     1      -3.657   3.290 -32.995  1.00  0.00     0.169 HD
HETATM   34  O   UNL     1      -5.567   5.827 -33.366  1.00  0.00    -0.267 OA
BRANCH  32  35
HETATM   35  C   UNL     1      -2.685   5.060 -33.123  1.00  0.00     0.035 A 
HETATM   36  C   UNL     1      -2.299   5.868 -34.191  1.00  0.00     0.029 A 
HETATM   37  C   UNL     1      -1.188   6.710 -34.067  1.00  0.00     0.002 A 
HETATM   38  C   UNL     1      -0.450   6.736 -32.884  1.00  0.00     0.000 A 
HETATM   39  C   UNL     1      -0.812   5.913 -31.824  1.00  0.00     0.002 A 
HETATM   40  C   UNL     1      -1.927   5.082 -31.942  1.00  0.00     0.029 A 
ENDBRANCH  32  35
ENDBRANCH  10  31
TORSDOF 9
ENDMDL
MODEL 5
REMARK VINA RESULT:      -8.6      1.050      1.839
REMARK  9 active torsions:
REMARK  status: ('A' for Active; 'I' for Inactive)
REMARK    1  A    between atoms: C_6  and  C_7 
REMARK    2  A    between atoms: C_7  and  C_8 
REMARK       I    between atoms: C_8  and  N_9 
REMARK    3  A    between atoms: N_9  and  C_10 
REMARK    4  A    between atoms: C_10  and  C_11 
REMARK    5  A    between atoms: C_11  and  N_12 
REMARK    6  A    between atoms: C_17  and  C_18 
REMARK    7  A    between atoms: C_21  and  C_22 
REMARK    8  A    between atoms: C_29  and  C_30 
REMARK       I    between atoms: C_30  and  N_31 
REMARK    9  A    between atoms: N_31  and  C_32 
ROOT
HETATM    1  C   UNL     1      -6.898  -0.173 -30.259  1.00  0.00     0.071 C 
HETATM    2  C   UNL     1      -6.601   1.044 -31.105  1.00  0.00     0.047 C 
HETATM    3  N   UNL     1      -6.847   2.235 -30.437  1.00  0.00    -0.229 NA
HETATM    4  C   UNL     1      -6.409   3.317 -30.981  1.00  0.00     0.170 C 
HETATM    5  N   UNL     1      -5.823   3.409 -32.415  1.00  0.00    -0.319 N 
HETATM    6  C   UNL     1      -5.198   4.524 -32.609  1.00  0.00     0.011 C 
HETATM    7  C   UNL     1      -6.249   2.263 -33.249  1.00  0.00     0.165 C 
HETATM    8  S   UNL     1      -6.303   4.836 -30.158  1.00  0.00    -0.086 SA
HETATM    9  C   UNL     1      -5.134   5.449 -31.413  1.00  0.00     0.135 C 
HETATM   10  C   UNL     1      -6.138   1.019 -32.379  1.00  0.00     0.062 C 
ENDROOT
BRANCH   6  11
HETATM   11  C   UNL     1      -4.621   4.906 -33.941  1.00  0.00     0.156 C 
BRANCH  11  12
HETATM   12  C   UNL     1      -3.149   5.264 -33.923  1.00  0.00     0.223 C 
HETATM   13  N   UNL     1      -2.888   6.562 -33.566  1.00  0.00    -0.359 N 
HETATM   14  H   UNL     1      -3.685   7.178 -33.424  1.00  0.00     0.162 HD
HETATM   15  O   UNL     1      -2.281   4.456 -34.241  1.00  0.00    -0.273 OA
BRANCH  13  16
HETATM   16  C   UNL     1      -1.617   7.282 -33.704  1.00  0.00     0.150 C 
BRANCH  16  17
HETATM   17  C   UNL     1      -0.638   7.308 -32.511  1.00  0.00     0.253 C 
BRANCH  17  18
HETATM   18  N   UNL     1      -1.155   6.579 -31.288  1.00  0.00    -0.077 N 
HETATM   19  H   UNL     1      -2.163   6.401 -31.467  1.00  0.00     0.279 HD
HETATM   20  C   UNL     1      -0.495   5.252 -31.025  1.00  0.00     0.269 C 
HETATM   21  C   UNL     1      -1.093   7.455 -30.062  1.00  0.00     0.269 C 
ENDBRANCH  17  18
ENDBRANCH  16  17
ENDBRANCH  13  16
ENDBRANCH  11  12
ENDBRANCH   6  11
BRANCH   7  22
HETATM   22  C   UNL     1      -7.666   2.568 -33.786  1.00  0.00    -0.030 A 
HETATM   23  C   UNL     1      -8.122   3.898 -33.874  1.00  0.00     0.010 A 
HETATM   24  C   UNL     1      -9.466   4.196 -34.134  1.00  0.00     0.008 A 
HETATM   25  C   UNL     1     -10.396   3.176 -34.349  1.00  0.00    -0.055 A 
HETATM   26  C   UNL     1      -9.932   1.858 -34.378  1.00  0.00     0.008 A 
HETATM   27  C   UNL     1      -8.592   1.559 -34.107  1.00  0.00     0.010 A 
BRANCH  25  28
HETATM   28  C   UNL     1     -11.868   3.511 -34.532  1.00  0.00     0.010 C 
HETATM   29  C   UNL     1     -12.065   4.833 -35.273  1.00  0.00     0.015 C 
HETATM   30  C   UNL     1     -12.616   2.373 -35.235  1.00  0.00     0.015 C 
ENDBRANCH  25  28
ENDBRANCH   7  22
BRANCH  10  31
HETATM   31  C   UNL     1      -5.342  -0.081 -33.021  1.00  0.00     0.256 C 
HETATM   32  N   UNL     1      -6.091  -0.941 -33.792  1.00  0.00    -0.323 N 
HETATM   33  H   UNL     1      -6.989  -0.639 -34.138  1.00  0.00     0.169 HD
HETATM   34  O   UNL     1      -4.192  -0.254 -32.638  1.00  0.00    -0.267 OA
BRANCH  32  35
HETATM   35  C   UNL     1      -5.822  -2.291 -34.103  1.00  0.00     0.035 A 
HETATM   36  C   UNL     1      -6.744  -3.161 -34.683  1.00  0.00     0.029 A 
HETATM   37  C   UNL     1      -6.347  -4.445 -35.071  1.00  0.00     0.002 A 
HETATM   38  C   UNL     1      -5.034  -4.871 -34.869  1.00  0.00     0.000 A 
HETATM   39  C   UNL     1      -4.116  -4.019 -34.266  1.00  0.00     0.002 A 
HETATM   40  C   UNL     1      -4.507  -2.734 -33.890  1.00  0.00     0.029 A 
ENDBRANCH  32  35
ENDBRANCH  10  31
TORSDOF 9
ENDMDL
MODEL 6
REMARK VINA RESULT:      -8.6      3.348      6.824
REMARK  9 active torsions:
REMARK  status: ('A' for Active; 'I' for Inactive)
REMARK    1  A    between atoms: C_6  and  C_7 
REMARK    2  A    between atoms: C_7  and  C_8 
REMARK       I    between atoms: C_8  and  N_9 
REMARK    3  A    between atoms: N_9  and  C_10 
REMARK    4  A    between atoms: C_10  and  C_11 
REMARK    5  A    between atoms: C_11  and  N_12 
REMARK    6  A    between atoms: C_17  and  C_18 
REMARK    7  A    between atoms: C_21  and  C_22 
REMARK    8  A    between atoms: C_29  and  C_30 
REMARK       I    between atoms: C_30  and  N_31 
REMARK    9  A    between atoms: N_31  and  C_32 
ROOT
HETATM    1  C   UNL     1     -10.603   4.572 -35.372  1.00  0.00     0.071 C 
HETATM    2  C   UNL     1      -9.637   4.237 -34.259  1.00  0.00     0.047 C 
HETATM    3  N   UNL     1      -8.339   4.646 -34.534  1.00  0.00    -0.229 NA
HETATM    4  C   UNL     1      -7.494   4.620 -33.562  1.00  0.00     0.170 C 
HETATM    5  N   UNL     1      -7.761   3.969 -32.179  1.00  0.00    -0.319 N 
HETATM    6  C   UNL     1      -6.883   4.327 -31.301  1.00  0.00     0.011 C 
HETATM    7  C   UNL     1      -8.867   2.988 -32.246  1.00  0.00     0.165 C 
HETATM    8  S   UNL     1      -5.952   5.404 -33.603  1.00  0.00    -0.086 SA
HETATM    9  C   UNL     1      -5.844   5.314 -31.787  1.00  0.00     0.135 C 
HETATM   10  C   UNL     1      -9.961   3.613 -33.100  1.00  0.00     0.062 C 
ENDROOT
BRANCH   6  11
HETATM   11  C   UNL     1      -6.855   3.766 -29.909  1.00  0.00     0.156 C 
BRANCH  11  12
HETATM   12  C   UNL     1      -6.755   4.797 -28.803  1.00  0.00     0.223 C 
HETATM   13  N   UNL     1      -5.518   4.877 -28.217  1.00  0.00    -0.359 N 
HETATM   14  H   UNL     1      -4.815   4.202 -28.511  1.00  0.00     0.162 HD
HETATM   15  O   UNL     1      -7.721   5.468 -28.452  1.00  0.00    -0.273 OA
BRANCH  13  16
HETATM   16  C   UNL     1      -5.169   5.569 -26.971  1.00  0.00     0.150 C 
BRANCH  16  17
HETATM   17  C   UNL     1      -4.415   6.913 -27.048  1.00  0.00     0.253 C 
BRANCH  17  18
HETATM   18  N   UNL     1      -2.939   6.763 -27.356  1.00  0.00    -0.077 N 
HETATM   19  H   UNL     1      -2.731   5.748 -27.265  1.00  0.00     0.279 HD
HETATM   20  C   UNL     1      -2.543   7.190 -28.743  1.00  0.00     0.269 C 
HETATM   21  C   UNL     1      -2.092   7.461 -26.323  1.00  0.00     0.269 C 
ENDBRANCH  17  18
ENDBRANCH  16  17
ENDBRANCH  13  16
ENDBRANCH  11  12
ENDBRANCH   6  11
BRANCH   7  22
HETATM   22  C   UNL     1      -8.290   1.659 -32.784  1.00  0.00    -0.030 A 
HETATM   23  C   UNL     1      -7.334   0.943 -32.034  1.00  0.00     0.010 A 
HETATM   24  C   UNL     1      -6.627  -0.132 -32.586  1.00  0.00     0.008 A 
HETATM   25  C   UNL     1      -6.870  -0.553 -33.895  1.00  0.00    -0.055 A 
HETATM   26  C   UNL     1      -7.895   0.075 -34.608  1.00  0.00     0.008 A 
HETATM   27  C   UNL     1      -8.596   1.157 -34.062  1.00  0.00     0.010 A 
BRANCH  25  28
HETATM   28  C   UNL     1      -6.025  -1.656 -34.512  1.00  0.00     0.010 C 
HETATM   29  C   UNL     1      -4.704  -1.848 -33.767  1.00  0.00     0.015 C 
HETATM   30  C   UNL     1      -6.803  -2.974 -34.596  1.00  0.00     0.015 C 
ENDBRANCH  25  28
ENDBRANCH   7  22
BRANCH  10  31
HETATM   31  C   UNL     1     -11.307   3.600 -32.436  1.00  0.00     0.256 C 
HETATM   32  N   UNL     1     -12.026   2.444 -32.641  1.00  0.00    -0.323 N 
HETATM   33  H   UNL     1     -11.539   1.603 -32.913  1.00  0.00     0.169 HD
HETATM   34  O   UNL     1     -11.734   4.656 -31.987  1.00  0.00    -0.267 OA
BRANCH  32  35
HETATM   35  C   UNL     1     -13.426   2.273 -32.627  1.00  0.00     0.035 A 
HETATM   36  C   UNL     1     -14.295   2.987 -31.803  1.00  0.00     0.029 A 
HETATM   37  C   UNL     1     -15.679   2.841 -31.951  1.00  0.00     0.002 A 
HETATM   38  C   UNL     1     -16.200   1.970 -32.908  1.00  0.00     0.000 A 
HETATM   39  C   UNL     1     -15.339   1.234 -33.714  1.00  0.00     0.002 A 
HETATM   40  C   UNL     1     -13.960   1.389 -33.578  1.00  0.00     0.029 A 
ENDBRANCH  32  35
ENDBRANCH  10  31
TORSDOF 9
ENDMDL
MODEL 7
REMARK VINA RESULT:      -8.6      2.799      4.359
REMARK  9 active torsions:
REMARK  status: ('A' for Active; 'I' for Inactive)
REMARK    1  A    between atoms: C_6  and  C_7 
REMARK    2  A    between atoms: C_7  and  C_8 
REMARK       I    between atoms: C_8  and  N_9 
REMARK    3  A    between atoms: N_9  and  C_10 
REMARK    4  A    between atoms: C_10  and  C_11 
REMARK    5  A    between atoms: C_11  and  N_12 
REMARK    6  A    between atoms: C_17  and  C_18 
REMARK    7  A    between atoms: C_21  and  C_22 
REMARK    8  A    between atoms: C_29  and  C_30 
REMARK       I    between atoms: C_30  and  N_31 
REMARK    9  A    between atoms: N_31  and  C_32 
ROOT
HETATM    1  C   UNL     1      -6.436  -0.214 -29.989  1.00  0.00     0.071 C 
HETATM    2  C   UNL     1      -6.858   1.000 -30.785  1.00  0.00     0.047 C 
HETATM    3  N   UNL     1      -7.224   2.069 -29.979  1.00  0.00    -0.229 NA
HETATM    4  C   UNL     1      -7.373   3.214 -30.550  1.00  0.00     0.170 C 
HETATM    5  N   UNL     1      -7.383   3.439 -32.085  1.00  0.00    -0.319 N 
HETATM    6  C   UNL     1      -7.257   4.689 -32.390  1.00  0.00     0.011 C 
HETATM    7  C   UNL     1      -7.682   2.186 -32.814  1.00  0.00     0.165 C 
HETATM    8  S   UNL     1      -7.479   4.714 -29.692  1.00  0.00    -0.086 SA
HETATM    9  C   UNL     1      -7.081   5.628 -31.216  1.00  0.00     0.135 C 
HETATM   10  C   UNL     1      -6.884   1.081 -32.138  1.00  0.00     0.062 C 
ENDROOT
BRANCH   6  11
HETATM   11  C   UNL     1      -7.333   5.189 -33.803  1.00  0.00     0.156 C 
BRANCH  11  12
HETATM   12  C   UNL     1      -8.671   5.774 -34.206  1.00  0.00     0.223 C 
HETATM   13  N   UNL     1      -9.049   6.872 -33.478  1.00  0.00    -0.359 N 
HETATM   14  H   UNL     1      -8.453   7.146 -32.699  1.00  0.00     0.162 HD
HETATM   15  O   UNL     1      -9.360   5.270 -35.088  1.00  0.00    -0.273 OA
BRANCH  13  16
HETATM   16  C   UNL     1     -10.375   7.499 -33.439  1.00  0.00     0.150 C 
BRANCH  16  17
HETATM   17  C   UNL     1     -10.784   8.455 -34.580  1.00  0.00     0.253 C 
BRANCH  17  18
HETATM   18  N   UNL     1     -11.083   7.747 -35.886  1.00  0.00    -0.077 N 
HETATM   19  H   UNL     1     -10.620   6.818 -35.818  1.00  0.00     0.279 HD
HETATM   20  C   UNL     1     -12.546   7.511 -36.149  1.00  0.00     0.269 C 
HETATM   21  C   UNL     1     -10.441   8.455 -37.051  1.00  0.00     0.269 C 
ENDBRANCH  17  18
ENDBRANCH  16  17
ENDBRANCH  13  16
ENDBRANCH  11  12
ENDBRANCH   6  11
BRANCH   7  22
HETATM   22  C   UNL     1      -9.215   1.989 -32.811  1.00  0.00    -0.030 A 
HETATM   23  C   UNL     1      -9.772   0.744 -33.164  1.00  0.00     0.010 A 
HETATM   24  C   UNL     1     -11.145   0.594 -33.393  1.00  0.00     0.008 A 
HETATM   25  C   UNL     1     -12.017   1.676 -33.247  1.00  0.00    -0.055 A 
HETATM   26  C   UNL     1     -11.492   2.887 -32.787  1.00  0.00     0.008 A 
HETATM   27  C   UNL     1     -10.118   3.040 -32.568  1.00  0.00     0.010 A 
BRANCH  25  28
HETATM   28  C   UNL     1     -13.489   1.523 -33.596  1.00  0.00     0.010 C 
HETATM   29  C   UNL     1     -13.900   0.055 -33.708  1.00  0.00     0.015 C 
HETATM   30  C   UNL     1     -14.380   2.265 -32.593  1.00  0.00     0.015 C 
ENDBRANCH  25  28
ENDBRANCH   7  22
BRANCH  10  31
HETATM   31  C   UNL     1      -6.053   0.280 -33.099  1.00  0.00     0.256 C 
HETATM   32  N   UNL     1      -6.676  -0.855 -33.570  1.00  0.00    -0.323 N 
HETATM   33  H   UNL     1      -7.681  -0.920 -33.526  1.00  0.00     0.169 HD
HETATM   34  O   UNL     1      -4.865   0.557 -33.198  1.00  0.00    -0.267 OA
BRANCH  32  35
HETATM   35  C   UNL     1      -6.080  -2.046 -34.037  1.00  0.00     0.035 A 
HETATM   36  C   UNL     1      -4.727  -2.352 -33.900  1.00  0.00     0.029 A 
HETATM   37  C   UNL     1      -4.252  -3.613 -34.281  1.00  0.00     0.002 A 
HETATM   38  C   UNL     1      -5.121  -4.564 -34.815  1.00  0.00     0.000 A 
HETATM   39  C   UNL     1      -6.467  -4.255 -34.981  1.00  0.00     0.002 A 
HETATM   40  C   UNL     1      -6.944  -3.004 -34.590  1.00  0.00     0.029 A 
ENDBRANCH  32  35
ENDBRANCH  10  31
TORSDOF 9
ENDMDL
MODEL 8
REMARK VINA RESULT:      -8.5      1.923      2.771
REMARK  9 active torsions:
REMARK  status: ('A' for Active; 'I' for Inactive)
REMARK    1  A    between atoms: C_6  and  C_7 
REMARK    2  A    between atoms: C_7  and  C_8 
REMARK       I    between atoms: C_8  and  N_9 
REMARK    3  A    between atoms: N_9  and  C_10 
REMARK    4  A    between atoms: C_10  and  C_11 
REMARK    5  A    between atoms: C_11  and  N_12 
REMARK    6  A    between atoms: C_17  and  C_18 
REMARK    7  A    between atoms: C_21  and  C_22 
REMARK    8  A    between atoms: C_29  and  C_30 
REMARK       I    between atoms: C_30  and  N_31 
REMARK    9  A    between atoms: N_31  and  C_32 
ROOT
HETATM    1  C   UNL     1      -9.591   0.101 -31.918  1.00  0.00     0.071 C 
HETATM    2  C   UNL     1      -9.059   1.479 -32.239  1.00  0.00     0.047 C 
HETATM    3  N   UNL     1      -9.350   2.409 -31.251  1.00  0.00    -0.229 NA
HETATM    4  C   UNL     1      -8.747   3.546 -31.314  1.00  0.00     0.170 C 
HETATM    5  N   UNL     1      -7.893   4.025 -32.518  1.00  0.00    -0.319 N 
HETATM    6  C   UNL     1      -7.172   5.054 -32.218  1.00  0.00     0.011 C 
HETATM    7  C   UNL     1      -8.227   3.276 -33.750  1.00  0.00     0.165 C 
HETATM    8  S   UNL     1      -8.701   4.688 -30.014  1.00  0.00    -0.086 SA
HETATM    9  C   UNL     1      -7.277   5.524 -30.783  1.00  0.00     0.135 C 
HETATM   10  C   UNL     1      -8.365   1.813 -33.354  1.00  0.00     0.062 C 
ENDROOT
BRANCH   6  11
HETATM   11  C   UNL     1      -6.328   5.774 -33.230  1.00  0.00     0.156 C 
BRANCH  11  12
HETATM   12  C   UNL     1      -5.104   5.015 -33.700  1.00  0.00     0.223 C 
HETATM   13  N   UNL     1      -4.252   4.640 -32.693  1.00  0.00    -0.359 N 
HETATM   14  H   UNL     1      -4.468   4.962 -31.752  1.00  0.00     0.162 HD
HETATM   15  O   UNL     1      -4.893   4.797 -34.889  1.00  0.00    -0.273 OA
BRANCH  13  16
HETATM   16  C   UNL     1      -2.881   4.136 -32.832  1.00  0.00     0.150 C 
BRANCH  16  17
HETATM   17  C   UNL     1      -1.704   5.053 -32.436  1.00  0.00     0.253 C 
BRANCH  17  18
HETATM   18  N   UNL     1      -1.211   5.929 -33.569  1.00  0.00    -0.077 N 
HETATM   19  H   UNL     1      -0.205   6.106 -33.375  1.00  0.00     0.279 HD
HETATM   20  C   UNL     1      -1.310   5.303 -34.934  1.00  0.00     0.269 C 
HETATM   21  C   UNL     1      -1.887   7.276 -33.552  1.00  0.00     0.269 C 
ENDBRANCH  17  18
ENDBRANCH  16  17
ENDBRANCH  13  16
ENDBRANCH  11  12
ENDBRANCH   6  11
BRANCH   7  22
HETATM   22  C   UNL     1      -9.492   3.914 -34.366  1.00  0.00    -0.030 A 
HETATM   23  C   UNL     1      -9.594   5.314 -34.491  1.00  0.00     0.010 A 
HETATM   24  C   UNL     1     -10.805   5.933 -34.827  1.00  0.00     0.008 A 
HETATM   25  C   UNL     1     -11.950   5.175 -35.082  1.00  0.00    -0.055 A 
HETATM   26  C   UNL     1     -11.832   3.782 -35.074  1.00  0.00     0.008 A 
HETATM   27  C   UNL     1     -10.625   3.162 -34.728  1.00  0.00     0.010 A 
BRANCH  25  28
HETATM   28  C   UNL     1     -13.279   5.864 -35.348  1.00  0.00     0.010 C 
HETATM   29  C   UNL     1     -13.926   6.371 -34.060  1.00  0.00     0.015 C 
HETATM   30  C   UNL     1     -13.125   6.999 -36.367  1.00  0.00     0.015 C 
ENDBRANCH  25  28
ENDBRANCH   7  22
BRANCH  10  31
HETATM   31  C   UNL     1      -7.533   0.891 -34.200  1.00  0.00     0.256 C 
HETATM   32  N   UNL     1      -7.417  -0.385 -33.695  1.00  0.00    -0.323 N 
HETATM   33  H   UNL     1      -8.098  -0.715 -33.029  1.00  0.00     0.169 HD
HETATM   34  O   UNL     1      -6.866   1.386 -35.099  1.00  0.00    -0.267 OA
BRANCH  32  35
HETATM   35  C   UNL     1      -6.375  -1.313 -33.904  1.00  0.00     0.035 A 
HETATM   36  C   UNL     1      -5.095  -1.189 -33.366  1.00  0.00     0.029 A 
HETATM   37  C   UNL     1      -4.166  -2.224 -33.523  1.00  0.00     0.002 A 
HETATM   38  C   UNL     1      -4.506  -3.377 -34.231  1.00  0.00     0.000 A 
HETATM   39  C   UNL     1      -5.771  -3.496 -34.793  1.00  0.00     0.002 A 
HETATM   40  C   UNL     1      -6.703  -2.471 -34.627  1.00  0.00     0.029 A 
ENDBRANCH  32  35
ENDBRANCH  10  31
TORSDOF 9
ENDMDL
MODEL 9
REMARK VINA RESULT:      -8.4      3.953      8.146
REMARK  9 active torsions:
REMARK  status: ('A' for Active; 'I' for Inactive)
REMARK    1  A    between atoms: C_6  and  C_7 
REMARK    2  A    between atoms: C_7  and  C_8 
REMARK       I    between atoms: C_8  and  N_9 
REMARK    3  A    between atoms: N_9  and  C_10 
REMARK    4  A    between atoms: C_10  and  C_11 
REMARK    5  A    between atoms: C_11  and  N_12 
REMARK    6  A    between atoms: C_17  and  C_18 
REMARK    7  A    between atoms: C_21  and  C_22 
REMARK    8  A    between atoms: C_29  and  C_30 
REMARK       I    between atoms: C_30  and  N_31 
REMARK    9  A    between atoms: N_31  and  C_32 
ROOT
HETATM    1  C   UNL     1      -7.236   6.432 -32.574  1.00  0.00     0.071 C 
HETATM    2  C   UNL     1      -5.845   5.889 -32.335  1.00  0.00     0.047 C 
HETATM    3  N   UNL     1      -5.124   5.727 -33.509  1.00  0.00    -0.229 NA
HETATM    4  C   UNL     1      -3.862   5.495 -33.400  1.00  0.00     0.170 C 
HETATM    5  N   UNL     1      -3.137   5.174 -32.065  1.00  0.00    -0.319 N 
HETATM    6  C   UNL     1      -1.854   5.270 -32.179  1.00  0.00     0.011 C 
HETATM    7  C   UNL     1      -4.086   4.697 -31.035  1.00  0.00     0.165 C 
HETATM    8  S   UNL     1      -2.741   5.610 -34.714  1.00  0.00    -0.086 SA
HETATM    9  C   UNL     1      -1.354   5.710 -33.538  1.00  0.00     0.135 C 
HETATM   10  C   UNL     1      -5.319   5.586 -31.123  1.00  0.00     0.062 C 
ENDROOT
BRANCH   6  11
HETATM   11  C   UNL     1      -0.914   4.917 -31.063  1.00  0.00     0.156 C 
BRANCH  11  12
HETATM   12  C   UNL     1      -0.741   5.990 -30.007  1.00  0.00     0.223 C 
HETATM   13  N   UNL     1      -0.142   5.553 -28.853  1.00  0.00    -0.359 N 
HETATM   14  H   UNL     1       0.058   4.558 -28.776  1.00  0.00     0.162 HD
HETATM   15  O   UNL     1      -1.144   7.137 -30.175  1.00  0.00    -0.273 OA
BRANCH  13  16
HETATM   16  C   UNL     1      -0.069   6.259 -27.569  1.00  0.00     0.150 C 
BRANCH  16  17
HETATM   17  C   UNL     1       1.078   7.263 -27.330  1.00  0.00     0.253 C 
BRANCH  17  18
HETATM   18  N   UNL     1       1.078   7.864 -25.940  1.00  0.00    -0.077 N 
HETATM   19  H   UNL     1       0.935   7.069 -25.286  1.00  0.00     0.279 HD
HETATM   20  C   UNL     1       2.360   8.550 -25.555  1.00  0.00     0.269 C 
HETATM   21  C   UNL     1      -0.098   8.787 -25.743  1.00  0.00     0.269 C 
ENDBRANCH  17  18
ENDBRANCH  16  17
ENDBRANCH  13  16
ENDBRANCH  11  12
ENDBRANCH   6  11
BRANCH   7  22
HETATM   22  C   UNL     1      -4.340   3.193 -31.284  1.00  0.00    -0.030 A 
HETATM   23  C   UNL     1      -3.343   2.391 -31.874  1.00  0.00     0.010 A 
HETATM   24  C   UNL     1      -3.616   1.093 -32.321  1.00  0.00     0.008 A 
HETATM   25  C   UNL     1      -4.887   0.535 -32.166  1.00  0.00    -0.055 A 
HETATM   26  C   UNL     1      -5.852   1.277 -31.478  1.00  0.00     0.008 A 
HETATM   27  C   UNL     1      -5.583   2.579 -31.041  1.00  0.00     0.010 A 
BRANCH  25  28
HETATM   28  C   UNL     1      -5.196  -0.837 -32.744  1.00  0.00     0.010 C 
HETATM   29  C   UNL     1      -5.858  -0.741 -34.118  1.00  0.00     0.015 C 
HETATM   30  C   UNL     1      -3.940  -1.713 -32.803  1.00  0.00     0.015 C 
ENDBRANCH  25  28
ENDBRANCH   7  22
BRANCH  10  31
HETATM   31  C   UNL     1      -5.715   6.178 -29.801  1.00  0.00     0.256 C 
HETATM   32  N   UNL     1      -4.978   7.282 -29.436  1.00  0.00    -0.323 N 
HETATM   33  H   UNL     1      -4.485   7.803 -30.145  1.00  0.00     0.169 HD
HETATM   34  O   UNL     1      -6.460   5.525 -29.082  1.00  0.00    -0.267 OA
BRANCH  32  35
HETATM   35  C   UNL     1      -4.712   7.762 -28.135  1.00  0.00     0.035 A 
HETATM   36  C   UNL     1      -5.429   8.783 -27.515  1.00  0.00     0.029 A 
HETATM   37  C   UNL     1      -5.175   9.103 -26.176  1.00  0.00     0.002 A 
HETATM   38  C   UNL     1      -4.195   8.417 -25.458  1.00  0.00     0.000 A 
HETATM   39  C   UNL     1      -3.457   7.416 -26.079  1.00  0.00     0.002 A 
HETATM   40  C   UNL     1      -3.718   7.087 -27.410  1.00  0.00     0.029 A 
ENDBRANCH  32  35
ENDBRANCH  10  31
TORSDOF 9
ENDMDL
MODEL 10
REMARK VINA RESULT:      -8.2      3.870      7.855
REMARK  9 active torsions:
REMARK  status: ('A' for Active; 'I' for Inactive)
REMARK    1  A    between atoms: C_6  and  C_7 
REMARK    2  A    between atoms: C_7  and  C_8 
REMARK       I    between atoms: C_8  and  N_9 
REMARK    3  A    between atoms: N_9  and  C_10 
REMARK    4  A    between atoms: C_10  and  C_11 
REMARK    5  A    between atoms: C_11  and  N_12 
REMARK    6  A    between atoms: C_17  and  C_18 
REMARK    7  A    between atoms: C_21  and  C_22 
REMARK    8  A    between atoms: C_29  and  C_30 
REMARK       I    between atoms: C_30  and  N_31 
REMARK    9  A    between atoms: N_31  and  C_32 
ROOT
HETATM    1  C   UNL     1      -5.086   4.511 -34.095  1.00  0.00     0.071 C 
HETATM    2  C   UNL     1      -6.508   4.157 -33.724  1.00  0.00     0.047 C 
HETATM    3  N   UNL     1      -7.433   5.065 -34.219  1.00  0.00    -0.229 NA
HETATM    4  C   UNL     1      -8.677   4.733 -34.161  1.00  0.00     0.170 C 
HETATM    5  N   UNL     1      -9.224   3.501 -33.392  1.00  0.00    -0.319 N 
HETATM    6  C   UNL     1     -10.443   3.228 -33.725  1.00  0.00     0.011 C 
HETATM    7  C   UNL     1      -8.268   3.035 -32.363  1.00  0.00     0.165 C 
HETATM    8  S   UNL     1      -9.936   5.548 -35.024  1.00  0.00    -0.086 SA
HETATM    9  C   UNL     1     -11.035   4.114 -34.800  1.00  0.00     0.135 C 
HETATM   10  C   UNL     1      -6.884   3.077 -32.996  1.00  0.00     0.062 C 
ENDROOT
BRANCH   6  11
HETATM   11  C   UNL     1     -11.240   2.144 -33.060  1.00  0.00     0.156 C 
BRANCH  11  12
HETATM   12  C   UNL     1     -12.744   2.299 -33.162  1.00  0.00     0.223 C 
HETATM   13  N   UNL     1     -13.318   2.941 -32.095  1.00  0.00    -0.359 N 
HETATM   14  H   UNL     1     -12.714   3.181 -31.312  1.00  0.00     0.162 HD
HETATM   15  O   UNL     1     -13.379   1.848 -34.110  1.00  0.00    -0.273 OA
BRANCH  13  16
HETATM   16  C   UNL     1     -14.746   3.015 -31.768  1.00  0.00     0.150 C 
BRANCH  16  17
HETATM   17  C   UNL     1     -15.486   4.358 -31.944  1.00  0.00     0.253 C 
BRANCH  17  18
HETATM   18  N   UNL     1     -16.860   4.216 -32.566  1.00  0.00    -0.077 N 
HETATM   19  H   UNL     1     -16.707   4.201 -33.594  1.00  0.00     0.279 HD
HETATM   20  C   UNL     1     -17.588   2.954 -32.192  1.00  0.00     0.269 C 
HETATM   21  C   UNL     1     -17.714   5.426 -32.284  1.00  0.00     0.269 C 
ENDBRANCH  17  18
ENDBRANCH  16  17
ENDBRANCH  13  16
ENDBRANCH  11  12
ENDBRANCH   6  11
BRANCH   7  22
HETATM   22  C   UNL     1      -8.447   3.923 -31.111  1.00  0.00    -0.030 A 
HETATM   23  C   UNL     1      -9.606   4.710 -30.957  1.00  0.00     0.010 A 
HETATM   24  C   UNL     1      -9.699   5.690 -29.962  1.00  0.00     0.008 A 
HETATM   25  C   UNL     1      -8.651   5.899 -29.063  1.00  0.00    -0.055 A 
HETATM   26  C   UNL     1      -7.544   5.048 -29.134  1.00  0.00     0.008 A 
HETATM   27  C   UNL     1      -7.446   4.075 -30.135  1.00  0.00     0.010 A 
BRANCH  25  28
HETATM   28  C   UNL     1      -8.726   7.033 -28.052  1.00  0.00     0.010 C 
HETATM   29  C   UNL     1      -7.485   7.924 -28.102  1.00  0.00     0.015 C 
HETATM   30  C   UNL     1     -10.002   7.860 -28.236  1.00  0.00     0.015 C 
ENDBRANCH  25  28
ENDBRANCH   7  22
BRANCH  10  31
HETATM   31  C   UNL     1      -6.135   1.782 -32.863  1.00  0.00     0.256 C 
HETATM   32  N   UNL     1      -6.154   1.003 -33.999  1.00  0.00    -0.323 N 
HETATM   33  H   UNL     1      -6.355   1.432 -34.888  1.00  0.00     0.169 HD
HETATM   34  O   UNL     1      -5.788   1.434 -31.742  1.00  0.00    -0.267 OA
BRANCH  32  35
HETATM   35  C   UNL     1      -6.027  -0.399 -34.095  1.00  0.00     0.035 A 
HETATM   36  C   UNL     1      -7.062  -1.256 -34.464  1.00  0.00     0.029 A 
HETATM   37  C   UNL     1      -6.808  -2.619 -34.656  1.00  0.00     0.002 A 
HETATM   38  C   UNL     1      -5.526  -3.134 -34.465  1.00  0.00     0.000 A 
HETATM   39  C   UNL     1      -4.494  -2.289 -34.071  1.00  0.00     0.002 A 
HETATM   40  C   UNL     1      -4.743  -0.928 -33.892  1.00  0.00     0.029 A 
ENDBRANCH  32  35
ENDBRANCH  10  31
TORSDOF 9
ENDMDL
