MODEL 1
REMARK VINA RESULT:      -8.7      0.000      0.000
REMARK  9 active torsions:
REMARK  status: ('A' for Active; 'I' for Inactive)
REMARK    1  A    between atoms: C_2  and  C_3 
REMARK    2  A    between atoms: C_3  and  C_4 
REMARK    3  A    between atoms: C_3  and  C_23 
REMARK    4  A    between atoms: C_4  and  C_5 
REMARK    5  A    between atoms: C_4  and  C_17 
REMARK    6  A    between atoms: C_15  and  O_16 
REMARK    7  A    between atoms: C_23  and  N_24 
REMARK    8  A    between atoms: N_31  and  N_32 
REMARK       I    between atoms: N_32  and  C_33 
REMARK    9  A    between atoms: C_33  and  C_34 
ROOT
HETATM    1  C   UNL     1      -4.684   7.541 -27.140  1.00  0.00     0.213 C 
HETATM    2  C   UNL     1      -3.239   7.726 -27.573  1.00  0.00    -0.011 C 
HETATM    3  N   UNL     1      -2.039   7.879 -27.932  1.00  0.00    -0.101 N 
ENDROOT
BRANCH   1   4
HETATM    4  C   UNL     1      -5.170   6.162 -27.536  1.00  0.00     0.249 C 
HETATM    5  N   UNL     1      -5.645   6.030 -28.835  1.00  0.00    -0.246 N 
HETATM    6  H   UNL     1      -5.753   6.831 -29.454  1.00  0.00     0.192 HD
HETATM    7  O   UNL     1      -5.216   5.233 -26.724  1.00  0.00    -0.271 OA
BRANCH   5   8
HETATM    8  N   UNL     1      -5.864   4.781 -29.319  1.00  0.00    -0.181 NA
HETATM    9  C   UNL     1      -6.805   4.591 -30.192  1.00  0.00     0.035 C 
HETATM   10  C   UNL     1      -7.721   5.674 -30.716  1.00  0.00     0.068 C 
BRANCH   9  11
HETATM   11  C   UNL     1      -6.929   3.193 -30.796  1.00  0.00     0.074 C 
BRANCH  11  12
HETATM   12  C   UNL     1      -6.275   3.010 -32.204  1.00  0.00     0.072 C 
BRANCH  12  13
HETATM   13  C   UNL     1      -5.136   3.955 -32.602  1.00  0.00     0.061 C 
HETATM   14  C   UNL     1      -5.463   4.880 -33.724  1.00  0.00     0.298 C 
HETATM   15  O   UNL     1      -6.630   4.985 -34.112  1.00  0.00    -0.259 OA
HETATM   16  O   UNL     1      -4.472   5.681 -34.250  1.00  0.00    -0.274 OA
HETATM   17  C   UNL     1      -3.200   5.734 -33.662  1.00  0.00     0.092 A 
HETATM   18  C   UNL     1      -2.894   4.958 -32.550  1.00  0.00     0.032 A 
HETATM   19  C   UNL     1      -2.273   6.604 -34.238  1.00  0.00     0.038 A 
HETATM   20  C   UNL     1      -1.603   5.055 -32.016  1.00  0.00     0.017 A 
HETATM   21  C   UNL     1      -3.921   4.051 -32.034  1.00  0.00     0.091 C 
HETATM   22  C   UNL     1      -0.662   5.923 -32.580  1.00  0.00     0.001 A 
HETATM   23  C   UNL     1      -0.997   6.698 -33.689  1.00  0.00     0.003 A 
BRANCH  21  24
HETATM   24  O   UNL     1      -3.579   3.321 -30.922  1.00  0.00    -0.359 OA
HETATM   25  H   UNL     1      -2.775   3.743 -30.540  1.00  0.00     0.218 HD
ENDBRANCH  21  24
ENDBRANCH  12  13
BRANCH  12  26
HETATM   26  C   UNL     1      -6.086   1.559 -32.663  1.00  0.00    -0.049 A 
HETATM   27  C   UNL     1      -6.412   1.216 -33.991  1.00  0.00     0.008 A 
HETATM   28  C   UNL     1      -6.267  -0.092 -34.460  1.00  0.00     0.001 A 
HETATM   29  C   UNL     1      -5.785  -1.083 -33.614  1.00  0.00     0.000 A 
HETATM   30  C   UNL     1      -5.436  -0.764 -32.306  1.00  0.00     0.001 A 
HETATM   31  C   UNL     1      -5.579   0.546 -31.838  1.00  0.00     0.008 A 
ENDBRANCH  12  26
ENDBRANCH  11  12
BRANCH  11  32
HETATM   32  C   UNL     1      -8.434   2.852 -30.728  1.00  0.00     0.246 C 
BRANCH  32  33
HETATM   33  N   UNL     1      -8.976   2.085 -31.926  1.00  0.00    -0.070 N 
HETATM   34  H   UNL     1      -8.260   2.134 -32.683  1.00  0.00     0.279 HD
HETATM   35  C   UNL     1      -9.291   0.639 -31.633  1.00  0.00     0.235 C 
HETATM   36  C   UNL     1      -9.799  -0.063 -32.883  1.00  0.00     0.028 C 
HETATM   37  C   UNL     1     -10.992   0.656 -33.496  1.00  0.00     0.003 C 
HETATM   38  C   UNL     1     -10.654   2.114 -33.771  1.00  0.00     0.028 C 
HETATM   39  C   UNL     1     -10.172   2.818 -32.512  1.00  0.00     0.235 C 
ENDBRANCH  32  33
ENDBRANCH  11  32
ENDBRANCH   9  11
ENDBRANCH   5   8
ENDBRANCH   1   4
TORSDOF 9
ENDMDL
MODEL 2
REMARK VINA RESULT:      -8.6      2.971      5.823
REMARK  9 active torsions:
REMARK  status: ('A' for Active; 'I' for Inactive)
REMARK    1  A    between atoms: C_2  and  C_3 
REMARK    2  A    between atoms: C_3  and  C_4 
REMARK    3  A    between atoms: C_3  and  C_23 
REMARK    4  A    between atoms: C_4  and  C_5 
REMARK    5  A    between atoms: C_4  and  C_17 
REMARK    6  A    between atoms: C_15  and  O_16 
REMARK    7  A    between atoms: C_23  and  N_24 
REMARK    8  A    between atoms: N_31  and  N_32 
REMARK       I    between atoms: N_32  and  C_33 
REMARK    9  A    between atoms: C_33  and  C_34 
ROOT
HETATM    1  C   UNL     1      -4.090  -2.109 -33.159  1.00  0.00     0.213 C 
HETATM    2  C   UNL     1      -4.830  -2.820 -34.281  1.00  0.00    -0.011 C 
HETATM    3  N   UNL     1      -5.445  -3.409 -35.211  1.00  0.00    -0.101 N 
ENDROOT
BRANCH   1   4
HETATM    4  C   UNL     1      -4.738  -0.768 -32.880  1.00  0.00     0.249 C 
HETATM    5  N   UNL     1      -6.127  -0.737 -32.932  1.00  0.00    -0.246 N 
HETATM    6  H   UNL     1      -6.673  -1.541 -33.236  1.00  0.00     0.192 HD
HETATM    7  O   UNL     1      -4.066   0.251 -32.697  1.00  0.00    -0.271 OA
BRANCH   5   8
HETATM    8  N   UNL     1      -6.766   0.363 -32.459  1.00  0.00    -0.181 NA
HETATM    9  C   UNL     1      -7.288   1.206 -33.295  1.00  0.00     0.035 C 
HETATM   10  C   UNL     1      -7.223   1.074 -34.800  1.00  0.00     0.068 C 
BRANCH   9  11
HETATM   11  C   UNL     1      -8.102   2.359 -32.711  1.00  0.00     0.074 C 
BRANCH  11  12
HETATM   12  C   UNL     1      -7.313   3.337 -31.782  1.00  0.00     0.072 C 
BRANCH  12  13
HETATM   13  C   UNL     1      -5.871   3.691 -32.161  1.00  0.00     0.061 C 
HETATM   14  C   UNL     1      -4.850   3.283 -31.155  1.00  0.00     0.298 C 
HETATM   15  O   UNL     1      -5.167   2.536 -30.226  1.00  0.00    -0.259 OA
HETATM   16  O   UNL     1      -3.537   3.668 -31.332  1.00  0.00    -0.274 OA
HETATM   17  C   UNL     1      -3.128   4.321 -32.503  1.00  0.00     0.092 A 
HETATM   18  C   UNL     1      -4.041   4.625 -33.506  1.00  0.00     0.032 A 
HETATM   19  C   UNL     1      -1.773   4.635 -32.612  1.00  0.00     0.038 A 
HETATM   20  C   UNL     1      -3.567   5.283 -34.648  1.00  0.00     0.017 A 
HETATM   21  C   UNL     1      -5.449   4.284 -33.290  1.00  0.00     0.091 C 
HETATM   22  C   UNL     1      -2.211   5.605 -34.774  1.00  0.00     0.001 A 
HETATM   23  C   UNL     1      -1.315   5.280 -33.758  1.00  0.00     0.003 A 
BRANCH  21  24
HETATM   24  O   UNL     1      -6.308   4.586 -34.319  1.00  0.00    -0.359 OA
HETATM   25  H   UNL     1      -5.995   5.434 -34.713  1.00  0.00     0.218 HD
ENDBRANCH  21  24
ENDBRANCH  12  13
BRANCH  12  26
HETATM   26  C   UNL     1      -8.125   4.505 -31.207  1.00  0.00    -0.049 A 
HETATM   27  C   UNL     1      -8.887   5.303 -32.085  1.00  0.00     0.008 A 
HETATM   28  C   UNL     1      -9.638   6.384 -31.616  1.00  0.00     0.001 A 
HETATM   29  C   UNL     1      -9.650   6.685 -30.260  1.00  0.00     0.000 A 
HETATM   30  C   UNL     1      -8.924   5.897 -29.372  1.00  0.00     0.001 A 
HETATM   31  C   UNL     1      -8.174   4.814 -29.841  1.00  0.00     0.008 A 
ENDBRANCH  12  26
ENDBRANCH  11  12
BRANCH  11  32
HETATM   32  C   UNL     1      -9.337   1.697 -32.062  1.00  0.00     0.246 C 
BRANCH  32  33
HETATM   33  N   UNL     1     -10.638   1.858 -32.837  1.00  0.00    -0.070 N 
HETATM   34  H   UNL     1     -11.362   2.206 -32.172  1.00  0.00     0.279 HD
HETATM   35  C   UNL     1     -10.539   2.810 -34.003  1.00  0.00     0.235 C 
HETATM   36  C   UNL     1     -11.881   2.939 -34.707  1.00  0.00     0.028 C 
HETATM   37  C   UNL     1     -12.432   1.586 -35.134  1.00  0.00     0.003 C 
HETATM   38  C   UNL     1     -12.512   0.641 -33.945  1.00  0.00     0.028 C 
HETATM   39  C   UNL     1     -11.161   0.495 -33.260  1.00  0.00     0.235 C 
ENDBRANCH  32  33
ENDBRANCH  11  32
ENDBRANCH   9  11
ENDBRANCH   5   8
ENDBRANCH   1   4
TORSDOF 9
ENDMDL
MODEL 3
REMARK VINA RESULT:      -8.5      2.315      7.193
REMARK  9 active torsions:
REMARK  status: ('A' for Active; 'I' for Inactive)
REMARK    1  A    between atoms: C_2  and  C_3 
REMARK    2  A    between atoms: C_3  and  C_4 
REMARK    3  A    between atoms: C_3  and  C_23 
REMARK    4  A    between atoms: C_4  and  C_5 
REMARK    5  A    between atoms: C_4  and  C_17 
REMARK    6  A    between atoms: C_15  and  O_16 
REMARK    7  A    between atoms: C_23  and  N_24 
REMARK    8  A    between atoms: N_31  and  N_32 
REMARK       I    between atoms: N_32  and  C_33 
REMARK    9  A    between atoms: C_33  and  C_34 
ROOT
HETATM    1  C   UNL     1     -10.514   0.207 -32.981  1.00  0.00     0.213 C 
HETATM    2  C   UNL     1     -11.841   0.600 -33.609  1.00  0.00    -0.011 C 
HETATM    3  N   UNL     1     -12.943   0.926 -34.130  1.00  0.00    -0.101 N 
ENDROOT
BRANCH   1   4
HETATM    4  C   UNL     1      -9.562   1.385 -33.004  1.00  0.00     0.249 C 
HETATM    5  N   UNL     1      -8.927   1.683 -31.804  1.00  0.00    -0.246 N 
HETATM    6  H   UNL     1      -9.160   1.203 -30.937  1.00  0.00     0.192 HD
HETATM    7  O   UNL     1      -9.423   2.086 -34.011  1.00  0.00    -0.271 OA
BRANCH   5   8
HETATM    8  N   UNL     1      -7.893   2.562 -31.821  1.00  0.00    -0.181 NA
HETATM    9  C   UNL     1      -6.864   2.353 -31.060  1.00  0.00     0.035 C 
HETATM   10  C   UNL     1      -6.724   1.185 -30.109  1.00  0.00     0.068 C 
BRANCH   9  11
HETATM   11  C   UNL     1      -5.676   3.302 -31.209  1.00  0.00     0.074 C 
BRANCH  11  12
HETATM   12  C   UNL     1      -4.457   2.733 -32.005  1.00  0.00     0.072 C 
BRANCH  12  13
HETATM   13  C   UNL     1      -4.513   1.274 -32.470  1.00  0.00     0.061 C 
HETATM   14  C   UNL     1      -3.516   0.378 -31.816  1.00  0.00     0.298 C 
HETATM   15  O   UNL     1      -2.880   0.779 -30.839  1.00  0.00    -0.259 OA
HETATM   16  O   UNL     1      -3.390  -0.924 -32.253  1.00  0.00    -0.274 OA
HETATM   17  C   UNL     1      -4.270  -1.453 -33.208  1.00  0.00     0.092 A 
HETATM   18  C   UNL     1      -5.276  -0.670 -33.763  1.00  0.00     0.032 A 
HETATM   19  C   UNL     1      -4.092  -2.791 -33.560  1.00  0.00     0.038 A 
HETATM   20  C   UNL     1      -6.117  -1.259 -34.716  1.00  0.00     0.017 A 
HETATM   21  C   UNL     1      -5.367   0.734 -33.356  1.00  0.00     0.091 C 
HETATM   22  C   UNL     1      -5.953  -2.600 -35.079  1.00  0.00     0.001 A 
HETATM   23  C   UNL     1      -4.942  -3.366 -34.501  1.00  0.00     0.003 A 
BRANCH  21  24
HETATM   24  O   UNL     1      -6.390   1.460 -33.915  1.00  0.00    -0.359 OA
HETATM   25  H   UNL     1      -6.872   1.893 -33.173  1.00  0.00     0.218 HD
ENDBRANCH  21  24
ENDBRANCH  12  13
BRANCH  12  26
HETATM   26  C   UNL     1      -3.814   3.697 -33.010  1.00  0.00    -0.049 A 
HETATM   27  C   UNL     1      -4.639   4.366 -33.937  1.00  0.00     0.008 A 
HETATM   28  C   UNL     1      -4.105   5.248 -34.879  1.00  0.00     0.001 A 
HETATM   29  C   UNL     1      -2.737   5.487 -34.910  1.00  0.00     0.000 A 
HETATM   30  C   UNL     1      -1.906   4.855 -33.990  1.00  0.00     0.001 A 
HETATM   31  C   UNL     1      -2.441   3.974 -33.046  1.00  0.00     0.008 A 
ENDBRANCH  12  26
ENDBRANCH  11  12
BRANCH  11  32
HETATM   32  C   UNL     1      -5.354   3.778 -29.776  1.00  0.00     0.246 C 
BRANCH  32  33
HETATM   33  N   UNL     1      -5.830   5.185 -29.442  1.00  0.00    -0.070 N 
HETATM   34  H   UNL     1      -5.145   5.601 -28.775  1.00  0.00     0.279 HD
HETATM   35  C   UNL     1      -5.962   6.086 -30.644  1.00  0.00     0.235 C 
HETATM   36  C   UNL     1      -6.414   7.477 -30.226  1.00  0.00     0.028 C 
HETATM   37  C   UNL     1      -7.699   7.438 -29.413  1.00  0.00     0.003 C 
HETATM   38  C   UNL     1      -7.546   6.515 -28.213  1.00  0.00     0.028 C 
HETATM   39  C   UNL     1      -7.120   5.118 -28.639  1.00  0.00     0.235 C 
ENDBRANCH  32  33
ENDBRANCH  11  32
ENDBRANCH   9  11
ENDBRANCH   5   8
ENDBRANCH   1   4
TORSDOF 9
ENDMDL
MODEL 4
REMARK VINA RESULT:      -8.2      1.917      7.227
REMARK  9 active torsions:
REMARK  status: ('A' for Active; 'I' for Inactive)
REMARK    1  A    between atoms: C_2  and  C_3 
REMARK    2  A    between atoms: C_3  and  C_4 
REMARK    3  A    between atoms: C_3  and  C_23 
REMARK    4  A    between atoms: C_4  and  C_5 
REMARK    5  A    between atoms: C_4  and  C_17 
REMARK    6  A    between atoms: C_15  and  O_16 
REMARK    7  A    between atoms: C_23  and  N_24 
REMARK    8  A    between atoms: N_31  and  N_32 
REMARK       I    between atoms: N_32  and  C_33 
REMARK    9  A    between atoms: C_33  and  C_34 
ROOT
HETATM    1  C   UNL     1     -10.934   3.095 -32.944  1.00  0.00     0.213 C 
HETATM    2  C   UNL     1     -10.675   1.607 -33.113  1.00  0.00    -0.011 C 
HETATM    3  N   UNL     1     -10.460   0.372 -33.254  1.00  0.00    -0.101 N 
ENDROOT
BRANCH   1   4
HETATM    4  C   UNL     1      -9.641   3.868 -33.110  1.00  0.00     0.249 C 
HETATM    5  N   UNL     1      -9.159   4.504 -31.972  1.00  0.00    -0.246 N 
HETATM    6  H   UNL     1      -9.690   4.534 -31.104  1.00  0.00     0.192 HD
HETATM    7  O   UNL     1      -9.096   3.989 -34.210  1.00  0.00    -0.271 OA
BRANCH   5   8
HETATM    8  N   UNL     1      -7.897   5.003 -31.998  1.00  0.00    -0.181 NA
HETATM    9  C   UNL     1      -7.090   4.747 -31.015  1.00  0.00     0.035 C 
HETATM   10  C   UNL     1      -7.455   3.933 -29.794  1.00  0.00     0.068 C 
BRANCH   9  11
HETATM   11  C   UNL     1      -5.645   5.225 -31.151  1.00  0.00     0.074 C 
BRANCH  11  12
HETATM   12  C   UNL     1      -4.641   4.174 -31.726  1.00  0.00     0.072 C 
BRANCH  12  13
HETATM   13  C   UNL     1      -5.202   2.847 -32.250  1.00  0.00     0.061 C 
HETATM   14  C   UNL     1      -4.957   1.678 -31.359  1.00  0.00     0.298 C 
HETATM   15  O   UNL     1      -4.533   1.856 -30.215  1.00  0.00    -0.259 OA
HETATM   16  O   UNL     1      -5.303   0.415 -31.793  1.00  0.00    -0.274 OA
HETATM   17  C   UNL     1      -5.996   0.230 -32.997  1.00  0.00     0.092 A 
HETATM   18  C   UNL     1      -6.329   1.314 -33.802  1.00  0.00     0.032 A 
HETATM   19  C   UNL     1      -6.340  -1.079 -33.336  1.00  0.00     0.038 A 
HETATM   20  C   UNL     1      -7.017   1.059 -34.996  1.00  0.00     0.017 A 
HETATM   21  C   UNL     1      -5.899   2.649 -33.382  1.00  0.00     0.091 C 
HETATM   22  C   UNL     1      -7.370  -0.248 -35.349  1.00  0.00     0.001 A 
HETATM   23  C   UNL     1      -7.033  -1.316 -34.519  1.00  0.00     0.003 A 
BRANCH  21  24
HETATM   24  O   UNL     1      -6.270   3.689 -34.199  1.00  0.00    -0.359 OA
HETATM   25  H   UNL     1      -5.444   4.166 -34.447  1.00  0.00     0.218 HD
ENDBRANCH  21  24
ENDBRANCH  12  13
BRANCH  12  26
HETATM   26  C   UNL     1      -3.484   4.747 -32.555  1.00  0.00    -0.049 A 
HETATM   27  C   UNL     1      -3.771   5.677 -33.574  1.00  0.00     0.008 A 
HETATM   28  C   UNL     1      -2.756   6.224 -34.363  1.00  0.00     0.001 A 
HETATM   29  C   UNL     1      -1.433   5.860 -34.146  1.00  0.00     0.000 A 
HETATM   30  C   UNL     1      -1.125   4.961 -33.130  1.00  0.00     0.001 A 
HETATM   31  C   UNL     1      -2.140   4.415 -32.339  1.00  0.00     0.008 A 
ENDBRANCH  12  26
ENDBRANCH  11  12
BRANCH  11  32
HETATM   32  C   UNL     1      -5.271   5.792 -29.764  1.00  0.00     0.246 C 
BRANCH  32  33
HETATM   33  N   UNL     1      -4.496   7.102 -29.791  1.00  0.00    -0.070 N 
HETATM   34  H   UNL     1      -4.799   7.666 -28.967  1.00  0.00     0.279 HD
HETATM   35  C   UNL     1      -2.999   6.926 -29.746  1.00  0.00     0.235 C 
HETATM   36  C   UNL     1      -2.299   8.276 -29.748  1.00  0.00     0.028 C 
HETATM   37  C   UNL     1      -2.725   9.138 -30.927  1.00  0.00     0.003 C 
HETATM   38  C   UNL     1      -4.239   9.291 -30.957  1.00  0.00     0.028 C 
HETATM   39  C   UNL     1      -4.934   7.938 -30.982  1.00  0.00     0.235 C 
ENDBRANCH  32  33
ENDBRANCH  11  32
ENDBRANCH   9  11
ENDBRANCH   5   8
ENDBRANCH   1   4
TORSDOF 9
ENDMDL
MODEL 5
REMARK VINA RESULT:      -8.2      3.220      6.864
REMARK  9 active torsions:
REMARK  status: ('A' for Active; 'I' for Inactive)
REMARK    1  A    between atoms: C_2  and  C_3 
REMARK    2  A    between atoms: C_3  and  C_4 
REMARK    3  A    between atoms: C_3  and  C_23 
REMARK    4  A    between atoms: C_4  and  C_5 
REMARK    5  A    between atoms: C_4  and  C_17 
REMARK    6  A    between atoms: C_15  and  O_16 
REMARK    7  A    between atoms: C_23  and  N_24 
REMARK    8  A    between atoms: N_31  and  N_32 
REMARK       I    between atoms: N_32  and  C_33 
REMARK    9  A    between atoms: C_33  and  C_34 
ROOT
HETATM    1  C   UNL     1     -12.491   1.106 -34.241  1.00  0.00     0.213 C 
HETATM    2  C   UNL     1     -13.501   1.806 -33.346  1.00  0.00    -0.011 C 
HETATM    3  N   UNL     1     -14.340   2.385 -32.603  1.00  0.00    -0.101 N 
ENDROOT
BRANCH   1   4
HETATM    4  C   UNL     1     -11.149   1.805 -34.150  1.00  0.00     0.249 C 
HETATM    5  N   UNL     1     -10.077   1.018 -33.744  1.00  0.00    -0.246 N 
HETATM    6  H   UNL     1     -10.200   0.057 -33.433  1.00  0.00     0.192 HD
HETATM    7  O   UNL     1     -11.035   3.018 -34.346  1.00  0.00    -0.271 OA
BRANCH   5   8
HETATM    8  N   UNL     1      -8.823   1.520 -33.876  1.00  0.00    -0.181 NA
HETATM    9  C   UNL     1      -8.034   1.544 -32.847  1.00  0.00     0.035 C 
HETATM   10  C   UNL     1      -8.413   1.064 -31.463  1.00  0.00     0.068 C 
BRANCH   9  11
HETATM   11  C   UNL     1      -6.594   2.002 -33.076  1.00  0.00     0.074 C 
BRANCH  11  12
HETATM   12  C   UNL     1      -6.400   3.541 -33.261  1.00  0.00     0.072 C 
BRANCH  12  13
HETATM   13  C   UNL     1      -7.211   4.486 -32.367  1.00  0.00     0.061 C 
HETATM   14  C   UNL     1      -8.165   5.364 -33.100  1.00  0.00     0.298 C 
HETATM   15  O   UNL     1      -8.401   5.153 -34.293  1.00  0.00    -0.259 OA
HETATM   16  O   UNL     1      -8.850   6.343 -32.410  1.00  0.00    -0.274 OA
HETATM   17  C   UNL     1      -8.760   6.438 -31.014  1.00  0.00     0.092 A 
HETATM   18  C   UNL     1      -7.954   5.566 -30.290  1.00  0.00     0.032 A 
HETATM   19  C   UNL     1      -9.518   7.433 -30.398  1.00  0.00     0.038 A 
HETATM   20  C   UNL     1      -7.905   5.720 -28.899  1.00  0.00     0.017 A 
HETATM   21  C   UNL     1      -7.169   4.573 -31.026  1.00  0.00     0.091 C 
HETATM   22  C   UNL     1      -8.661   6.712 -28.264  1.00  0.00     0.001 A 
HETATM   23  C   UNL     1      -9.468   7.566 -29.013  1.00  0.00     0.003 A 
BRANCH  21  24
HETATM   24  O   UNL     1      -6.406   3.722 -30.265  1.00  0.00    -0.359 OA
HETATM   25  H   UNL     1      -5.557   4.188 -30.079  1.00  0.00     0.218 HD
ENDBRANCH  21  24
ENDBRANCH  12  13
BRANCH  12  26
HETATM   26  C   UNL     1      -4.961   4.000 -33.531  1.00  0.00    -0.049 A 
HETATM   27  C   UNL     1      -4.716   4.874 -34.609  1.00  0.00     0.008 A 
HETATM   28  C   UNL     1      -3.424   5.317 -34.905  1.00  0.00     0.001 A 
HETATM   29  C   UNL     1      -2.352   4.903 -34.125  1.00  0.00     0.000 A 
HETATM   30  C   UNL     1      -2.574   4.059 -33.042  1.00  0.00     0.001 A 
HETATM   31  C   UNL     1      -3.867   3.617 -32.744  1.00  0.00     0.008 A 
ENDBRANCH  12  26
ENDBRANCH  11  12
BRANCH  11  32
HETATM   32  C   UNL     1      -6.073   1.134 -34.243  1.00  0.00     0.246 C 
BRANCH  32  33
HETATM   33  N   UNL     1      -5.987  -0.357 -33.949  1.00  0.00    -0.070 N 
HETATM   34  H   UNL     1      -6.418  -0.521 -33.014  1.00  0.00     0.279 HD
HETATM   35  C   UNL     1      -6.682  -1.221 -34.972  1.00  0.00     0.235 C 
HETATM   36  C   UNL     1      -6.577  -2.691 -34.594  1.00  0.00     0.028 C 
HETATM   37  C   UNL     1      -5.134  -3.123 -34.386  1.00  0.00     0.003 C 
HETATM   38  C   UNL     1      -4.450  -2.231 -33.360  1.00  0.00     0.028 C 
HETATM   39  C   UNL     1      -4.536  -0.765 -33.756  1.00  0.00     0.235 C 
ENDBRANCH  32  33
ENDBRANCH  11  32
ENDBRANCH   9  11
ENDBRANCH   5   8
ENDBRANCH   1   4
TORSDOF 9
ENDMDL
MODEL 6
REMARK VINA RESULT:      -8.1      1.755      2.140
REMARK  9 active torsions:
REMARK  status: ('A' for Active; 'I' for Inactive)
REMARK    1  A    between atoms: C_2  and  C_3 
REMARK    2  A    between atoms: C_3  and  C_4 
REMARK    3  A    between atoms: C_3  and  C_23 
REMARK    4  A    between atoms: C_4  and  C_5 
REMARK    5  A    between atoms: C_4  and  C_17 
REMARK    6  A    between atoms: C_15  and  O_16 
REMARK    7  A    between atoms: C_23  and  N_24 
REMARK    8  A    between atoms: N_31  and  N_32 
REMARK       I    between atoms: N_32  and  C_33 
REMARK    9  A    between atoms: C_33  and  C_34 
ROOT
HETATM    1  C   UNL     1      -7.284   8.828 -30.199  1.00  0.00     0.213 C 
HETATM    2  C   UNL     1      -5.962   9.353 -29.663  1.00  0.00    -0.011 C 
HETATM    3  N   UNL     1      -4.865   9.787 -29.217  1.00  0.00    -0.101 N 
ENDROOT
BRANCH   1   4
HETATM    4  C   UNL     1      -7.080   7.473 -30.845  1.00  0.00     0.249 C 
HETATM    5  N   UNL     1      -7.778   6.414 -30.277  1.00  0.00    -0.246 N 
HETATM    6  H   UNL     1      -8.318   6.521 -29.420  1.00  0.00     0.192 HD
HETATM    7  O   UNL     1      -6.277   7.309 -31.768  1.00  0.00    -0.271 OA
BRANCH   5   8
HETATM    8  N   UNL     1      -7.825   5.237 -30.951  1.00  0.00    -0.181 NA
HETATM    9  C   UNL     1      -7.177   4.211 -30.491  1.00  0.00     0.035 C 
HETATM   10  C   UNL     1      -6.331   4.224 -29.237  1.00  0.00     0.068 C 
BRANCH   9  11
HETATM   11  C   UNL     1      -7.363   2.880 -31.216  1.00  0.00     0.074 C 
BRANCH  11  12
HETATM   12  C   UNL     1      -6.676   2.776 -32.616  1.00  0.00     0.072 C 
BRANCH  12  13
HETATM   13  C   UNL     1      -5.479   3.689 -32.905  1.00  0.00     0.061 C 
HETATM   14  C   UNL     1      -5.757   4.782 -33.879  1.00  0.00     0.298 C 
HETATM   15  O   UNL     1      -6.919   5.018 -34.221  1.00  0.00    -0.259 OA
HETATM   16  O   UNL     1      -4.720   5.581 -34.312  1.00  0.00    -0.274 OA
HETATM   17  C   UNL     1      -3.439   5.466 -33.752  1.00  0.00     0.092 A 
HETATM   18  C   UNL     1      -3.173   4.522 -32.767  1.00  0.00     0.032 A 
HETATM   19  C   UNL     1      -2.462   6.343 -34.223  1.00  0.00     0.038 A 
HETATM   20  C   UNL     1      -1.871   4.456 -32.255  1.00  0.00     0.017 A 
HETATM   21  C   UNL     1      -4.254   3.622 -32.358  1.00  0.00     0.091 C 
HETATM   22  C   UNL     1      -0.879   5.329 -32.715  1.00  0.00     0.001 A 
HETATM   23  C   UNL     1      -1.175   6.273 -33.697  1.00  0.00     0.003 A 
BRANCH  21  24
HETATM   24  O   UNL     1      -3.948   2.722 -31.367  1.00  0.00    -0.359 OA
HETATM   25  H   UNL     1      -3.292   2.091 -31.747  1.00  0.00     0.218 HD
ENDBRANCH  21  24
ENDBRANCH  12  13
BRANCH  12  26
HETATM   26  C   UNL     1      -6.546   1.358 -33.186  1.00  0.00    -0.049 A 
HETATM   27  C   UNL     1      -6.090   0.323 -32.345  1.00  0.00     0.008 A 
HETATM   28  C   UNL     1      -5.946  -0.985 -32.815  1.00  0.00     0.001 A 
HETATM   29  C   UNL     1      -6.263  -1.288 -34.133  1.00  0.00     0.000 A 
HETATM   30  C   UNL     1      -6.736  -0.287 -34.975  1.00  0.00     0.001 A 
HETATM   31  C   UNL     1      -6.883   1.021 -34.505  1.00  0.00     0.008 A 
ENDBRANCH  12  26
ENDBRANCH  11  12
BRANCH  11  32
HETATM   32  C   UNL     1      -8.887   2.627 -31.218  1.00  0.00     0.246 C 
BRANCH  32  33
HETATM   33  N   UNL     1      -9.548   2.682 -32.588  1.00  0.00    -0.070 N 
HETATM   34  H   UNL     1      -8.810   2.917 -33.286  1.00  0.00     0.279 HD
HETATM   35  C   UNL     1     -10.221   1.394 -32.993  1.00  0.00     0.235 C 
HETATM   36  C   UNL     1     -10.830   1.520 -34.381  1.00  0.00     0.028 C 
HETATM   37  C   UNL     1     -11.782   2.703 -34.480  1.00  0.00     0.003 C 
HETATM   38  C   UNL     1     -11.085   3.987 -34.056  1.00  0.00     0.028 C 
HETATM   39  C   UNL     1     -10.500   3.865 -32.657  1.00  0.00     0.235 C 
ENDBRANCH  32  33
ENDBRANCH  11  32
ENDBRANCH   9  11
ENDBRANCH   5   8
ENDBRANCH   1   4
TORSDOF 9
ENDMDL
MODEL 7
REMARK VINA RESULT:      -8.0      3.150      6.451
REMARK  9 active torsions:
REMARK  status: ('A' for Active; 'I' for Inactive)
REMARK    1  A    between atoms: C_2  and  C_3 
REMARK    2  A    between atoms: C_3  and  C_4 
REMARK    3  A    between atoms: C_3  and  C_23 
REMARK    4  A    between atoms: C_4  and  C_5 
REMARK    5  A    between atoms: C_4  and  C_17 
REMARK    6  A    between atoms: C_15  and  O_16 
REMARK    7  A    between atoms: C_23  and  N_24 
REMARK    8  A    between atoms: N_31  and  N_32 
REMARK       I    between atoms: N_32  and  C_33 
REMARK    9  A    between atoms: C_33  and  C_34 
ROOT
HETATM    1  C   UNL     1     -13.113   0.449 -33.814  1.00  0.00     0.213 C 
HETATM    2  C   UNL     1     -14.118   1.387 -33.165  1.00  0.00    -0.011 C 
HETATM    3  N   UNL     1     -14.952   2.165 -32.625  1.00  0.00    -0.101 N 
ENDROOT
BRANCH   1   4
HETATM    4  C   UNL     1     -11.757   1.120 -33.895  1.00  0.00     0.249 C 
HETATM    5  N   UNL     1     -10.825   0.732 -32.940  1.00  0.00    -0.246 N 
HETATM    6  H   UNL     1     -11.066   0.110 -32.172  1.00  0.00     0.192 HD
HETATM    7  O   UNL     1     -11.525   2.016 -34.712  1.00  0.00    -0.271 OA
BRANCH   5   8
HETATM    8  N   UNL     1      -9.533   1.113 -33.107  1.00  0.00    -0.181 NA
HETATM    9  C   UNL     1      -8.966   1.861 -32.211  1.00  0.00     0.035 C 
HETATM   10  C   UNL     1      -9.653   2.377 -30.966  1.00  0.00     0.068 C 
BRANCH   9  11
HETATM   11  C   UNL     1      -7.478   2.157 -32.383  1.00  0.00     0.074 C 
BRANCH  11  12
HETATM   12  C   UNL     1      -7.070   3.658 -32.236  1.00  0.00     0.072 C 
BRANCH  12  13
HETATM   13  C   UNL     1      -5.594   4.029 -32.417  1.00  0.00     0.061 C 
HETATM   14  C   UNL     1      -4.773   3.921 -31.177  1.00  0.00     0.298 C 
HETATM   15  O   UNL     1      -5.240   3.366 -30.179  1.00  0.00    -0.259 OA
HETATM   16  O   UNL     1      -3.464   4.354 -31.193  1.00  0.00    -0.274 OA
HETATM   17  C   UNL     1      -2.858   4.772 -32.387  1.00  0.00     0.092 A 
HETATM   18  C   UNL     1      -3.569   4.788 -33.581  1.00  0.00     0.032 A 
HETATM   19  C   UNL     1      -1.518   5.155 -32.315  1.00  0.00     0.038 A 
HETATM   20  C   UNL     1      -2.905   5.222 -34.735  1.00  0.00     0.017 A 
HETATM   21  C   UNL     1      -4.980   4.398 -33.554  1.00  0.00     0.091 C 
HETATM   22  C   UNL     1      -1.561   5.609 -34.681  1.00  0.00     0.001 A 
HETATM   23  C   UNL     1      -0.868   5.574 -33.473  1.00  0.00     0.003 A 
BRANCH  21  24
HETATM   24  O   UNL     1      -5.634   4.410 -34.762  1.00  0.00    -0.359 OA
HETATM   25  H   UNL     1      -5.379   3.583 -35.233  1.00  0.00     0.218 HD
ENDBRANCH  21  24
ENDBRANCH  12  13
BRANCH  12  26
HETATM   26  C   UNL     1      -8.057   4.674 -32.826  1.00  0.00    -0.049 A 
HETATM   27  C   UNL     1      -8.289   5.880 -32.133  1.00  0.00     0.008 A 
HETATM   28  C   UNL     1      -9.184   6.836 -32.621  1.00  0.00     0.001 A 
HETATM   29  C   UNL     1      -9.858   6.612 -33.815  1.00  0.00     0.000 A 
HETATM   30  C   UNL     1      -9.627   5.439 -34.527  1.00  0.00     0.001 A 
HETATM   31  C   UNL     1      -8.730   4.484 -34.040  1.00  0.00     0.008 A 
ENDBRANCH  12  26
ENDBRANCH  11  12
BRANCH  11  32
HETATM   32  C   UNL     1      -7.085   1.503 -33.727  1.00  0.00     0.246 C 
BRANCH  32  33
HETATM   33  N   UNL     1      -6.628   0.055 -33.629  1.00  0.00    -0.070 N 
HETATM   34  H   UNL     1      -7.122  -0.379 -32.819  1.00  0.00     0.279 HD
HETATM   35  C   UNL     1      -6.904  -0.757 -34.870  1.00  0.00     0.235 C 
HETATM   36  C   UNL     1      -6.446  -2.196 -34.684  1.00  0.00     0.028 C 
HETATM   37  C   UNL     1      -4.983  -2.279 -34.276  1.00  0.00     0.003 C 
HETATM   38  C   UNL     1      -4.726  -1.444 -33.030  1.00  0.00     0.028 C 
HETATM   39  C   UNL     1      -5.162  -0.000 -33.230  1.00  0.00     0.235 C 
ENDBRANCH  32  33
ENDBRANCH  11  32
ENDBRANCH   9  11
ENDBRANCH   5   8
ENDBRANCH   1   4
TORSDOF 9
ENDMDL
MODEL 8
REMARK VINA RESULT:      -7.9      2.318      7.854
REMARK  9 active torsions:
REMARK  status: ('A' for Active; 'I' for Inactive)
REMARK    1  A    between atoms: C_2  and  C_3 
REMARK    2  A    between atoms: C_3  and  C_4 
REMARK    3  A    between atoms: C_3  and  C_23 
REMARK    4  A    between atoms: C_4  and  C_5 
REMARK    5  A    between atoms: C_4  and  C_17 
REMARK    6  A    between atoms: C_15  and  O_16 
REMARK    7  A    between atoms: C_23  and  N_24 
REMARK    8  A    between atoms: N_31  and  N_32 
REMARK       I    between atoms: N_32  and  C_33 
REMARK    9  A    between atoms: C_33  and  C_34 
ROOT
HETATM    1  C   UNL     1      -4.200  -1.136 -32.179  1.00  0.00     0.213 C 
HETATM    2  C   UNL     1      -5.193  -1.162 -33.329  1.00  0.00    -0.011 C 
HETATM    3  N   UNL     1      -6.018  -1.185 -34.283  1.00  0.00    -0.101 N 
ENDROOT
BRANCH   1   4
HETATM    4  C   UNL     1      -4.434   0.091 -31.320  1.00  0.00     0.249 C 
HETATM    5  N   UNL     1      -3.532   1.135 -31.487  1.00  0.00    -0.246 N 
HETATM    6  H   UNL     1      -2.706   1.046 -32.076  1.00  0.00     0.192 HD
HETATM    7  O   UNL     1      -5.326   0.124 -30.468  1.00  0.00    -0.271 OA
BRANCH   5   8
HETATM    8  N   UNL     1      -3.827   2.337 -30.931  1.00  0.00    -0.181 NA
HETATM    9  C   UNL     1      -3.598   3.424 -31.602  1.00  0.00     0.035 C 
HETATM   10  C   UNL     1      -2.989   3.465 -32.986  1.00  0.00     0.068 C 
BRANCH   9  11
HETATM   11  C   UNL     1      -4.063   4.741 -30.984  1.00  0.00     0.074 C 
BRANCH  11  12
HETATM   12  C   UNL     1      -5.537   5.150 -31.303  1.00  0.00     0.072 C 
BRANCH  12  13
HETATM   13  C   UNL     1      -6.443   4.118 -31.984  1.00  0.00     0.061 C 
HETATM   14  C   UNL     1      -6.660   4.350 -33.440  1.00  0.00     0.298 C 
HETATM   15  O   UNL     1      -5.973   5.182 -34.038  1.00  0.00    -0.259 OA
HETATM   16  O   UNL     1      -7.562   3.560 -34.123  1.00  0.00    -0.274 OA
HETATM   17  C   UNL     1      -8.176   2.464 -33.501  1.00  0.00     0.092 A 
HETATM   18  C   UNL     1      -7.915   2.161 -32.169  1.00  0.00     0.032 A 
HETATM   19  C   UNL     1      -9.042   1.698 -34.281  1.00  0.00     0.038 A 
HETATM   20  C   UNL     1      -8.567   1.055 -31.608  1.00  0.00     0.017 A 
HETATM   21  C   UNL     1      -7.016   3.040 -31.420  1.00  0.00     0.091 C 
HETATM   22  C   UNL     1      -9.438   0.275 -32.377  1.00  0.00     0.001 A 
HETATM   23  C   UNL     1      -9.674   0.595 -33.713  1.00  0.00     0.003 A 
BRANCH  21  24
HETATM   24  O   UNL     1      -6.773   2.687 -30.115  1.00  0.00    -0.359 OA
HETATM   25  H   UNL     1      -6.735   3.523 -29.595  1.00  0.00     0.218 HD
ENDBRANCH  21  24
ENDBRANCH  12  13
BRANCH  12  26
HETATM   26  C   UNL     1      -6.235   6.003 -30.237  1.00  0.00    -0.049 A 
HETATM   27  C   UNL     1      -5.690   6.050 -28.938  1.00  0.00     0.008 A 
HETATM   28  C   UNL     1      -6.289   6.805 -27.926  1.00  0.00     0.001 A 
HETATM   29  C   UNL     1      -7.440   7.536 -28.194  1.00  0.00     0.000 A 
HETATM   30  C   UNL     1      -7.982   7.523 -29.475  1.00  0.00     0.001 A 
HETATM   31  C   UNL     1      -7.381   6.770 -30.487  1.00  0.00     0.008 A 
ENDBRANCH  12  26
ENDBRANCH  11  12
BRANCH  11  32
HETATM   32  C   UNL     1      -2.996   5.781 -31.391  1.00  0.00     0.246 C 
BRANCH  32  33
HETATM   33  N   UNL     1      -1.950   6.081 -30.327  1.00  0.00    -0.070 N 
HETATM   34  H   UNL     1      -2.331   5.764 -29.410  1.00  0.00     0.279 HD
HETATM   35  C   UNL     1      -0.621   5.410 -30.571  1.00  0.00     0.235 C 
HETATM   36  C   UNL     1       0.358   5.735 -29.453  1.00  0.00     0.028 C 
HETATM   37  C   UNL     1       0.518   7.235 -29.254  1.00  0.00     0.003 C 
HETATM   38  C   UNL     1      -0.835   7.891 -29.022  1.00  0.00     0.028 C 
HETATM   39  C   UNL     1      -1.802   7.585 -30.155  1.00  0.00     0.235 C 
ENDBRANCH  32  33
ENDBRANCH  11  32
ENDBRANCH   9  11
ENDBRANCH   5   8
ENDBRANCH   1   4
TORSDOF 9
ENDMDL
MODEL 9
REMARK VINA RESULT:      -7.8     18.029     21.346
REMARK  9 active torsions:
REMARK  status: ('A' for Active; 'I' for Inactive)
REMARK    1  A    between atoms: C_2  and  C_3 
REMARK    2  A    between atoms: C_3  and  C_4 
REMARK    3  A    between atoms: C_3  and  C_23 
REMARK    4  A    between atoms: C_4  and  C_5 
REMARK    5  A    between atoms: C_4  and  C_17 
REMARK    6  A    between atoms: C_15  and  O_16 
REMARK    7  A    between atoms: C_23  and  N_24 
REMARK    8  A    between atoms: N_31  and  N_32 
REMARK       I    between atoms: N_32  and  C_33 
REMARK    9  A    between atoms: C_33  and  C_34 
ROOT
HETATM    1  C   UNL     1      -4.209 -15.676 -45.514  1.00  0.00     0.213 C 
HETATM    2  C   UNL     1      -2.943 -16.426 -45.897  1.00  0.00    -0.011 C 
HETATM    3  N   UNL     1      -1.892 -17.048 -46.216  1.00  0.00    -0.101 N 
ENDROOT
BRANCH   1   4
HETATM    4  C   UNL     1      -4.095 -15.162 -44.093  1.00  0.00     0.249 C 
HETATM    5  N   UNL     1      -5.186 -14.448 -43.612  1.00  0.00    -0.246 N 
HETATM    6  H   UNL     1      -5.973 -14.200 -44.208  1.00  0.00     0.192 HD
HETATM    7  O   UNL     1      -3.060 -15.301 -43.435  1.00  0.00    -0.271 OA
BRANCH   5   8
HETATM    8  N   UNL     1      -5.243 -14.174 -42.284  1.00  0.00    -0.181 NA
HETATM    9  C   UNL     1      -5.992 -14.902 -41.514  1.00  0.00     0.035 C 
HETATM   10  C   UNL     1      -6.852 -16.051 -41.991  1.00  0.00     0.068 C 
BRANCH   9  11
HETATM   11  C   UNL     1      -5.925 -14.633 -40.012  1.00  0.00     0.074 C 
BRANCH  11  12
HETATM   12  C   UNL     1      -7.257 -14.861 -39.228  1.00  0.00     0.072 C 
BRANCH  12  13
HETATM   13  C   UNL     1      -7.170 -15.206 -37.737  1.00  0.00     0.061 C 
HETATM   14  C   UNL     1      -7.426 -16.639 -37.418  1.00  0.00     0.298 C 
HETATM   15  O   UNL     1      -7.479 -17.471 -38.328  1.00  0.00    -0.259 OA
HETATM   16  O   UNL     1      -7.503 -17.034 -36.099  1.00  0.00    -0.274 OA
HETATM   17  C   UNL     1      -7.215 -16.138 -35.060  1.00  0.00     0.092 A 
HETATM   18  C   UNL     1      -6.874 -14.818 -35.330  1.00  0.00     0.032 A 
HETATM   19  C   UNL     1      -7.279 -16.636 -33.758  1.00  0.00     0.038 A 
HETATM   20  C   UNL     1      -6.604 -13.974 -34.245  1.00  0.00     0.017 A 
HETATM   21  C   UNL     1      -6.863 -14.376 -36.726  1.00  0.00     0.091 C 
HETATM   22  C   UNL     1      -6.662 -14.458 -32.934  1.00  0.00     0.001 A 
HETATM   23  C   UNL     1      -6.998 -15.788 -32.691  1.00  0.00     0.003 A 
BRANCH  21  24
HETATM   24  O   UNL     1      -6.499 -13.069 -36.943  1.00  0.00    -0.359 OA
HETATM   25  H   UNL     1      -7.329 -12.567 -37.118  1.00  0.00     0.218 HD
ENDBRANCH  21  24
ENDBRANCH  12  13
BRANCH  12  26
HETATM   26  C   UNL     1      -8.413 -13.923 -39.597  1.00  0.00    -0.049 A 
HETATM   27  C   UNL     1      -9.727 -14.432 -39.611  1.00  0.00     0.008 A 
HETATM   28  C   UNL     1     -10.816 -13.623 -39.947  1.00  0.00     0.001 A 
HETATM   29  C   UNL     1     -10.615 -12.287 -40.268  1.00  0.00     0.000 A 
HETATM   30  C   UNL     1      -9.329 -11.757 -40.239  1.00  0.00     0.001 A 
HETATM   31  C   UNL     1      -8.240 -12.565 -39.900  1.00  0.00     0.008 A 
ENDBRANCH  12  26
ENDBRANCH  11  12
BRANCH  11  32
HETATM   32  C   UNL     1      -5.325 -13.216 -39.878  1.00  0.00     0.246 C 
BRANCH  32  33
HETATM   33  N   UNL     1      -3.836 -13.174 -39.565  1.00  0.00    -0.070 N 
HETATM   34  H   UNL     1      -3.333 -12.934 -40.447  1.00  0.00     0.279 HD
HETATM   35  C   UNL     1      -3.465 -12.176 -38.496  1.00  0.00     0.235 C 
HETATM   36  C   UNL     1      -1.962 -12.174 -38.262  1.00  0.00     0.028 C 
HETATM   37  C   UNL     1      -1.434 -13.563 -37.936  1.00  0.00     0.003 C 
HETATM   38  C   UNL     1      -1.830 -14.554 -39.021  1.00  0.00     0.028 C 
HETATM   39  C   UNL     1      -3.336 -14.571 -39.234  1.00  0.00     0.235 C 
ENDBRANCH  32  33
ENDBRANCH  11  32
ENDBRANCH   9  11
ENDBRANCH   5   8
ENDBRANCH   1   4
TORSDOF 9
ENDMDL
MODEL 10
REMARK VINA RESULT:      -7.7      2.842      5.316
REMARK  9 active torsions:
REMARK  status: ('A' for Active; 'I' for Inactive)
REMARK    1  A    between atoms: C_2  and  C_3 
REMARK    2  A    between atoms: C_3  and  C_4 
REMARK    3  A    between atoms: C_3  and  C_23 
REMARK    4  A    between atoms: C_4  and  C_5 
REMARK    5  A    between atoms: C_4  and  C_17 
REMARK    6  A    between atoms: C_15  and  O_16 
REMARK    7  A    between atoms: C_23  and  N_24 
REMARK    8  A    between atoms: N_31  and  N_32 
REMARK       I    between atoms: N_32  and  C_33 
REMARK    9  A    between atoms: C_33  and  C_34 
ROOT
HETATM    1  C   UNL     1      -3.417  -0.094 -31.498  1.00  0.00     0.213 C 
HETATM    2  C   UNL     1      -3.219  -1.579 -31.759  1.00  0.00    -0.011 C 
HETATM    3  N   UNL     1      -3.054  -2.811 -31.975  1.00  0.00    -0.101 N 
ENDROOT
BRANCH   1   4
HETATM    4  C   UNL     1      -4.699   0.379 -32.154  1.00  0.00     0.249 C 
HETATM    5  N   UNL     1      -5.465   1.278 -31.421  1.00  0.00    -0.246 N 
HETATM    6  H   UNL     1      -5.233   1.528 -30.462  1.00  0.00     0.192 HD
HETATM    7  O   UNL     1      -5.076  -0.071 -33.240  1.00  0.00    -0.271 OA
BRANCH   5   8
HETATM    8  N   UNL     1      -6.486   1.916 -32.047  1.00  0.00    -0.181 NA
HETATM    9  C   UNL     1      -7.235   2.735 -31.375  1.00  0.00     0.035 C 
HETATM   10  C   UNL     1      -7.074   3.030 -29.900  1.00  0.00     0.068 C 
BRANCH   9  11
HETATM   11  C   UNL     1      -8.289   3.521 -32.152  1.00  0.00     0.074 C 
BRANCH  11  12
HETATM   12  C   UNL     1      -7.964   5.032 -32.385  1.00  0.00     0.072 C 
BRANCH  12  13
HETATM   13  C   UNL     1      -6.497   5.438 -32.565  1.00  0.00     0.061 C 
HETATM   14  C   UNL     1      -5.968   6.334 -31.499  1.00  0.00     0.298 C 
HETATM   15  O   UNL     1      -6.627   6.522 -30.472  1.00  0.00    -0.259 OA
HETATM   16  O   UNL     1      -4.703   6.866 -31.630  1.00  0.00    -0.274 OA
HETATM   17  C   UNL     1      -3.861   6.474 -32.680  1.00  0.00     0.092 A 
HETATM   18  C   UNL     1      -4.290   5.560 -33.636  1.00  0.00     0.032 A 
HETATM   19  C   UNL     1      -2.583   7.034 -32.710  1.00  0.00     0.038 A 
HETATM   20  C   UNL     1      -3.401   5.217 -34.662  1.00  0.00     0.017 A 
HETATM   21  C   UNL     1      -5.659   5.050 -33.542  1.00  0.00     0.091 C 
HETATM   22  C   UNL     1      -2.116   5.768 -34.706  1.00  0.00     0.001 A 
HETATM   23  C   UNL     1      -1.707   6.674 -33.730  1.00  0.00     0.003 A 
BRANCH  21  24
HETATM   24  O   UNL     1      -6.030   4.134 -34.496  1.00  0.00    -0.359 OA
HETATM   25  H   UNL     1      -5.989   4.596 -35.366  1.00  0.00     0.218 HD
ENDBRANCH  21  24
ENDBRANCH  12  13
BRANCH  12  26
HETATM   26  C   UNL     1      -8.949   5.791 -33.283  1.00  0.00    -0.049 A 
HETATM   27  C   UNL     1      -9.491   7.009 -32.825  1.00  0.00     0.008 A 
HETATM   28  C   UNL     1     -10.398   7.737 -33.599  1.00  0.00     0.001 A 
HETATM   29  C   UNL     1     -10.775   7.268 -34.851  1.00  0.00     0.000 A 
HETATM   30  C   UNL     1     -10.236   6.081 -35.333  1.00  0.00     0.001 A 
HETATM   31  C   UNL     1      -9.326   5.353 -34.560  1.00  0.00     0.008 A 
ENDBRANCH  12  26
ENDBRANCH  11  12
BRANCH  11  32
HETATM   32  C   UNL     1      -9.622   3.246 -31.423  1.00  0.00     0.246 C 
BRANCH  32  33
HETATM   33  N   UNL     1     -10.736   2.695 -32.302  1.00  0.00    -0.070 N 
HETATM   34  H   UNL     1     -11.124   1.850 -31.830  1.00  0.00     0.279 HD
HETATM   35  C   UNL     1     -11.854   3.676 -32.556  1.00  0.00     0.235 C 
HETATM   36  C   UNL     1     -12.938   3.044 -33.416  1.00  0.00     0.028 C 
HETATM   37  C   UNL     1     -12.380   2.483 -34.716  1.00  0.00     0.003 C 
HETATM   38  C   UNL     1     -11.247   1.506 -34.434  1.00  0.00     0.028 C 
HETATM   39  C   UNL     1     -10.154   2.151 -33.596  1.00  0.00     0.235 C 
ENDBRANCH  32  33
ENDBRANCH  11  32
ENDBRANCH   9  11
ENDBRANCH   5   8
ENDBRANCH   1   4
TORSDOF 9
ENDMDL
