MODEL 1
REMARK VINA RESULT:      -8.3      0.000      0.000
REMARK  5 active torsions:
REMARK  status: ('A' for Active; 'I' for Inactive)
REMARK    1  A    between atoms: C_2  and  N_3 
REMARK    2  A    between atoms: C_2  and  C_21 
REMARK       I    between atoms: N_3  and  C_5 
REMARK       I    between atoms: C_5  and  N_6 
REMARK    3  A    between atoms: N_6  and  C_7 
REMARK    4  A    between atoms: C_7  and  C_8 
REMARK    5  A    between atoms: C_10  and  C_11 
ROOT
HETATM    1  N   UNL     1     -10.204   2.059 -32.589  1.00  0.00    -0.218 N 
HETATM    2  H   UNL     1     -10.825   2.279 -31.826  1.00  0.00     0.178 HD
HETATM    3  C   UNL     1      -9.015   2.711 -32.632  1.00  0.00     0.670 C 
HETATM    4  N   UNL     1      -8.205   2.580 -33.707  1.00  0.00    -0.221 N 
HETATM    5  N   UNL     1      -8.659   3.516 -31.594  1.00  0.00    -0.231 N 
HETATM    6  C   UNL     1      -9.457   3.729 -30.389  1.00  0.00     0.165 C 
HETATM    7  H   UNL     1      -8.604   2.161 -34.535  1.00  0.00     0.178 HD
HETATM    8  H   UNL     1      -7.766   3.982 -31.643  1.00  0.00     0.177 HD
ENDROOT
BRANCH   4   9
HETATM    9  C   UNL     1      -6.763   2.833 -33.729  1.00  0.00     0.199 C 
BRANCH   9  10
HETATM   10  C   UNL     1      -6.074   1.539 -33.498  1.00  0.00     0.077 A 
HETATM   11  N   UNL     1      -6.575   0.358 -34.021  1.00  0.00    -0.225 NA
HETATM   12  C   UNL     1      -5.666  -0.548 -33.702  1.00  0.00     0.179 A 
HETATM   13  O   UNL     1      -4.625  -0.047 -32.964  1.00  0.00    -0.301 OA
HETATM   14  C   UNL     1      -4.897   1.281 -32.838  1.00  0.00     0.173 A 
BRANCH  12  15
HETATM   15  C   UNL     1      -5.610  -1.964 -34.052  1.00  0.00     0.017 A 
HETATM   16  C   UNL     1      -6.763  -2.610 -34.525  1.00  0.00     0.016 A 
HETATM   17  C   UNL     1      -6.731  -3.958 -34.893  1.00  0.00     0.001 A 
HETATM   18  C   UNL     1      -5.542  -4.676 -34.797  1.00  0.00     0.000 A 
HETATM   19  C   UNL     1      -4.388  -4.052 -34.329  1.00  0.00     0.001 A 
HETATM   20  C   UNL     1      -4.422  -2.704 -33.958  1.00  0.00     0.016 A 
ENDBRANCH  12  15
ENDBRANCH   9  10
ENDBRANCH   4   9
BRANCH   1  21
HETATM   21  C   UNL     1     -10.563   0.910 -33.440  1.00  0.00     0.135 C 
HETATM   22  C   UNL     1     -10.060  -0.389 -32.815  1.00  0.00     0.038 C 
BRANCH  21  23
HETATM   23  C   UNL     1     -12.046   0.868 -33.675  1.00  0.00     0.005 A 
HETATM   24  S   UNL     1     -12.918   2.256 -34.181  1.00  0.00    -0.104 SA
HETATM   25  C   UNL     1     -14.399   1.405 -34.193  1.00  0.00     0.050 A 
HETATM   26  C   UNL     1     -14.242   0.090 -33.821  1.00  0.00     0.008 A 
HETATM   27  C   UNL     1     -12.886  -0.221 -33.519  1.00  0.00     0.017 A 
ENDBRANCH  21  23
ENDBRANCH   1  21
TORSDOF 5
ENDMDL
MODEL 2
REMARK VINA RESULT:      -8.0      4.358      7.558
REMARK  5 active torsions:
REMARK  status: ('A' for Active; 'I' for Inactive)
REMARK    1  A    between atoms: C_2  and  N_3 
REMARK    2  A    between atoms: C_2  and  C_21 
REMARK       I    between atoms: N_3  and  C_5 
REMARK       I    between atoms: C_5  and  N_6 
REMARK    3  A    between atoms: N_6  and  C_7 
REMARK    4  A    between atoms: C_7  and  C_8 
REMARK    5  A    between atoms: C_10  and  C_11 
ROOT
HETATM    1  N   UNL     1      -6.727  -0.512 -33.247  1.00  0.00    -0.218 N 
HETATM    2  H   UNL     1      -7.477  -1.123 -32.963  1.00  0.00     0.178 HD
HETATM    3  C   UNL     1      -6.933   0.824 -33.131  1.00  0.00     0.670 C 
HETATM    4  N   UNL     1      -6.034   1.698 -33.635  1.00  0.00    -0.221 N 
HETATM    5  N   UNL     1      -8.064   1.272 -32.520  1.00  0.00    -0.231 N 
HETATM    6  C   UNL     1      -9.098   0.416 -31.943  1.00  0.00     0.165 C 
HETATM    7  H   UNL     1      -5.337   1.329 -34.265  1.00  0.00     0.178 HD
HETATM    8  H   UNL     1      -8.191   2.269 -32.435  1.00  0.00     0.177 HD
ENDROOT
BRANCH   4   9
HETATM    9  C   UNL     1      -5.873   3.095 -33.225  1.00  0.00     0.199 C 
BRANCH   9  10
HETATM   10  C   UNL     1      -4.516   3.240 -32.642  1.00  0.00     0.077 A 
HETATM   11  N   UNL     1      -3.795   4.414 -32.792  1.00  0.00    -0.225 NA
HETATM   12  C   UNL     1      -2.703   4.215 -32.072  1.00  0.00     0.179 A 
HETATM   13  O   UNL     1      -2.640   2.972 -31.498  1.00  0.00    -0.301 OA
HETATM   14  C   UNL     1      -3.798   2.360 -31.870  1.00  0.00     0.173 A 
BRANCH  12  15
HETATM   15  C   UNL     1      -1.604   5.134 -31.789  1.00  0.00     0.017 A 
HETATM   16  C   UNL     1      -0.698   4.838 -30.759  1.00  0.00     0.016 A 
HETATM   17  C   UNL     1       0.379   5.685 -30.484  1.00  0.00     0.001 A 
HETATM   18  C   UNL     1       0.565   6.840 -31.241  1.00  0.00     0.000 A 
HETATM   19  C   UNL     1      -0.325   7.150 -32.267  1.00  0.00     0.001 A 
HETATM   20  C   UNL     1      -1.404   6.303 -32.539  1.00  0.00     0.016 A 
ENDBRANCH  12  15
ENDBRANCH   9  10
ENDBRANCH   4   9
BRANCH   1  21
HETATM   21  C   UNL     1      -5.427  -1.138 -33.551  1.00  0.00     0.135 C 
HETATM   22  C   UNL     1      -4.554  -1.176 -32.300  1.00  0.00     0.038 C 
BRANCH  21  23
HETATM   23  C   UNL     1      -5.623  -2.512 -34.126  1.00  0.00     0.005 A 
HETATM   24  S   UNL     1      -4.345  -3.655 -34.187  1.00  0.00    -0.104 SA
HETATM   25  C   UNL     1      -5.338  -4.828 -34.931  1.00  0.00     0.050 A 
HETATM   26  C   UNL     1      -6.619  -4.368 -35.132  1.00  0.00     0.008 A 
HETATM   27  C   UNL     1      -6.785  -3.032 -34.671  1.00  0.00     0.017 A 
ENDBRANCH  21  23
ENDBRANCH   1  21
TORSDOF 5
ENDMDL
MODEL 3
REMARK VINA RESULT:      -7.8      4.303      6.812
REMARK  5 active torsions:
REMARK  status: ('A' for Active; 'I' for Inactive)
REMARK    1  A    between atoms: C_2  and  N_3 
REMARK    2  A    between atoms: C_2  and  C_21 
REMARK       I    between atoms: N_3  and  C_5 
REMARK       I    between atoms: C_5  and  N_6 
REMARK    3  A    between atoms: N_6  and  C_7 
REMARK    4  A    between atoms: C_7  and  C_8 
REMARK    5  A    between atoms: C_10  and  C_11 
ROOT
HETATM    1  N   UNL     1      -4.883   5.467 -33.043  1.00  0.00    -0.218 N 
HETATM    2  H   UNL     1      -5.114   6.437 -33.189  1.00  0.00     0.178 HD
HETATM    3  C   UNL     1      -5.803   4.696 -32.411  1.00  0.00     0.670 C 
HETATM    4  N   UNL     1      -5.496   3.431 -32.046  1.00  0.00    -0.221 N 
HETATM    5  N   UNL     1      -7.028   5.217 -32.129  1.00  0.00    -0.231 N 
HETATM    6  C   UNL     1      -7.462   6.568 -32.477  1.00  0.00     0.165 C 
HETATM    7  H   UNL     1      -4.521   3.168 -32.072  1.00  0.00     0.178 HD
HETATM    8  H   UNL     1      -7.700   4.622 -31.668  1.00  0.00     0.177 HD
ENDROOT
BRANCH   4   9
HETATM    9  C   UNL     1      -6.457   2.360 -31.777  1.00  0.00     0.199 C 
BRANCH   9  10
HETATM   10  C   UNL     1      -6.332   1.357 -32.864  1.00  0.00     0.077 A 
HETATM   11  N   UNL     1      -5.937   0.056 -32.596  1.00  0.00    -0.225 NA
HETATM   12  C   UNL     1      -6.034  -0.557 -33.764  1.00  0.00     0.179 A 
HETATM   13  O   UNL     1      -6.421   0.267 -34.788  1.00  0.00    -0.301 OA
HETATM   14  C   UNL     1      -6.606   1.483 -34.204  1.00  0.00     0.173 A 
BRANCH  12  15
HETATM   15  C   UNL     1      -5.821  -1.964 -34.089  1.00  0.00     0.017 A 
HETATM   16  C   UNL     1      -6.891  -2.738 -34.566  1.00  0.00     0.016 A 
HETATM   17  C   UNL     1      -6.709  -4.080 -34.911  1.00  0.00     0.001 A 
HETATM   18  C   UNL     1      -5.452  -4.665 -34.784  1.00  0.00     0.000 A 
HETATM   19  C   UNL     1      -4.378  -3.913 -34.311  1.00  0.00     0.001 A 
HETATM   20  C   UNL     1      -4.562  -2.571 -33.964  1.00  0.00     0.016 A 
ENDBRANCH  12  15
ENDBRANCH   9  10
ENDBRANCH   4   9
BRANCH   1  21
HETATM   21  C   UNL     1      -3.677   4.953 -33.717  1.00  0.00     0.135 C 
HETATM   22  C   UNL     1      -3.733   5.261 -35.211  1.00  0.00     0.038 C 
BRANCH  21  23
HETATM   23  C   UNL     1      -2.437   5.519 -33.086  1.00  0.00     0.005 A 
HETATM   24  S   UNL     1      -1.913   7.122 -33.406  1.00  0.00    -0.104 SA
HETATM   25  C   UNL     1      -0.552   6.953 -32.389  1.00  0.00     0.050 A 
HETATM   26  C   UNL     1      -0.490   5.706 -31.812  1.00  0.00     0.008 A 
HETATM   27  C   UNL     1      -1.575   4.876 -32.215  1.00  0.00     0.017 A 
ENDBRANCH  21  23
ENDBRANCH   1  21
TORSDOF 5
ENDMDL
MODEL 4
REMARK VINA RESULT:      -7.7      4.724      7.451
REMARK  5 active torsions:
REMARK  status: ('A' for Active; 'I' for Inactive)
REMARK    1  A    between atoms: C_2  and  N_3 
REMARK    2  A    between atoms: C_2  and  C_21 
REMARK       I    between atoms: N_3  and  C_5 
REMARK       I    between atoms: C_5  and  N_6 
REMARK    3  A    between atoms: N_6  and  C_7 
REMARK    4  A    between atoms: C_7  and  C_8 
REMARK    5  A    between atoms: C_10  and  C_11 
ROOT
HETATM    1  N   UNL     1      -3.800   4.763 -30.850  1.00  0.00    -0.218 N 
HETATM    2  H   UNL     1      -3.910   5.764 -30.837  1.00  0.00     0.178 HD
HETATM    3  C   UNL     1      -4.869   4.014 -30.478  1.00  0.00     0.670 C 
HETATM    4  N   UNL     1      -4.743   2.677 -30.324  1.00  0.00    -0.221 N 
HETATM    5  N   UNL     1      -6.060   4.627 -30.240  1.00  0.00    -0.231 N 
HETATM    6  C   UNL     1      -6.304   6.061 -30.375  1.00  0.00     0.165 C 
HETATM    7  H   UNL     1      -3.805   2.303 -30.292  1.00  0.00     0.178 HD
HETATM    8  H   UNL     1      -6.844   4.049 -29.975  1.00  0.00     0.177 HD
ENDROOT
BRANCH   4   9
HETATM    9  C   UNL     1      -5.836   1.703 -30.367  1.00  0.00     0.199 C 
BRANCH   9  10
HETATM   10  C   UNL     1      -5.775   1.014 -31.680  1.00  0.00     0.077 A 
HETATM   11  N   UNL     1      -5.616  -0.360 -31.762  1.00  0.00    -0.225 NA
HETATM   12  C   UNL     1      -5.706  -0.618 -33.055  1.00  0.00     0.179 A 
HETATM   13  O   UNL     1      -5.867   0.500 -33.831  1.00  0.00    -0.301 OA
HETATM   14  C   UNL     1      -5.907   1.533 -32.946  1.00  0.00     0.173 A 
BRANCH  12  15
HETATM   15  C   UNL     1      -5.691  -1.907 -33.743  1.00  0.00     0.017 A 
HETATM   16  C   UNL     1      -4.505  -2.658 -33.787  1.00  0.00     0.016 A 
HETATM   17  C   UNL     1      -4.470  -3.906 -34.414  1.00  0.00     0.001 A 
HETATM   18  C   UNL     1      -5.622  -4.421 -35.003  1.00  0.00     0.000 A 
HETATM   19  C   UNL     1      -6.807  -3.689 -34.970  1.00  0.00     0.001 A 
HETATM   20  C   UNL     1      -6.841  -2.439 -34.344  1.00  0.00     0.016 A 
ENDBRANCH  12  15
ENDBRANCH   9  10
ENDBRANCH   4   9
BRANCH   1  21
HETATM   21  C   UNL     1      -2.575   4.227 -31.471  1.00  0.00     0.135 C 
HETATM   22  C   UNL     1      -2.866   3.756 -32.894  1.00  0.00     0.038 C 
BRANCH  21  23
HETATM   23  C   UNL     1      -1.477   5.251 -31.445  1.00  0.00     0.005 A 
HETATM   24  S   UNL     1      -0.250   5.227 -30.246  1.00  0.00    -0.104 SA
HETATM   25  C   UNL     1       0.505   6.616 -30.894  1.00  0.00     0.050 A 
HETATM   26  C   UNL     1      -0.157   7.094 -32.002  1.00  0.00     0.008 A 
HETATM   27  C   UNL     1      -1.301   6.309 -32.320  1.00  0.00     0.017 A 
ENDBRANCH  21  23
ENDBRANCH   1  21
TORSDOF 5
ENDMDL
MODEL 5
REMARK VINA RESULT:      -7.6      3.471      6.546
REMARK  5 active torsions:
REMARK  status: ('A' for Active; 'I' for Inactive)
REMARK    1  A    between atoms: C_2  and  N_3 
REMARK    2  A    between atoms: C_2  and  C_21 
REMARK       I    between atoms: N_3  and  C_5 
REMARK       I    between atoms: C_5  and  N_6 
REMARK    3  A    between atoms: N_6  and  C_7 
REMARK    4  A    between atoms: C_7  and  C_8 
REMARK    5  A    between atoms: C_10  and  C_11 
ROOT
HETATM    1  N   UNL     1      -7.003  -0.497 -32.443  1.00  0.00    -0.218 N 
HETATM    2  H   UNL     1      -6.349  -1.031 -31.892  1.00  0.00     0.178 HD
HETATM    3  C   UNL     1      -7.542   0.609 -31.871  1.00  0.00     0.670 C 
HETATM    4  N   UNL     1      -8.537   1.280 -32.492  1.00  0.00    -0.221 N 
HETATM    5  N   UNL     1      -7.084   1.021 -30.657  1.00  0.00    -0.231 N 
HETATM    6  C   UNL     1      -6.017   0.370 -29.901  1.00  0.00     0.165 C 
HETATM    7  H   UNL     1      -8.990   0.819 -33.267  1.00  0.00     0.178 HD
HETATM    8  H   UNL     1      -7.491   1.852 -30.256  1.00  0.00     0.177 HD
ENDROOT
BRANCH   4   9
HETATM    9  C   UNL     1      -8.907   2.677 -32.253  1.00  0.00     0.199 C 
BRANCH   9  10
HETATM   10  C   UNL     1      -7.887   3.533 -32.910  1.00  0.00     0.077 A 
HETATM   11  N   UNL     1      -6.541   3.398 -32.612  1.00  0.00    -0.225 NA
HETATM   12  C   UNL     1      -5.942   4.235 -33.442  1.00  0.00     0.179 A 
HETATM   13  O   UNL     1      -6.810   4.943 -34.233  1.00  0.00    -0.301 OA
HETATM   14  C   UNL     1      -8.045   4.489 -33.883  1.00  0.00     0.173 A 
BRANCH  12  15
HETATM   15  C   UNL     1      -4.515   4.472 -33.646  1.00  0.00     0.017 A 
HETATM   16  C   UNL     1      -4.080   5.155 -34.793  1.00  0.00     0.016 A 
HETATM   17  C   UNL     1      -2.723   5.419 -34.999  1.00  0.00     0.001 A 
HETATM   18  C   UNL     1      -1.784   5.006 -34.057  1.00  0.00     0.000 A 
HETATM   19  C   UNL     1      -2.198   4.327 -32.913  1.00  0.00     0.001 A 
HETATM   20  C   UNL     1      -3.555   4.060 -32.709  1.00  0.00     0.016 A 
ENDBRANCH  12  15
ENDBRANCH   9  10
ENDBRANCH   4   9
BRANCH   1  21
HETATM   21  C   UNL     1      -7.134  -0.854 -33.867  1.00  0.00     0.135 C 
HETATM   22  C   UNL     1      -6.655   0.298 -34.747  1.00  0.00     0.038 C 
BRANCH  21  23
HETATM   23  C   UNL     1      -6.384  -2.121 -34.166  1.00  0.00     0.005 A 
HETATM   24  S   UNL     1      -4.697  -2.259 -33.885  1.00  0.00    -0.104 SA
HETATM   25  C   UNL     1      -4.664  -3.868 -34.456  1.00  0.00     0.050 A 
HETATM   26  C   UNL     1      -5.908  -4.301 -34.853  1.00  0.00     0.008 A 
HETATM   27  C   UNL     1      -6.902  -3.294 -34.689  1.00  0.00     0.017 A 
ENDBRANCH  21  23
ENDBRANCH   1  21
TORSDOF 5
ENDMDL
MODEL 6
REMARK VINA RESULT:      -7.5      4.011      6.524
REMARK  5 active torsions:
REMARK  status: ('A' for Active; 'I' for Inactive)
REMARK    1  A    between atoms: C_2  and  N_3 
REMARK    2  A    between atoms: C_2  and  C_21 
REMARK       I    between atoms: N_3  and  C_5 
REMARK       I    between atoms: C_5  and  N_6 
REMARK    3  A    between atoms: N_6  and  C_7 
REMARK    4  A    between atoms: C_7  and  C_8 
REMARK    5  A    between atoms: C_10  and  C_11 
ROOT
HETATM    1  N   UNL     1      -4.858   5.217 -30.857  1.00  0.00    -0.218 N 
HETATM    2  H   UNL     1      -4.678   6.108 -30.422  1.00  0.00     0.178 HD
HETATM    3  C   UNL     1      -5.254   4.199 -30.051  1.00  0.00     0.670 C 
HETATM    4  N   UNL     1      -5.361   2.944 -30.542  1.00  0.00    -0.221 N 
HETATM    5  N   UNL     1      -5.521   4.453 -28.741  1.00  0.00    -0.231 N 
HETATM    6  C   UNL     1      -5.436   5.767 -28.110  1.00  0.00     0.165 C 
HETATM    7  H   UNL     1      -4.944   2.766 -31.445  1.00  0.00     0.178 HD
HETATM    8  H   UNL     1      -5.825   3.683 -28.164  1.00  0.00     0.177 HD
ENDROOT
BRANCH   4   9
HETATM    9  C   UNL     1      -6.167   1.865 -29.967  1.00  0.00     0.199 C 
BRANCH   9  10
HETATM   10  C   UNL     1      -6.605   0.987 -31.080  1.00  0.00     0.077 A 
HETATM   11  N   UNL     1      -5.712   0.142 -31.720  1.00  0.00    -0.225 NA
HETATM   12  C   UNL     1      -6.464  -0.540 -32.567  1.00  0.00     0.179 A 
HETATM   13  O   UNL     1      -7.783  -0.166 -32.558  1.00  0.00    -0.301 OA
HETATM   14  C   UNL     1      -7.860   0.808 -31.610  1.00  0.00     0.173 A 
BRANCH  12  15
HETATM   15  C   UNL     1      -6.090  -1.633 -33.461  1.00  0.00     0.017 A 
HETATM   16  C   UNL     1      -7.090  -2.364 -34.122  1.00  0.00     0.016 A 
HETATM   17  C   UNL     1      -6.760  -3.397 -35.004  1.00  0.00     0.001 A 
HETATM   18  C   UNL     1      -5.423  -3.709 -35.239  1.00  0.00     0.000 A 
HETATM   19  C   UNL     1      -4.417  -2.994 -34.591  1.00  0.00     0.001 A 
HETATM   20  C   UNL     1      -4.749  -1.963 -33.707  1.00  0.00     0.016 A 
ENDBRANCH  12  15
ENDBRANCH   9  10
ENDBRANCH   4   9
BRANCH   1  21
HETATM   21  C   UNL     1      -4.877   5.177 -32.330  1.00  0.00     0.135 C 
HETATM   22  C   UNL     1      -5.774   6.285 -32.877  1.00  0.00     0.038 C 
BRANCH  21  23
HETATM   23  C   UNL     1      -3.483   5.278 -32.880  1.00  0.00     0.005 A 
HETATM   24  S   UNL     1      -3.189   5.537 -34.551  1.00  0.00    -0.104 SA
HETATM   25  C   UNL     1      -1.496   5.511 -34.327  1.00  0.00     0.050 A 
HETATM   26  C   UNL     1      -1.152   5.310 -33.010  1.00  0.00     0.008 A 
HETATM   27  C   UNL     1      -2.297   5.173 -32.174  1.00  0.00     0.017 A 
ENDBRANCH  21  23
ENDBRANCH   1  21
TORSDOF 5
ENDMDL
MODEL 7
REMARK VINA RESULT:      -7.5      4.728      6.744
REMARK  5 active torsions:
REMARK  status: ('A' for Active; 'I' for Inactive)
REMARK    1  A    between atoms: C_2  and  N_3 
REMARK    2  A    between atoms: C_2  and  C_21 
REMARK       I    between atoms: N_3  and  C_5 
REMARK       I    between atoms: C_5  and  N_6 
REMARK    3  A    between atoms: N_6  and  C_7 
REMARK    4  A    between atoms: C_7  and  C_8 
REMARK    5  A    between atoms: C_10  and  C_11 
ROOT
HETATM    1  N   UNL     1      -4.497   4.458 -32.016  1.00  0.00    -0.218 N 
HETATM    2  H   UNL     1      -4.999   5.253 -31.654  1.00  0.00     0.178 HD
HETATM    3  C   UNL     1      -4.316   3.402 -31.183  1.00  0.00     0.670 C 
HETATM    4  N   UNL     1      -3.522   2.372 -31.551  1.00  0.00    -0.221 N 
HETATM    5  N   UNL     1      -4.925   3.403 -29.966  1.00  0.00    -0.231 N 
HETATM    6  C   UNL     1      -5.800   4.463 -29.470  1.00  0.00     0.165 C 
HETATM    7  H   UNL     1      -2.924   2.515 -32.352  1.00  0.00     0.178 HD
HETATM    8  H   UNL     1      -4.786   2.603 -29.368  1.00  0.00     0.177 HD
ENDROOT
BRANCH   4   9
HETATM    9  C   UNL     1      -3.570   1.015 -31.003  1.00  0.00     0.199 C 
BRANCH   9  10
HETATM   10  C   UNL     1      -4.538   0.234 -31.813  1.00  0.00     0.077 A 
HETATM   11  N   UNL     1      -4.135  -0.875 -32.538  1.00  0.00    -0.225 NA
HETATM   12  C   UNL     1      -5.259  -1.359 -33.040  1.00  0.00     0.179 A 
HETATM   13  O   UNL     1      -6.366  -0.613 -32.730  1.00  0.00    -0.301 OA
HETATM   14  C   UNL     1      -5.895   0.399 -31.951  1.00  0.00     0.173 A 
BRANCH  12  15
HETATM   15  C   UNL     1      -5.472  -2.568 -33.830  1.00  0.00     0.017 A 
HETATM   16  C   UNL     1      -4.481  -3.563 -33.862  1.00  0.00     0.016 A 
HETATM   17  C   UNL     1      -4.671  -4.742 -34.587  1.00  0.00     0.001 A 
HETATM   18  C   UNL     1      -5.858  -4.943 -35.288  1.00  0.00     0.000 A 
HETATM   19  C   UNL     1      -6.852  -3.966 -35.269  1.00  0.00     0.001 A 
HETATM   20  C   UNL     1      -6.659  -2.786 -34.545  1.00  0.00     0.016 A 
ENDBRANCH  12  15
ENDBRANCH   9  10
ENDBRANCH   4   9
BRANCH   1  21
HETATM   21  C   UNL     1      -4.207   4.445 -33.462  1.00  0.00     0.135 C 
HETATM   22  C   UNL     1      -5.394   5.002 -34.244  1.00  0.00     0.038 C 
BRANCH  21  23
HETATM   23  C   UNL     1      -2.948   5.211 -33.755  1.00  0.00     0.005 A 
HETATM   24  S   UNL     1      -2.494   6.587 -32.837  1.00  0.00    -0.104 SA
HETATM   25  C   UNL     1      -1.080   6.825 -33.764  1.00  0.00     0.050 A 
HETATM   26  C   UNL     1      -0.948   5.879 -34.755  1.00  0.00     0.008 A 
HETATM   27  C   UNL     1      -2.025   4.949 -34.753  1.00  0.00     0.017 A 
ENDBRANCH  21  23
ENDBRANCH   1  21
TORSDOF 5
ENDMDL
MODEL 8
REMARK VINA RESULT:      -7.5      1.455      1.666
REMARK  5 active torsions:
REMARK  status: ('A' for Active; 'I' for Inactive)
REMARK    1  A    between atoms: C_2  and  N_3 
REMARK    2  A    between atoms: C_2  and  C_21 
REMARK       I    between atoms: N_3  and  C_5 
REMARK       I    between atoms: C_5  and  N_6 
REMARK    3  A    between atoms: N_6  and  C_7 
REMARK    4  A    between atoms: C_7  and  C_8 
REMARK    5  A    between atoms: C_10  and  C_11 
ROOT
HETATM    1  N   UNL     1      -8.619   2.748 -31.975  1.00  0.00    -0.218 N 
HETATM    2  H   UNL     1      -9.249   3.145 -31.296  1.00  0.00     0.178 HD
HETATM    3  C   UNL     1      -7.308   3.086 -31.881  1.00  0.00     0.670 C 
HETATM    4  N   UNL     1      -6.438   2.715 -32.847  1.00  0.00    -0.221 N 
HETATM    5  N   UNL     1      -6.885   3.819 -30.815  1.00  0.00    -0.231 N 
HETATM    6  C   UNL     1      -7.739   4.271 -29.720  1.00  0.00     0.165 C 
HETATM    7  H   UNL     1      -6.830   2.374 -33.713  1.00  0.00     0.178 HD
HETATM    8  H   UNL     1      -5.904   4.049 -30.760  1.00  0.00     0.177 HD
ENDROOT
BRANCH   4   9
HETATM    9  C   UNL     1      -4.985   2.605 -32.696  1.00  0.00     0.199 C 
BRANCH   9  10
HETATM   10  C   UNL     1      -4.634   1.164 -32.753  1.00  0.00     0.077 A 
HETATM   11  N   UNL     1      -5.484   0.243 -33.343  1.00  0.00    -0.225 NA
HETATM   12  C   UNL     1      -4.809  -0.893 -33.297  1.00  0.00     0.179 A 
HETATM   13  O   UNL     1      -3.593  -0.788 -32.674  1.00  0.00    -0.301 OA
HETATM   14  C   UNL     1      -3.494   0.526 -32.330  1.00  0.00     0.173 A 
BRANCH  12  15
HETATM   15  C   UNL     1      -5.166  -2.202 -33.838  1.00  0.00     0.017 A 
HETATM   16  C   UNL     1      -6.445  -2.405 -34.382  1.00  0.00     0.016 A 
HETATM   17  C   UNL     1      -6.803  -3.638 -34.932  1.00  0.00     0.001 A 
HETATM   18  C   UNL     1      -5.885  -4.686 -34.947  1.00  0.00     0.000 A 
HETATM   19  C   UNL     1      -4.612  -4.503 -34.411  1.00  0.00     0.001 A 
HETATM   20  C   UNL     1      -4.255  -3.269 -33.859  1.00  0.00     0.016 A 
ENDBRANCH  12  15
ENDBRANCH   9  10
ENDBRANCH   4   9
BRANCH   1  21
HETATM   21  C   UNL     1      -9.152   1.689 -32.852  1.00  0.00     0.135 C 
HETATM   22  C   UNL     1      -9.134   0.345 -32.128  1.00  0.00     0.038 C 
BRANCH  21  23
HETATM   23  C   UNL     1     -10.533   2.039 -33.325  1.00  0.00     0.005 A 
HETATM   24  S   UNL     1     -11.388   3.387 -32.694  1.00  0.00    -0.104 SA
HETATM   25  C   UNL     1     -12.746   3.074 -33.681  1.00  0.00     0.050 A 
HETATM   26  C   UNL     1     -12.561   1.968 -34.479  1.00  0.00     0.008 A 
HETATM   27  C   UNL     1     -11.286   1.369 -34.273  1.00  0.00     0.017 A 
ENDBRANCH  21  23
ENDBRANCH   1  21
TORSDOF 5
ENDMDL
MODEL 9
REMARK VINA RESULT:      -7.5      4.556      7.504
REMARK  5 active torsions:
REMARK  status: ('A' for Active; 'I' for Inactive)
REMARK    1  A    between atoms: C_2  and  N_3 
REMARK    2  A    between atoms: C_2  and  C_21 
REMARK       I    between atoms: N_3  and  C_5 
REMARK       I    between atoms: C_5  and  N_6 
REMARK    3  A    between atoms: N_6  and  C_7 
REMARK    4  A    between atoms: C_7  and  C_8 
REMARK    5  A    between atoms: C_10  and  C_11 
ROOT
HETATM    1  N   UNL     1      -5.790   1.269 -32.098  1.00  0.00    -0.218 N 
HETATM    2  H   UNL     1      -6.082   0.913 -31.202  1.00  0.00     0.178 HD
HETATM    3  C   UNL     1      -6.254   2.490 -32.465  1.00  0.00     0.670 C 
HETATM    4  N   UNL     1      -6.029   2.957 -33.713  1.00  0.00    -0.221 N 
HETATM    5  N   UNL     1      -6.968   3.227 -31.571  1.00  0.00    -0.231 N 
HETATM    6  C   UNL     1      -7.269   2.816 -30.201  1.00  0.00     0.165 C 
HETATM    7  H   UNL     1      -5.697   2.295 -34.400  1.00  0.00     0.178 HD
HETATM    8  H   UNL     1      -7.294   4.136 -31.861  1.00  0.00     0.177 HD
ENDROOT
BRANCH   4   9
HETATM    9  C   UNL     1      -6.060   4.364 -34.120  1.00  0.00     0.199 C 
BRANCH   9  10
HETATM   10  C   UNL     1      -4.673   4.886 -34.045  1.00  0.00     0.077 A 
HETATM   11  N   UNL     1      -4.030   5.037 -32.827  1.00  0.00    -0.225 NA
HETATM   12  C   UNL     1      -2.808   5.421 -33.153  1.00  0.00     0.179 A 
HETATM   13  O   UNL     1      -2.620   5.576 -34.502  1.00  0.00    -0.301 OA
HETATM   14  C   UNL     1      -3.815   5.235 -35.059  1.00  0.00     0.173 A 
BRANCH  12  15
HETATM   15  C   UNL     1      -1.654   5.661 -32.291  1.00  0.00     0.017 A 
HETATM   16  C   UNL     1      -0.847   6.790 -32.507  1.00  0.00     0.016 A 
HETATM   17  C   UNL     1       0.247   7.058 -31.680  1.00  0.00     0.001 A 
HETATM   18  C   UNL     1       0.546   6.202 -30.623  1.00  0.00     0.000 A 
HETATM   19  C   UNL     1      -0.243   5.076 -30.395  1.00  0.00     0.001 A 
HETATM   20  C   UNL     1      -1.335   4.807 -31.224  1.00  0.00     0.016 A 
ENDBRANCH  12  15
ENDBRANCH   9  10
ENDBRANCH   4   9
BRANCH   1  21
HETATM   21  C   UNL     1      -4.731   0.526 -32.806  1.00  0.00     0.135 C 
HETATM   22  C   UNL     1      -3.624   0.128 -31.834  1.00  0.00     0.038 C 
BRANCH  21  23
HETATM   23  C   UNL     1      -5.304  -0.673 -33.507  1.00  0.00     0.005 A 
HETATM   24  S   UNL     1      -4.376  -2.092 -33.771  1.00  0.00    -0.104 SA
HETATM   25  C   UNL     1      -5.670  -2.873 -34.564  1.00  0.00     0.050 A 
HETATM   26  C   UNL     1      -6.791  -2.078 -34.631  1.00  0.00     0.008 A 
HETATM   27  C   UNL     1      -6.581  -0.807 -34.023  1.00  0.00     0.017 A 
ENDBRANCH  21  23
ENDBRANCH   1  21
TORSDOF 5
ENDMDL
MODEL 10
REMARK VINA RESULT:      -7.3      4.907      7.714
REMARK  5 active torsions:
REMARK  status: ('A' for Active; 'I' for Inactive)
REMARK    1  A    between atoms: C_2  and  N_3 
REMARK    2  A    between atoms: C_2  and  C_21 
REMARK       I    between atoms: N_3  and  C_5 
REMARK       I    between atoms: C_5  and  N_6 
REMARK    3  A    between atoms: N_6  and  C_7 
REMARK    4  A    between atoms: C_7  and  C_8 
REMARK    5  A    between atoms: C_10  and  C_11 
ROOT
HETATM    1  N   UNL     1      -4.046   5.940 -29.836  1.00  0.00    -0.218 N 
HETATM    2  H   UNL     1      -3.802   6.387 -28.966  1.00  0.00     0.178 HD
HETATM    3  C   UNL     1      -5.033   5.010 -29.802  1.00  0.00     0.670 C 
HETATM    4  N   UNL     1      -5.303   4.264 -30.896  1.00  0.00    -0.221 N 
HETATM    5  N   UNL     1      -5.731   4.821 -28.649  1.00  0.00    -0.231 N 
HETATM    6  C   UNL     1      -5.520   5.570 -27.412  1.00  0.00     0.165 C 
HETATM    7  H   UNL     1      -4.624   4.280 -31.644  1.00  0.00     0.178 HD
HETATM    8  H   UNL     1      -6.468   4.132 -28.650  1.00  0.00     0.177 HD
ENDROOT
BRANCH   4   9
HETATM    9  C   UNL     1      -6.563   3.568 -31.170  1.00  0.00     0.199 C 
BRANCH   9  10
HETATM   10  C   UNL     1      -6.262   2.120 -31.287  1.00  0.00     0.077 A 
HETATM   11  N   UNL     1      -6.454   1.443 -32.481  1.00  0.00    -0.225 NA
HETATM   12  C   UNL     1      -5.996   0.226 -32.239  1.00  0.00     0.179 A 
HETATM   13  O   UNL     1      -5.560   0.047 -30.952  1.00  0.00    -0.301 OA
HETATM   14  C   UNL     1      -5.737   1.258 -30.355  1.00  0.00     0.173 A 
BRANCH  12  15
HETATM   15  C   UNL     1      -5.866  -0.909 -33.148  1.00  0.00     0.017 A 
HETATM   16  C   UNL     1      -4.597  -1.455 -33.403  1.00  0.00     0.016 A 
HETATM   17  C   UNL     1      -4.447  -2.558 -34.247  1.00  0.00     0.001 A 
HETATM   18  C   UNL     1      -5.565  -3.133 -34.845  1.00  0.00     0.000 A 
HETATM   19  C   UNL     1      -6.832  -2.605 -34.604  1.00  0.00     0.001 A 
HETATM   20  C   UNL     1      -6.981  -1.499 -33.762  1.00  0.00     0.016 A 
ENDBRANCH  12  15
ENDBRANCH   9  10
ENDBRANCH   4   9
BRANCH   1  21
HETATM   21  C   UNL     1      -3.458   6.496 -31.068  1.00  0.00     0.135 C 
HETATM   22  C   UNL     1      -3.903   7.944 -31.259  1.00  0.00     0.038 C 
BRANCH  21  23
HETATM   23  C   UNL     1      -1.961   6.381 -31.039  1.00  0.00     0.005 A 
HETATM   24  S   UNL     1      -1.158   4.947 -31.532  1.00  0.00    -0.104 SA
HETATM   25  C   UNL     1       0.380   5.613 -31.200  1.00  0.00     0.050 A 
HETATM   26  C   UNL     1       0.292   6.901 -30.724  1.00  0.00     0.008 A 
HETATM   27  C   UNL     1      -1.057   7.345 -30.628  1.00  0.00     0.017 A 
ENDBRANCH  21  23
ENDBRANCH   1  21
TORSDOF 5
ENDMDL
