MODEL 1
REMARK VINA RESULT:      -8.0      0.000      0.000
REMARK  8 active torsions:
REMARK  status: ('A' for Active; 'I' for Inactive)
REMARK    1  A    between atoms: C_7  and  C_8 
REMARK       I    between atoms: C_8  and  N_9 
REMARK    2  A    between atoms: N_9  and  C_10 
REMARK    3  A    between atoms: C_11  and  C_12 
REMARK       I    between atoms: C_12  and  N_13 
REMARK    4  A    between atoms: N_13  and  C_14 
REMARK    5  A    between atoms: C_14  and  C_15 
REMARK    6  A    between atoms: C_15  and  C_16 
REMARK    7  A    between atoms: C_17  and  O_18 
REMARK    8  A    between atoms: C_22  and  O_23 
ROOT
HETATM    1  C   UNL     1      -6.247  -2.163 -34.277  1.00  0.00     0.050 A 
HETATM    2  C   UNL     1      -4.886  -2.256 -33.941  1.00  0.00     0.058 A 
HETATM    3  C   UNL     1      -4.218  -3.490 -34.072  1.00  0.00     0.019 A 
HETATM    4  C   UNL     1      -4.897  -4.621 -34.524  1.00  0.00     0.001 A 
HETATM    5  C   UNL     1      -6.255  -4.541 -34.816  1.00  0.00     0.002 A 
HETATM    6  C   UNL     1      -6.928  -3.325 -34.677  1.00  0.00     0.030 A 
ENDROOT
BRANCH   2   7
HETATM    7  C   UNL     1      -4.148  -1.158 -33.253  1.00  0.00     0.253 C 
HETATM    8  N   UNL     1      -4.305  -1.124 -31.881  1.00  0.00    -0.356 N 
HETATM    9  H   UNL     1      -4.635  -1.976 -31.446  1.00  0.00     0.162 HD
HETATM   10  O   UNL     1      -3.498  -0.344 -33.897  1.00  0.00    -0.268 OA
BRANCH   8  11
HETATM   11  C   UNL     1      -3.555  -0.208 -31.038  1.00  0.00     0.127 C 
BRANCH  11  12
HETATM   12  C   UNL     1      -4.393   0.934 -30.447  1.00  0.00     0.061 C 
BRANCH  12  13
HETATM   13  C   UNL     1      -4.241   2.304 -31.097  1.00  0.00    -0.021 A 
HETATM   14  C   UNL     1      -5.160   3.324 -30.771  1.00  0.00     0.074 A 
HETATM   15  C   UNL     1      -5.016   4.597 -31.329  1.00  0.00     0.040 A 
HETATM   16  C   UNL     1      -3.986   4.857 -32.234  1.00  0.00     0.039 A 
HETATM   17  C   UNL     1      -3.095   3.851 -32.602  1.00  0.00     0.068 A 
HETATM   18  C   UNL     1      -3.228   2.581 -32.037  1.00  0.00     0.046 A 
BRANCH  14  19
HETATM   19  O   UNL     1      -6.147   2.985 -29.881  1.00  0.00    -0.355 OA
HETATM   20  C   UNL     1      -7.491   3.162 -30.310  1.00  0.00     0.210 C 
ENDBRANCH  14  19
BRANCH  17  21
HETATM   21  O   UNL     1      -2.143   4.237 -33.505  1.00  0.00    -0.356 OA
HETATM   22  C   UNL     1      -2.539   5.173 -34.499  1.00  0.00     0.210 C 
ENDBRANCH  17  21
ENDBRANCH  12  13
ENDBRANCH  11  12
ENDBRANCH   8  11
ENDBRANCH   2   7
BRANCH   1  23
HETATM   23  N   UNL     1      -7.021  -0.986 -34.243  1.00  0.00    -0.321 N 
HETATM   24  C   UNL     1      -7.492  -0.356 -33.106  1.00  0.00     0.265 C 
HETATM   25  O   UNL     1      -7.158  -0.645 -31.960  1.00  0.00    -0.267 OA
HETATM   26  H   UNL     1      -7.079  -0.434 -35.091  1.00  0.00     0.169 HD
BRANCH  24  27
HETATM   27  C   UNL     1      -8.374   0.844 -33.406  1.00  0.00     0.097 C 
HETATM   28  C   UNL     1      -7.843   2.001 -33.871  1.00  0.00     0.064 C 
HETATM   29  C   UNL     1      -6.363   2.243 -34.009  1.00  0.00     0.078 C 
HETATM   30  O   UNL     1      -8.563   3.131 -34.227  1.00  0.00    -0.353 OA
HETATM   31  C   UNL     1      -9.967   2.972 -34.432  1.00  0.00     0.185 C 
HETATM   32  C   UNL     1     -10.638   2.339 -33.231  1.00  0.00     0.106 C 
HETATM   33  S   UNL     1     -10.089   0.618 -33.127  1.00  0.00    -0.120 SA
ENDBRANCH  24  27
ENDBRANCH   1  23
TORSDOF 8
ENDMDL
MODEL 2
REMARK VINA RESULT:      -7.8      1.794      2.542
REMARK  8 active torsions:
REMARK  status: ('A' for Active; 'I' for Inactive)
REMARK    1  A    between atoms: C_7  and  C_8 
REMARK       I    between atoms: C_8  and  N_9 
REMARK    2  A    between atoms: N_9  and  C_10 
REMARK    3  A    between atoms: C_11  and  C_12 
REMARK       I    between atoms: C_12  and  N_13 
REMARK    4  A    between atoms: N_13  and  C_14 
REMARK    5  A    between atoms: C_14  and  C_15 
REMARK    6  A    between atoms: C_15  and  C_16 
REMARK    7  A    between atoms: C_17  and  O_18 
REMARK    8  A    between atoms: C_22  and  O_23 
ROOT
HETATM    1  C   UNL     1      -6.607  -1.238 -33.705  1.00  0.00     0.050 A 
HETATM    2  C   UNL     1      -5.319  -1.165 -33.147  1.00  0.00     0.058 A 
HETATM    3  C   UNL     1      -4.340  -2.104 -33.529  1.00  0.00     0.019 A 
HETATM    4  C   UNL     1      -4.639  -3.108 -34.450  1.00  0.00     0.001 A 
HETATM    5  C   UNL     1      -5.925  -3.207 -34.969  1.00  0.00     0.002 A 
HETATM    6  C   UNL     1      -6.906  -2.289 -34.587  1.00  0.00     0.030 A 
ENDROOT
BRANCH   2   7
HETATM    7  C   UNL     1      -4.983  -0.265 -32.007  1.00  0.00     0.253 C 
HETATM    8  N   UNL     1      -3.848   0.503 -32.188  1.00  0.00    -0.356 N 
HETATM    9  H   UNL     1      -3.531   0.615 -33.142  1.00  0.00     0.162 HD
HETATM   10  O   UNL     1      -5.662  -0.268 -30.988  1.00  0.00    -0.268 OA
BRANCH   8  11
HETATM   11  C   UNL     1      -3.449   1.529 -31.240  1.00  0.00     0.127 C 
BRANCH  11  12
HETATM   12  C   UNL     1      -4.110   2.894 -31.474  1.00  0.00     0.061 C 
BRANCH  12  13
HETATM   13  C   UNL     1      -3.261   3.960 -32.155  1.00  0.00    -0.021 A 
HETATM   14  C   UNL     1      -3.710   4.522 -33.370  1.00  0.00     0.074 A 
HETATM   15  C   UNL     1      -2.962   5.526 -33.991  1.00  0.00     0.040 A 
HETATM   16  C   UNL     1      -1.757   5.954 -33.435  1.00  0.00     0.039 A 
HETATM   17  C   UNL     1      -1.275   5.381 -32.260  1.00  0.00     0.068 A 
HETATM   18  C   UNL     1      -2.025   4.386 -31.628  1.00  0.00     0.046 A 
BRANCH  14  19
HETATM   19  O   UNL     1      -4.899   4.041 -33.854  1.00  0.00    -0.355 OA
HETATM   20  C   UNL     1      -6.006   4.934 -33.852  1.00  0.00     0.210 C 
ENDBRANCH  14  19
BRANCH  17  21
HETATM   21  O   UNL     1      -0.078   5.883 -31.831  1.00  0.00    -0.356 OA
HETATM   22  C   UNL     1       0.485   5.301 -30.662  1.00  0.00     0.210 C 
ENDBRANCH  17  21
ENDBRANCH  12  13
ENDBRANCH  11  12
ENDBRANCH   8  11
ENDBRANCH   2   7
BRANCH   1  23
HETATM   23  N   UNL     1      -7.661  -0.337 -33.452  1.00  0.00    -0.321 N 
HETATM   24  C   UNL     1      -7.716   0.984 -33.857  1.00  0.00     0.265 C 
HETATM   25  O   UNL     1      -6.926   1.506 -34.638  1.00  0.00    -0.267 OA
HETATM   26  H   UNL     1      -8.541  -0.720 -33.124  1.00  0.00     0.169 HD
BRANCH  24  27
HETATM   27  C   UNL     1      -8.946   1.716 -33.348  1.00  0.00     0.097 C 
HETATM   28  C   UNL     1      -8.898   2.455 -32.214  1.00  0.00     0.064 C 
HETATM   29  C   UNL     1      -7.696   2.516 -31.307  1.00  0.00     0.078 C 
HETATM   30  O   UNL     1      -9.945   3.204 -31.696  1.00  0.00    -0.353 OA
HETATM   31  C   UNL     1     -11.039   3.486 -32.569  1.00  0.00     0.185 C 
HETATM   32  C   UNL     1     -11.611   2.221 -33.172  1.00  0.00     0.106 C 
HETATM   33  S   UNL     1     -10.391   1.549 -34.326  1.00  0.00    -0.120 SA
ENDBRANCH  24  27
ENDBRANCH   1  23
TORSDOF 8
ENDMDL
MODEL 3
REMARK VINA RESULT:      -7.6      4.302      8.683
REMARK  8 active torsions:
REMARK  status: ('A' for Active; 'I' for Inactive)
REMARK    1  A    between atoms: C_7  and  C_8 
REMARK       I    between atoms: C_8  and  N_9 
REMARK    2  A    between atoms: N_9  and  C_10 
REMARK    3  A    between atoms: C_11  and  C_12 
REMARK       I    between atoms: C_12  and  N_13 
REMARK    4  A    between atoms: N_13  and  C_14 
REMARK    5  A    between atoms: C_14  and  C_15 
REMARK    6  A    between atoms: C_15  and  C_16 
REMARK    7  A    between atoms: C_17  and  O_18 
REMARK    8  A    between atoms: C_22  and  O_23 
ROOT
HETATM    1  C   UNL     1      -1.811   5.803 -31.835  1.00  0.00     0.050 A 
HETATM    2  C   UNL     1      -2.476   4.697 -32.392  1.00  0.00     0.058 A 
HETATM    3  C   UNL     1      -2.359   4.438 -33.772  1.00  0.00     0.019 A 
HETATM    4  C   UNL     1      -1.597   5.271 -34.591  1.00  0.00     0.001 A 
HETATM    5  C   UNL     1      -0.974   6.390 -34.048  1.00  0.00     0.002 A 
HETATM    6  C   UNL     1      -1.094   6.662 -32.684  1.00  0.00     0.030 A 
ENDROOT
BRANCH   2   7
HETATM    7  C   UNL     1      -3.475   3.890 -31.635  1.00  0.00     0.253 C 
HETATM    8  N   UNL     1      -3.527   2.554 -31.984  1.00  0.00    -0.356 N 
HETATM    9  H   UNL     1      -2.721   2.188 -32.473  1.00  0.00     0.162 HD
HETATM   10  O   UNL     1      -4.205   4.419 -30.805  1.00  0.00    -0.268 OA
BRANCH   8  11
HETATM   11  C   UNL     1      -4.344   1.596 -31.259  1.00  0.00     0.127 C 
BRANCH  11  12
HETATM   12  C   UNL     1      -3.863   0.143 -31.375  1.00  0.00     0.061 C 
BRANCH  12  13
HETATM   13  C   UNL     1      -4.459  -0.688 -32.504  1.00  0.00    -0.021 A 
HETATM   14  C   UNL     1      -3.931  -1.972 -32.764  1.00  0.00     0.074 A 
HETATM   15  C   UNL     1      -4.487  -2.763 -33.772  1.00  0.00     0.040 A 
HETATM   16  C   UNL     1      -5.542  -2.280 -34.546  1.00  0.00     0.039 A 
HETATM   17  C   UNL     1      -6.048  -0.999 -34.334  1.00  0.00     0.068 A 
HETATM   18  C   UNL     1      -5.504  -0.209 -33.319  1.00  0.00     0.046 A 
BRANCH  14  19
HETATM   19  O   UNL     1      -2.890  -2.369 -31.964  1.00  0.00    -0.355 OA
HETATM   20  C   UNL     1      -2.819  -3.751 -31.636  1.00  0.00     0.210 C 
ENDBRANCH  14  19
BRANCH  17  21
HETATM   21  O   UNL     1      -7.072  -0.646 -35.170  1.00  0.00    -0.356 OA
HETATM   22  C   UNL     1      -7.613   0.659 -35.012  1.00  0.00     0.210 C 
ENDBRANCH  17  21
ENDBRANCH  12  13
ENDBRANCH  11  12
ENDBRANCH   8  11
ENDBRANCH   2   7
BRANCH   1  23
HETATM   23  N   UNL     1      -1.799   6.148 -30.468  1.00  0.00    -0.321 N 
HETATM   24  C   UNL     1      -2.021   7.410 -29.947  1.00  0.00     0.265 C 
HETATM   25  O   UNL     1      -2.425   8.371 -30.596  1.00  0.00    -0.267 OA
HETATM   26  H   UNL     1      -1.831   5.395 -29.790  1.00  0.00     0.169 HD
BRANCH  24  27
HETATM   27  C   UNL     1      -1.851   7.474 -28.439  1.00  0.00     0.097 C 
HETATM   28  C   UNL     1      -0.640   7.723 -27.884  1.00  0.00     0.064 C 
HETATM   29  C   UNL     1       0.636   7.829 -28.678  1.00  0.00     0.078 C 
HETATM   30  O   UNL     1      -0.389   7.856 -26.526  1.00  0.00    -0.353 OA
HETATM   31  C   UNL     1      -1.513   8.073 -25.674  1.00  0.00     0.185 C 
HETATM   32  C   UNL     1      -2.568   7.003 -25.860  1.00  0.00     0.106 C 
HETATM   33  S   UNL     1      -3.306   7.224 -27.496  1.00  0.00    -0.120 SA
ENDBRANCH  24  27
ENDBRANCH   1  23
TORSDOF 8
ENDMDL
MODEL 4
REMARK VINA RESULT:      -7.5      4.141      8.490
REMARK  8 active torsions:
REMARK  status: ('A' for Active; 'I' for Inactive)
REMARK    1  A    between atoms: C_7  and  C_8 
REMARK       I    between atoms: C_8  and  N_9 
REMARK    2  A    between atoms: N_9  and  C_10 
REMARK    3  A    between atoms: C_11  and  C_12 
REMARK       I    between atoms: C_12  and  N_13 
REMARK    4  A    between atoms: N_13  and  C_14 
REMARK    5  A    between atoms: C_14  and  C_15 
REMARK    6  A    between atoms: C_15  and  C_16 
REMARK    7  A    between atoms: C_17  and  O_18 
REMARK    8  A    between atoms: C_22  and  O_23 
ROOT
HETATM    1  C   UNL     1      -1.870   5.686 -31.921  1.00  0.00     0.050 A 
HETATM    2  C   UNL     1      -2.499   4.551 -32.461  1.00  0.00     0.058 A 
HETATM    3  C   UNL     1      -2.430   4.310 -33.848  1.00  0.00     0.019 A 
HETATM    4  C   UNL     1      -1.751   5.191 -34.689  1.00  0.00     0.001 A 
HETATM    5  C   UNL     1      -1.166   6.337 -34.161  1.00  0.00     0.002 A 
HETATM    6  C   UNL     1      -1.239   6.590 -32.790  1.00  0.00     0.030 A 
ENDROOT
BRANCH   2   7
HETATM    7  C   UNL     1      -3.418   3.683 -31.670  1.00  0.00     0.253 C 
HETATM    8  N   UNL     1      -3.361   2.339 -31.983  1.00  0.00    -0.356 N 
HETATM    9  H   UNL     1      -2.533   2.028 -32.472  1.00  0.00     0.162 HD
HETATM   10  O   UNL     1      -4.182   4.171 -30.846  1.00  0.00    -0.268 OA
BRANCH   8  11
HETATM   11  C   UNL     1      -4.087   1.336 -31.223  1.00  0.00     0.127 C 
BRANCH  11  12
HETATM   12  C   UNL     1      -5.505   1.056 -31.742  1.00  0.00     0.061 C 
BRANCH  12  13
HETATM   13  C   UNL     1      -5.660  -0.101 -32.720  1.00  0.00    -0.021 A 
HETATM   14  C   UNL     1      -6.833  -0.186 -33.503  1.00  0.00     0.074 A 
HETATM   15  C   UNL     1      -6.978  -1.220 -34.431  1.00  0.00     0.040 A 
HETATM   16  C   UNL     1      -5.984  -2.190 -34.567  1.00  0.00     0.039 A 
HETATM   17  C   UNL     1      -4.840  -2.148 -33.773  1.00  0.00     0.068 A 
HETATM   18  C   UNL     1      -4.684  -1.110 -32.853  1.00  0.00     0.046 A 
BRANCH  14  19
HETATM   19  O   UNL     1      -7.764   0.801 -33.302  1.00  0.00    -0.355 OA
HETATM   20  C   UNL     1      -8.823   0.889 -34.247  1.00  0.00     0.210 C 
ENDBRANCH  14  19
BRANCH  17  21
HETATM   21  O   UNL     1      -3.953  -3.165 -34.000  1.00  0.00    -0.356 OA
HETATM   22  C   UNL     1      -4.499  -4.459 -34.222  1.00  0.00     0.210 C 
ENDBRANCH  17  21
ENDBRANCH  12  13
ENDBRANCH  11  12
ENDBRANCH   8  11
ENDBRANCH   2   7
BRANCH   1  23
HETATM   23  N   UNL     1      -1.817   6.018 -30.552  1.00  0.00    -0.321 N 
HETATM   24  C   UNL     1      -2.290   7.186 -29.981  1.00  0.00     0.265 C 
HETATM   25  O   UNL     1      -2.974   8.020 -30.566  1.00  0.00    -0.267 OA
HETATM   26  H   UNL     1      -1.602   5.278 -29.894  1.00  0.00     0.169 HD
BRANCH  24  27
HETATM   27  C   UNL     1      -2.002   7.285 -28.492  1.00  0.00     0.097 C 
HETATM   28  C   UNL     1      -0.748   7.529 -28.040  1.00  0.00     0.064 C 
HETATM   29  C   UNL     1       0.463   7.597 -28.933  1.00  0.00     0.078 C 
HETATM   30  O   UNL     1      -0.390   7.692 -26.709  1.00  0.00    -0.353 OA
HETATM   31  C   UNL     1      -1.442   7.946 -25.778  1.00  0.00     0.185 C 
HETATM   32  C   UNL     1      -2.521   6.887 -25.854  1.00  0.00     0.106 C 
HETATM   33  S   UNL     1      -3.383   7.079 -27.433  1.00  0.00    -0.120 SA
ENDBRANCH  24  27
ENDBRANCH   1  23
TORSDOF 8
ENDMDL
MODEL 5
REMARK VINA RESULT:      -7.4      1.375      2.957
REMARK  8 active torsions:
REMARK  status: ('A' for Active; 'I' for Inactive)
REMARK    1  A    between atoms: C_7  and  C_8 
REMARK       I    between atoms: C_8  and  N_9 
REMARK    2  A    between atoms: N_9  and  C_10 
REMARK    3  A    between atoms: C_11  and  C_12 
REMARK       I    between atoms: C_12  and  N_13 
REMARK    4  A    between atoms: N_13  and  C_14 
REMARK    5  A    between atoms: C_14  and  C_15 
REMARK    6  A    between atoms: C_15  and  C_16 
REMARK    7  A    between atoms: C_17  and  O_18 
REMARK    8  A    between atoms: C_22  and  O_23 
ROOT
HETATM    1  C   UNL     1      -6.537  -1.260 -33.820  1.00  0.00     0.050 A 
HETATM    2  C   UNL     1      -5.288  -1.235 -33.176  1.00  0.00     0.058 A 
HETATM    3  C   UNL     1      -4.360  -2.267 -33.415  1.00  0.00     0.019 A 
HETATM    4  C   UNL     1      -4.671  -3.316 -34.280  1.00  0.00     0.001 A 
HETATM    5  C   UNL     1      -5.922  -3.365 -34.885  1.00  0.00     0.002 A 
HETATM    6  C   UNL     1      -6.853  -2.353 -34.644  1.00  0.00     0.030 A 
ENDROOT
BRANCH   2   7
HETATM    7  C   UNL     1      -4.963  -0.275 -32.082  1.00  0.00     0.253 C 
HETATM    8  N   UNL     1      -3.707   0.294 -32.163  1.00  0.00    -0.356 N 
HETATM    9  H   UNL     1      -3.255   0.255 -33.067  1.00  0.00     0.162 HD
HETATM   10  O   UNL     1      -5.761  -0.067 -31.176  1.00  0.00    -0.268 OA
BRANCH   8  11
HETATM   11  C   UNL     1      -3.275   1.348 -31.261  1.00  0.00     0.127 C 
BRANCH  11  12
HETATM   12  C   UNL     1      -3.156   2.731 -31.918  1.00  0.00     0.061 C 
BRANCH  12  13
HETATM   13  C   UNL     1      -4.191   3.772 -31.515  1.00  0.00    -0.021 A 
HETATM   14  C   UNL     1      -4.100   5.075 -32.052  1.00  0.00     0.074 A 
HETATM   15  C   UNL     1      -5.061   6.034 -31.721  1.00  0.00     0.040 A 
HETATM   16  C   UNL     1      -6.094   5.721 -30.837  1.00  0.00     0.039 A 
HETATM   17  C   UNL     1      -6.176   4.454 -30.263  1.00  0.00     0.068 A 
HETATM   18  C   UNL     1      -5.225   3.489 -30.599  1.00  0.00     0.046 A 
BRANCH  14  19
HETATM   19  O   UNL     1      -3.052   5.303 -32.906  1.00  0.00    -0.355 OA
HETATM   20  C   UNL     1      -3.375   5.647 -34.247  1.00  0.00     0.210 C 
ENDBRANCH  14  19
BRANCH  17  21
HETATM   21  O   UNL     1      -7.228   4.286 -29.405  1.00  0.00    -0.356 OA
HETATM   22  C   UNL     1      -8.476   4.845 -29.797  1.00  0.00     0.210 C 
ENDBRANCH  17  21
ENDBRANCH  12  13
ENDBRANCH  11  12
ENDBRANCH   8  11
ENDBRANCH   2   7
BRANCH   1  23
HETATM   23  N   UNL     1      -7.534  -0.270 -33.712  1.00  0.00    -0.321 N 
HETATM   24  C   UNL     1      -7.728   0.788 -34.582  1.00  0.00     0.265 C 
HETATM   25  O   UNL     1      -7.159   0.913 -35.663  1.00  0.00    -0.267 OA
HETATM   26  H   UNL     1      -8.300  -0.439 -33.070  1.00  0.00     0.169 HD
BRANCH  24  27
HETATM   27  C   UNL     1      -8.831   1.734 -34.140  1.00  0.00     0.097 C 
HETATM   28  C   UNL     1      -8.559   3.024 -33.826  1.00  0.00     0.064 C 
HETATM   29  C   UNL     1      -7.165   3.592 -33.764  1.00  0.00     0.078 C 
HETATM   30  O   UNL     1      -9.497   3.980 -33.466  1.00  0.00    -0.353 OA
HETATM   31  C   UNL     1     -10.865   3.692 -33.756  1.00  0.00     0.185 C 
HETATM   32  C   UNL     1     -11.291   2.362 -33.171  1.00  0.00     0.106 C 
HETATM   33  S   UNL     1     -10.444   1.051 -34.084  1.00  0.00    -0.120 SA
ENDBRANCH  24  27
ENDBRANCH   1  23
TORSDOF 8
ENDMDL
MODEL 6
REMARK VINA RESULT:      -7.3      2.578      4.081
REMARK  8 active torsions:
REMARK  status: ('A' for Active; 'I' for Inactive)
REMARK    1  A    between atoms: C_7  and  C_8 
REMARK       I    between atoms: C_8  and  N_9 
REMARK    2  A    between atoms: N_9  and  C_10 
REMARK    3  A    between atoms: C_11  and  C_12 
REMARK       I    between atoms: C_12  and  N_13 
REMARK    4  A    between atoms: N_13  and  C_14 
REMARK    5  A    between atoms: C_14  and  C_15 
REMARK    6  A    between atoms: C_15  and  C_16 
REMARK    7  A    between atoms: C_17  and  O_18 
REMARK    8  A    between atoms: C_22  and  O_23 
ROOT
HETATM    1  C   UNL     1      -7.580   0.402 -33.909  1.00  0.00     0.050 A 
HETATM    2  C   UNL     1      -6.243   0.787 -33.709  1.00  0.00     0.058 A 
HETATM    3  C   UNL     1      -5.229  -0.191 -33.710  1.00  0.00     0.019 A 
HETATM    4  C   UNL     1      -5.539  -1.537 -33.899  1.00  0.00     0.001 A 
HETATM    5  C   UNL     1      -6.866  -1.924 -34.054  1.00  0.00     0.002 A 
HETATM    6  C   UNL     1      -7.879  -0.964 -34.043  1.00  0.00     0.030 A 
ENDROOT
BRANCH   2   7
HETATM    7  C   UNL     1      -5.853   2.164 -33.289  1.00  0.00     0.253 C 
HETATM    8  N   UNL     1      -4.872   2.219 -32.318  1.00  0.00    -0.356 N 
HETATM    9  H   UNL     1      -4.311   1.385 -32.200  1.00  0.00     0.162 HD
HETATM   10  O   UNL     1      -6.416   3.143 -33.762  1.00  0.00    -0.268 OA
BRANCH   8  11
HETATM   11  C   UNL     1      -4.278   3.473 -31.888  1.00  0.00     0.127 C 
BRANCH  11  12
HETATM   12  C   UNL     1      -2.764   3.567 -32.125  1.00  0.00     0.061 C 
BRANCH  12  13
HETATM   13  C   UNL     1      -2.169   4.967 -32.204  1.00  0.00    -0.021 A 
HETATM   14  C   UNL     1      -2.041   5.589 -33.465  1.00  0.00     0.074 A 
HETATM   15  C   UNL     1      -1.530   6.886 -33.554  1.00  0.00     0.040 A 
HETATM   16  C   UNL     1      -1.115   7.561 -32.406  1.00  0.00     0.039 A 
HETATM   17  C   UNL     1      -1.191   6.947 -31.157  1.00  0.00     0.068 A 
HETATM   18  C   UNL     1      -1.713   5.656 -31.061  1.00  0.00     0.046 A 
BRANCH  14  19
HETATM   19  O   UNL     1      -2.465   4.856 -34.544  1.00  0.00    -0.355 OA
HETATM   20  C   UNL     1      -3.655   5.290 -35.191  1.00  0.00     0.210 C 
ENDBRANCH  14  19
BRANCH  17  21
HETATM   21  O   UNL     1      -0.738   7.714 -30.118  1.00  0.00    -0.356 OA
HETATM   22  C   UNL     1       0.380   7.221 -29.393  1.00  0.00     0.210 C 
ENDBRANCH  17  21
ENDBRANCH  12  13
ENDBRANCH  11  12
ENDBRANCH   8  11
ENDBRANCH   2   7
BRANCH   1  23
HETATM   23  N   UNL     1      -8.682   1.278 -33.983  1.00  0.00    -0.321 N 
HETATM   24  C   UNL     1      -9.528   1.609 -32.941  1.00  0.00     0.265 C 
HETATM   25  O   UNL     1      -9.333   1.314 -31.765  1.00  0.00    -0.267 OA
HETATM   26  H   UNL     1      -8.758   1.873 -34.800  1.00  0.00     0.169 HD
BRANCH  24  27
HETATM   27  C   UNL     1     -10.677   2.508 -33.364  1.00  0.00     0.097 C 
HETATM   28  C   UNL     1     -11.902   1.996 -33.630  1.00  0.00     0.064 C 
HETATM   29  C   UNL     1     -12.202   0.519 -33.656  1.00  0.00     0.078 C 
HETATM   30  O   UNL     1     -13.028   2.733 -33.968  1.00  0.00    -0.353 OA
HETATM   31  C   UNL     1     -12.991   4.136 -33.705  1.00  0.00     0.185 C 
HETATM   32  C   UNL     1     -11.783   4.790 -34.341  1.00  0.00     0.106 C 
HETATM   33  S   UNL     1     -10.309   4.219 -33.463  1.00  0.00    -0.120 SA
ENDBRANCH  24  27
ENDBRANCH   1  23
TORSDOF 8
ENDMDL
MODEL 7
REMARK VINA RESULT:      -7.3     14.973     16.958
REMARK  8 active torsions:
REMARK  status: ('A' for Active; 'I' for Inactive)
REMARK    1  A    between atoms: C_7  and  C_8 
REMARK       I    between atoms: C_8  and  N_9 
REMARK    2  A    between atoms: N_9  and  C_10 
REMARK    3  A    between atoms: C_11  and  C_12 
REMARK       I    between atoms: C_12  and  N_13 
REMARK    4  A    between atoms: N_13  and  C_14 
REMARK    5  A    between atoms: C_14  and  C_15 
REMARK    6  A    between atoms: C_15  and  C_16 
REMARK    7  A    between atoms: C_17  and  O_18 
REMARK    8  A    between atoms: C_22  and  O_23 
ROOT
HETATM    1  C   UNL     1      -2.370 -14.158 -37.191  1.00  0.00     0.050 A 
HETATM    2  C   UNL     1      -2.567 -13.450 -38.389  1.00  0.00     0.058 A 
HETATM    3  C   UNL     1      -1.534 -13.400 -39.347  1.00  0.00     0.019 A 
HETATM    4  C   UNL     1      -0.317 -14.040 -39.114  1.00  0.00     0.001 A 
HETATM    5  C   UNL     1      -0.105 -14.704 -37.910  1.00  0.00     0.002 A 
HETATM    6  C   UNL     1      -1.118 -14.748 -36.950  1.00  0.00     0.030 A 
ENDROOT
BRANCH   2   7
HETATM    7  C   UNL     1      -3.746 -12.568 -38.621  1.00  0.00     0.253 C 
HETATM    8  N   UNL     1      -4.220 -12.561 -39.919  1.00  0.00    -0.356 N 
HETATM    9  H   UNL     1      -3.944 -13.341 -40.501  1.00  0.00     0.162 HD
HETATM   10  O   UNL     1      -4.202 -11.883 -37.713  1.00  0.00    -0.268 OA
BRANCH   8  11
HETATM   11  C   UNL     1      -5.439 -11.865 -40.294  1.00  0.00     0.127 C 
BRANCH  11  12
HETATM   12  C   UNL     1      -6.436 -12.723 -41.087  1.00  0.00     0.061 C 
BRANCH  12  13
HETATM   13  C   UNL     1      -7.331 -13.654 -40.280  1.00  0.00    -0.021 A 
HETATM   14  C   UNL     1      -8.632 -13.228 -39.935  1.00  0.00     0.074 A 
HETATM   15  C   UNL     1      -9.481 -14.082 -39.226  1.00  0.00     0.040 A 
HETATM   16  C   UNL     1      -9.039 -15.344 -38.829  1.00  0.00     0.039 A 
HETATM   17  C   UNL     1      -7.744 -15.766 -39.122  1.00  0.00     0.068 A 
HETATM   18  C   UNL     1      -6.896 -14.921 -39.841  1.00  0.00     0.046 A 
BRANCH  14  19
HETATM   19  O   UNL     1      -8.987 -11.972 -40.356  1.00  0.00    -0.355 OA
HETATM   20  C   UNL     1     -10.376 -11.674 -40.401  1.00  0.00     0.210 C 
ENDBRANCH  14  19
BRANCH  17  21
HETATM   21  O   UNL     1      -7.436 -17.018 -38.663  1.00  0.00    -0.356 OA
HETATM   22  C   UNL     1      -8.491 -17.766 -38.071  1.00  0.00     0.210 C 
ENDBRANCH  17  21
ENDBRANCH  12  13
ENDBRANCH  11  12
ENDBRANCH   8  11
ENDBRANCH   2   7
BRANCH   1  23
HETATM   23  N   UNL     1      -3.331 -14.331 -36.175  1.00  0.00    -0.321 N 
HETATM   24  C   UNL     1      -4.422 -15.179 -36.224  1.00  0.00     0.265 C 
HETATM   25  O   UNL     1      -4.608 -16.023 -37.096  1.00  0.00    -0.267 OA
HETATM   26  H   UNL     1      -3.116 -13.967 -35.254  1.00  0.00     0.169 HD
BRANCH  24  27
HETATM   27  C   UNL     1      -5.322 -15.071 -35.005  1.00  0.00     0.097 C 
HETATM   28  C   UNL     1      -6.491 -14.388 -35.061  1.00  0.00     0.064 C 
HETATM   29  C   UNL     1      -6.936 -13.590 -36.259  1.00  0.00     0.078 C 
HETATM   30  O   UNL     1      -7.408 -14.276 -34.025  1.00  0.00    -0.353 OA
HETATM   31  C   UNL     1      -7.283 -15.197 -32.942  1.00  0.00     0.185 C 
HETATM   32  C   UNL     1      -5.890 -15.175 -32.349  1.00  0.00     0.106 C 
HETATM   33  S   UNL     1      -4.754 -15.888 -33.563  1.00  0.00    -0.120 SA
ENDBRANCH  24  27
ENDBRANCH   1  23
TORSDOF 8
ENDMDL
MODEL 8
REMARK VINA RESULT:      -7.3      2.026      2.860
REMARK  8 active torsions:
REMARK  status: ('A' for Active; 'I' for Inactive)
REMARK    1  A    between atoms: C_7  and  C_8 
REMARK       I    between atoms: C_8  and  N_9 
REMARK    2  A    between atoms: N_9  and  C_10 
REMARK    3  A    between atoms: C_11  and  C_12 
REMARK       I    between atoms: C_12  and  N_13 
REMARK    4  A    between atoms: N_13  and  C_14 
REMARK    5  A    between atoms: C_14  and  C_15 
REMARK    6  A    between atoms: C_15  and  C_16 
REMARK    7  A    between atoms: C_17  and  O_18 
REMARK    8  A    between atoms: C_22  and  O_23 
ROOT
HETATM    1  C   UNL     1      -7.220  -0.053 -33.603  1.00  0.00     0.050 A 
HETATM    2  C   UNL     1      -6.154  -0.247 -32.707  1.00  0.00     0.058 A 
HETATM    3  C   UNL     1      -5.200  -1.251 -32.967  1.00  0.00     0.019 A 
HETATM    4  C   UNL     1      -5.307  -2.057 -34.100  1.00  0.00     0.001 A 
HETATM    5  C   UNL     1      -6.384  -1.894 -34.964  1.00  0.00     0.002 A 
HETATM    6  C   UNL     1      -7.342  -0.911 -34.708  1.00  0.00     0.030 A 
ENDROOT
BRANCH   2   7
HETATM    7  C   UNL     1      -6.087   0.420 -31.375  1.00  0.00     0.253 C 
HETATM    8  N   UNL     1      -5.427   1.633 -31.366  1.00  0.00    -0.356 N 
HETATM    9  H   UNL     1      -5.320   2.092 -32.261  1.00  0.00     0.162 HD
HETATM   10  O   UNL     1      -6.555  -0.122 -30.382  1.00  0.00    -0.268 OA
BRANCH   8  11
HETATM   11  C   UNL     1      -5.383   2.482 -30.188  1.00  0.00     0.127 C 
BRANCH  11  12
HETATM   12  C   UNL     1      -5.406   3.986 -30.492  1.00  0.00     0.061 C 
BRANCH  12  13
HETATM   13  C   UNL     1      -4.674   4.442 -31.748  1.00  0.00    -0.021 A 
HETATM   14  C   UNL     1      -5.386   4.530 -32.964  1.00  0.00     0.074 A 
HETATM   15  C   UNL     1      -4.740   4.980 -34.119  1.00  0.00     0.040 A 
HETATM   16  C   UNL     1      -3.386   5.313 -34.085  1.00  0.00     0.039 A 
HETATM   17  C   UNL     1      -2.655   5.191 -32.905  1.00  0.00     0.068 A 
HETATM   18  C   UNL     1      -3.299   4.754 -31.745  1.00  0.00     0.046 A 
BRANCH  14  19
HETATM   19  O   UNL     1      -6.710   4.177 -32.914  1.00  0.00    -0.355 OA
HETATM   20  C   UNL     1      -7.604   4.904 -33.748  1.00  0.00     0.210 C 
ENDBRANCH  14  19
BRANCH  17  21
HETATM   21  O   UNL     1      -1.337   5.538 -33.014  1.00  0.00    -0.356 OA
HETATM   22  C   UNL     1      -0.506   5.277 -31.890  1.00  0.00     0.210 C 
ENDBRANCH  17  21
ENDBRANCH  12  13
ENDBRANCH  11  12
ENDBRANCH   8  11
ENDBRANCH   2   7
BRANCH   1  23
HETATM   23  N   UNL     1      -8.211   0.943 -33.492  1.00  0.00    -0.321 N 
HETATM   24  C   UNL     1      -9.474   0.776 -32.955  1.00  0.00     0.265 C 
HETATM   25  O   UNL     1      -9.846  -0.224 -32.347  1.00  0.00    -0.267 OA
HETATM   26  H   UNL     1      -7.929   1.907 -33.627  1.00  0.00     0.169 HD
BRANCH  24  27
HETATM   27  C   UNL     1     -10.341   2.019 -33.063  1.00  0.00     0.097 C 
HETATM   28  C   UNL     1     -10.262   3.007 -32.140  1.00  0.00     0.064 C 
HETATM   29  C   UNL     1      -9.427   2.915 -30.889  1.00  0.00     0.078 C 
HETATM   30  O   UNL     1     -10.966   4.201 -32.176  1.00  0.00    -0.353 OA
HETATM   31  C   UNL     1     -11.565   4.567 -33.419  1.00  0.00     0.185 C 
HETATM   32  C   UNL     1     -12.462   3.469 -33.950  1.00  0.00     0.106 C 
HETATM   33  S   UNL     1     -11.413   2.082 -34.448  1.00  0.00    -0.120 SA
ENDBRANCH  24  27
ENDBRANCH   1  23
TORSDOF 8
ENDMDL
MODEL 9
REMARK VINA RESULT:      -7.3      1.979      3.247
REMARK  8 active torsions:
REMARK  status: ('A' for Active; 'I' for Inactive)
REMARK    1  A    between atoms: C_7  and  C_8 
REMARK       I    between atoms: C_8  and  N_9 
REMARK    2  A    between atoms: N_9  and  C_10 
REMARK    3  A    between atoms: C_11  and  C_12 
REMARK       I    between atoms: C_12  and  N_13 
REMARK    4  A    between atoms: N_13  and  C_14 
REMARK    5  A    between atoms: C_14  and  C_15 
REMARK    6  A    between atoms: C_15  and  C_16 
REMARK    7  A    between atoms: C_17  and  O_18 
REMARK    8  A    between atoms: C_22  and  O_23 
ROOT
HETATM    1  C   UNL     1      -6.562  -1.159 -33.680  1.00  0.00     0.050 A 
HETATM    2  C   UNL     1      -5.253  -1.064 -33.178  1.00  0.00     0.058 A 
HETATM    3  C   UNL     1      -4.294  -2.029 -33.545  1.00  0.00     0.019 A 
HETATM    4  C   UNL     1      -4.633  -3.080 -34.397  1.00  0.00     0.001 A 
HETATM    5  C   UNL     1      -5.939  -3.200 -34.860  1.00  0.00     0.002 A 
HETATM    6  C   UNL     1      -6.900  -2.256 -34.491  1.00  0.00     0.030 A 
ENDROOT
BRANCH   2   7
HETATM    7  C   UNL     1      -4.868  -0.105 -32.103  1.00  0.00     0.253 C 
HETATM    8  N   UNL     1      -3.836   0.752 -32.432  1.00  0.00    -0.356 N 
HETATM    9  H   UNL     1      -3.643   0.863 -33.418  1.00  0.00     0.162 HD
HETATM   10  O   UNL     1      -5.421  -0.137 -31.011  1.00  0.00    -0.268 OA
BRANCH   8  11
HETATM   11  C   UNL     1      -3.422   1.836 -31.558  1.00  0.00     0.127 C 
BRANCH  11  12
HETATM   12  C   UNL     1      -3.079   3.141 -32.291  1.00  0.00     0.061 C 
BRANCH  12  13
HETATM   13  C   UNL     1      -3.227   4.432 -31.498  1.00  0.00    -0.021 A 
HETATM   14  C   UNL     1      -2.081   5.215 -31.239  1.00  0.00     0.074 A 
HETATM   15  C   UNL     1      -2.202   6.420 -30.543  1.00  0.00     0.040 A 
HETATM   16  C   UNL     1      -3.446   6.841 -30.073  1.00  0.00     0.039 A 
HETATM   17  C   UNL     1      -4.583   6.062 -30.280  1.00  0.00     0.068 A 
HETATM   18  C   UNL     1      -4.469   4.862 -30.986  1.00  0.00     0.046 A 
BRANCH  14  19
HETATM   19  O   UNL     1      -0.895   4.727 -31.727  1.00  0.00    -0.355 OA
HETATM   20  C   UNL     1       0.296   5.164 -31.084  1.00  0.00     0.210 C 
ENDBRANCH  14  19
BRANCH  17  21
HETATM   21  O   UNL     1      -5.734   6.584 -29.757  1.00  0.00    -0.356 OA
HETATM   22  C   UNL     1      -5.671   7.915 -29.261  1.00  0.00     0.210 C 
ENDBRANCH  17  21
ENDBRANCH  12  13
ENDBRANCH  11  12
ENDBRANCH   8  11
ENDBRANCH   2   7
BRANCH   1  23
HETATM   23  N   UNL     1      -7.602  -0.239 -33.436  1.00  0.00    -0.321 N 
HETATM   24  C   UNL     1      -7.661   1.061 -33.901  1.00  0.00     0.265 C 
HETATM   25  O   UNL     1      -6.894   1.540 -34.731  1.00  0.00    -0.267 OA
HETATM   26  H   UNL     1      -8.473  -0.599 -33.062  1.00  0.00     0.169 HD
BRANCH  24  27
HETATM   27  C   UNL     1      -8.869   1.827 -33.389  1.00  0.00     0.097 C 
HETATM   28  C   UNL     1      -8.775   2.634 -32.304  1.00  0.00     0.064 C 
HETATM   29  C   UNL     1      -7.537   2.747 -31.453  1.00  0.00     0.078 C 
HETATM   30  O   UNL     1      -9.799   3.416 -31.791  1.00  0.00    -0.353 OA
HETATM   31  C   UNL     1     -10.928   3.647 -32.634  1.00  0.00     0.185 C 
HETATM   32  C   UNL     1     -11.525   2.349 -33.134  1.00  0.00     0.106 C 
HETATM   33  S   UNL     1     -10.353   1.605 -34.294  1.00  0.00    -0.120 SA
ENDBRANCH  24  27
ENDBRANCH   1  23
TORSDOF 8
ENDMDL
MODEL 10
REMARK VINA RESULT:      -7.2      4.107      8.477
REMARK  8 active torsions:
REMARK  status: ('A' for Active; 'I' for Inactive)
REMARK    1  A    between atoms: C_7  and  C_8 
REMARK       I    between atoms: C_8  and  N_9 
REMARK    2  A    between atoms: N_9  and  C_10 
REMARK    3  A    between atoms: C_11  and  C_12 
REMARK       I    between atoms: C_12  and  N_13 
REMARK    4  A    between atoms: N_13  and  C_14 
REMARK    5  A    between atoms: C_14  and  C_15 
REMARK    6  A    between atoms: C_15  and  C_16 
REMARK    7  A    between atoms: C_17  and  O_18 
REMARK    8  A    between atoms: C_22  and  O_23 
ROOT
HETATM    1  C   UNL     1      -2.001   5.904 -31.685  1.00  0.00     0.050 A 
HETATM    2  C   UNL     1      -2.450   4.712 -32.278  1.00  0.00     0.058 A 
HETATM    3  C   UNL     1      -2.180   4.467 -33.640  1.00  0.00     0.019 A 
HETATM    4  C   UNL     1      -1.479   5.399 -34.405  1.00  0.00     0.001 A 
HETATM    5  C   UNL     1      -1.072   6.598 -33.829  1.00  0.00     0.002 A 
HETATM    6  C   UNL     1      -1.346   6.855 -32.484  1.00  0.00     0.030 A 
ENDROOT
BRANCH   2   7
HETATM    7  C   UNL     1      -3.383   3.771 -31.595  1.00  0.00     0.253 C 
HETATM    8  N   UNL     1      -3.156   2.434 -31.858  1.00  0.00    -0.356 N 
HETATM    9  H   UNL     1      -2.243   2.198 -32.223  1.00  0.00     0.162 HD
HETATM   10  O   UNL     1      -4.295   4.195 -30.896  1.00  0.00    -0.268 OA
BRANCH   8  11
HETATM   11  C   UNL     1      -3.881   1.377 -31.175  1.00  0.00     0.127 C 
BRANCH  11  12
HETATM   12  C   UNL     1      -3.993   0.071 -31.975  1.00  0.00     0.061 C 
BRANCH  12  13
HETATM   13  C   UNL     1      -5.349  -0.239 -32.596  1.00  0.00    -0.021 A 
HETATM   14  C   UNL     1      -5.454  -1.295 -33.527  1.00  0.00     0.074 A 
HETATM   15  C   UNL     1      -6.696  -1.616 -34.080  1.00  0.00     0.040 A 
HETATM   16  C   UNL     1      -7.831  -0.878 -33.742  1.00  0.00     0.039 A 
HETATM   17  C   UNL     1      -7.740   0.196 -32.859  1.00  0.00     0.068 A 
HETATM   18  C   UNL     1      -6.503   0.514 -32.294  1.00  0.00     0.046 A 
BRANCH  14  19
HETATM   19  O   UNL     1      -4.292  -1.965 -33.811  1.00  0.00    -0.355 OA
HETATM   20  C   UNL     1      -4.409  -3.183 -34.536  1.00  0.00     0.210 C 
ENDBRANCH  14  19
BRANCH  17  21
HETATM   21  O   UNL     1      -8.924   0.841 -32.625  1.00  0.00    -0.356 OA
HETATM   22  C   UNL     1     -10.117   0.130 -32.928  1.00  0.00     0.210 C 
ENDBRANCH  17  21
ENDBRANCH  12  13
ENDBRANCH  11  12
ENDBRANCH   8  11
ENDBRANCH   2   7
BRANCH   1  23
HETATM   23  N   UNL     1      -2.156   6.253 -30.328  1.00  0.00    -0.321 N 
HETATM   24  C   UNL     1      -2.989   7.238 -29.832  1.00  0.00     0.265 C 
HETATM   25  O   UNL     1      -3.835   7.833 -30.494  1.00  0.00    -0.267 OA
HETATM   26  H   UNL     1      -1.790   5.613 -29.631  1.00  0.00     0.169 HD
BRANCH  24  27
HETATM   27  C   UNL     1      -2.862   7.432 -28.330  1.00  0.00     0.097 C 
HETATM   28  C   UNL     1      -3.799   6.943 -27.483  1.00  0.00     0.064 C 
HETATM   29  C   UNL     1      -5.080   6.294 -27.939  1.00  0.00     0.078 C 
HETATM   30  O   UNL     1      -3.750   7.018 -26.099  1.00  0.00    -0.353 OA
HETATM   31  C   UNL     1      -2.489   7.333 -25.508  1.00  0.00     0.185 C 
HETATM   32  C   UNL     1      -1.912   8.612 -26.074  1.00  0.00     0.106 C 
HETATM   33  S   UNL     1      -1.439   8.301 -27.792  1.00  0.00    -0.120 SA
ENDBRANCH  24  27
ENDBRANCH   1  23
TORSDOF 8
ENDMDL
