MODEL 1
REMARK VINA RESULT:     -10.7      0.000      0.000
REMARK  6 active torsions:
REMARK  status: ('A' for Active; 'I' for Inactive)
REMARK    1  A    between atoms: C_4  and  C_5 
REMARK    2  A    between atoms: N_7  and  C_8 
REMARK    3  A    between atoms: C_19  and  N_20 
REMARK       I    between atoms: N_20  and  C_21 
REMARK    4  A    between atoms: C_21  and  C_22 
REMARK    5  A    between atoms: C_25  and  S_26 
REMARK    6  A    between atoms: S_26  and  N_27 
ROOT
HETATM    1  C   UNL     1     -10.912   1.339 -33.840  1.00  0.00     0.115 A 
HETATM    2  N   UNL     1      -9.966   0.468 -33.471  1.00  0.00    -0.148 NA
HETATM    3  N   UNL     1      -8.808   1.196 -33.526  1.00  0.00    -0.044 N 
HETATM    4  C   UNL     1      -9.027   2.514 -33.903  1.00  0.00     0.152 A 
HETATM    5  C   UNL     1     -10.382   2.609 -34.135  1.00  0.00     0.087 A 
ENDROOT
BRANCH   4   6
HETATM    6  N   UNL     1      -8.011   3.461 -33.976  1.00  0.00    -0.307 N 
HETATM    7  C   UNL     1      -7.752   4.344 -32.945  1.00  0.00     0.257 C 
HETATM    8  O   UNL     1      -8.470   4.543 -31.971  1.00  0.00    -0.267 OA
HETATM    9  H   UNL     1      -7.484   3.520 -34.847  1.00  0.00     0.170 HD
BRANCH   7  10
HETATM   10  C   UNL     1      -6.487   5.122 -33.054  1.00  0.00     0.032 A 
HETATM   11  C   UNL     1      -5.475   4.754 -33.952  1.00  0.00     0.018 A 
HETATM   12  C   UNL     1      -4.235   5.400 -33.909  1.00  0.00     0.026 A 
HETATM   13  C   UNL     1      -4.014   6.417 -32.972  1.00  0.00     0.079 A 
HETATM   14  C   UNL     1      -5.025   6.806 -32.090  1.00  0.00     0.026 A 
HETATM   15  C   UNL     1      -6.260   6.155 -32.132  1.00  0.00     0.018 A 
BRANCH  13  16
HETATM   16  S   UNL     1      -2.376   7.091 -32.795  1.00  0.00     0.260 S 
HETATM   17  O   UNL     1      -1.663   6.875 -34.036  1.00  0.00    -0.200 OA
HETATM   18  O   UNL     1      -2.536   8.424 -32.253  1.00  0.00    -0.200 OA
BRANCH  16  19
HETATM   19  N   UNL     1      -1.673   6.109 -31.593  1.00  0.00    -0.307 N 
HETATM   20  C   UNL     1      -0.255   5.704 -31.763  1.00  0.00     0.135 C 
HETATM   21  C   UNL     1       0.717   6.770 -31.264  1.00  0.00     0.021 C 
HETATM   22  C   UNL     1       0.393   7.222 -29.843  1.00  0.00     0.003 C 
HETATM   23  C   UNL     1      -1.072   7.622 -29.714  1.00  0.00     0.021 C 
HETATM   24  C   UNL     1      -1.986   6.500 -30.193  1.00  0.00     0.135 C 
ENDBRANCH  16  19
ENDBRANCH  13  16
ENDBRANCH   7  10
ENDBRANCH   4   6
BRANCH   3  25
HETATM   25  C   UNL     1      -7.584   0.562 -33.235  1.00  0.00     0.732 A 
HETATM   26  N   UNL     1      -6.663   1.087 -32.487  1.00  0.00    -0.067 NA
HETATM   27  C   UNL     1      -5.510   0.343 -32.342  1.00  0.00     0.065 A 
HETATM   28  C   UNL     1      -5.306  -0.862 -32.910  1.00  0.00     0.036 A 
HETATM   29  C   UNL     1      -4.442   0.986 -31.485  1.00  0.00     0.060 C 
HETATM   30  C   UNL     1      -4.037  -1.655 -32.796  1.00  0.00     0.046 C 
HETATM   31  C   UNL     1      -6.397  -1.441 -33.731  1.00  0.00     0.268 A 
HETATM   32  C   UNL     1      -2.872  -0.830 -32.246  1.00  0.00     0.005 C 
HETATM   33  C   UNL     1      -3.321   0.029 -31.070  1.00  0.00     0.006 C 
HETATM   34  O   UNL     1      -6.308  -2.540 -34.264  1.00  0.00    -0.267 OA
HETATM   35  N   UNL     1      -7.499  -0.656 -33.847  1.00  0.00    -0.152 N 
HETATM   36  H   UNL     1      -8.279  -0.983 -34.410  1.00  0.00     0.188 HD
ENDBRANCH   3  25
BRANCH   1  37
HETATM   37  C   UNL     1     -12.361   0.985 -33.908  1.00  0.00     0.105 A 
HETATM   38  O   UNL     1     -12.885  -0.205 -33.482  1.00  0.00    -0.320 OA
HETATM   39  C   UNL     1     -14.222  -0.164 -33.712  1.00  0.00     0.142 A 
HETATM   40  C   UNL     1     -14.576   1.034 -34.282  1.00  0.00     0.027 A 
HETATM   41  C   UNL     1     -13.376   1.777 -34.408  1.00  0.00     0.041 A 
ENDBRANCH   1  37
TORSDOF 6
ENDMDL
MODEL 2
REMARK VINA RESULT:     -10.5      2.814      9.017
REMARK  6 active torsions:
REMARK  status: ('A' for Active; 'I' for Inactive)
REMARK    1  A    between atoms: C_4  and  C_5 
REMARK    2  A    between atoms: N_7  and  C_8 
REMARK    3  A    between atoms: C_19  and  N_20 
REMARK       I    between atoms: N_20  and  C_21 
REMARK    4  A    between atoms: C_21  and  C_22 
REMARK    5  A    between atoms: C_25  and  S_26 
REMARK    6  A    between atoms: S_26  and  N_27 
ROOT
HETATM    1  C   UNL     1      -2.470   4.562 -31.429  1.00  0.00     0.115 A 
HETATM    2  N   UNL     1      -2.604   3.343 -31.964  1.00  0.00    -0.148 NA
HETATM    3  N   UNL     1      -3.957   3.196 -32.113  1.00  0.00    -0.044 N 
HETATM    4  C   UNL     1      -4.662   4.317 -31.698  1.00  0.00     0.152 A 
HETATM    5  C   UNL     1      -3.711   5.196 -31.227  1.00  0.00     0.087 A 
ENDROOT
BRANCH   4   6
HETATM    6  N   UNL     1      -6.045   4.425 -31.803  1.00  0.00    -0.307 N 
HETATM    7  C   UNL     1      -6.656   4.995 -32.905  1.00  0.00     0.257 C 
HETATM    8  O   UNL     1      -6.096   5.632 -33.789  1.00  0.00    -0.267 OA
HETATM    9  H   UNL     1      -6.603   4.112 -31.010  1.00  0.00     0.170 HD
BRANCH   7  10
HETATM   10  C   UNL     1      -8.131   4.814 -32.997  1.00  0.00     0.032 A 
HETATM   11  C   UNL     1      -8.859   4.185 -31.976  1.00  0.00     0.018 A 
HETATM   12  C   UNL     1     -10.210   3.880 -32.170  1.00  0.00     0.026 A 
HETATM   13  C   UNL     1     -10.831   4.211 -33.380  1.00  0.00     0.079 A 
HETATM   14  C   UNL     1     -10.120   4.860 -34.392  1.00  0.00     0.026 A 
HETATM   15  C   UNL     1      -8.769   5.159 -34.199  1.00  0.00     0.018 A 
BRANCH  13  16
HETATM   16  S   UNL     1     -12.490   3.642 -33.688  1.00  0.00     0.260 S 
HETATM   17  O   UNL     1     -13.064   3.225 -32.427  1.00  0.00    -0.200 OA
HETATM   18  O   UNL     1     -13.130   4.658 -34.497  1.00  0.00    -0.200 OA
BRANCH  16  19
HETATM   19  N   UNL     1     -12.258   2.259 -34.656  1.00  0.00    -0.307 N 
HETATM   20  C   UNL     1     -11.066   1.413 -34.392  1.00  0.00     0.135 C 
HETATM   21  C   UNL     1     -11.303   0.413 -33.263  1.00  0.00     0.021 C 
HETATM   22  C   UNL     1     -12.575  -0.401 -33.476  1.00  0.00     0.003 C 
HETATM   23  C   UNL     1     -13.770   0.507 -33.749  1.00  0.00     0.021 C 
HETATM   24  C   UNL     1     -13.480   1.451 -34.909  1.00  0.00     0.135 C 
ENDBRANCH  16  19
ENDBRANCH  13  16
ENDBRANCH   7  10
ENDBRANCH   4   6
BRANCH   3  25
HETATM   25  C   UNL     1      -4.463   1.983 -32.620  1.00  0.00     0.732 A 
HETATM   26  N   UNL     1      -5.580   1.887 -33.272  1.00  0.00    -0.067 NA
HETATM   27  C   UNL     1      -5.943   0.614 -33.661  1.00  0.00     0.065 A 
HETATM   28  C   UNL     1      -5.214  -0.493 -33.414  1.00  0.00     0.036 A 
HETATM   29  C   UNL     1      -7.261   0.525 -34.398  1.00  0.00     0.060 C 
HETATM   30  C   UNL     1      -5.625  -1.886 -33.791  1.00  0.00     0.046 C 
HETATM   31  C   UNL     1      -3.927  -0.335 -32.695  1.00  0.00     0.268 A 
HETATM   32  C   UNL     1      -7.098  -1.980 -34.192  1.00  0.00     0.005 C 
HETATM   33  C   UNL     1      -7.491  -0.818 -35.097  1.00  0.00     0.006 C 
HETATM   34  O   UNL     1      -3.190  -1.282 -32.450  1.00  0.00    -0.267 OA
HETATM   35  N   UNL     1      -3.633   0.938 -32.328  1.00  0.00    -0.152 N 
HETATM   36  H   UNL     1      -2.773   1.117 -31.816  1.00  0.00     0.188 HD
ENDBRANCH   3  25
BRANCH   1  37
HETATM   37  C   UNL     1      -1.143   5.166 -31.105  1.00  0.00     0.105 A 
HETATM   38  O   UNL     1      -0.125   4.502 -30.478  1.00  0.00    -0.320 OA
HETATM   39  C   UNL     1       0.908   5.373 -30.348  1.00  0.00     0.142 A 
HETATM   40  C   UNL     1       0.577   6.595 -30.881  1.00  0.00     0.027 A 
HETATM   41  C   UNL     1      -0.746   6.463 -31.370  1.00  0.00     0.041 A 
ENDBRANCH   1  37
TORSDOF 6
ENDMDL
MODEL 3
REMARK VINA RESULT:     -10.4      2.910      9.292
REMARK  6 active torsions:
REMARK  status: ('A' for Active; 'I' for Inactive)
REMARK    1  A    between atoms: C_4  and  C_5 
REMARK    2  A    between atoms: N_7  and  C_8 
REMARK    3  A    between atoms: C_19  and  N_20 
REMARK       I    between atoms: N_20  and  C_21 
REMARK    4  A    between atoms: C_21  and  C_22 
REMARK    5  A    between atoms: C_25  and  S_26 
REMARK    6  A    between atoms: S_26  and  N_27 
ROOT
HETATM    1  C   UNL     1      -2.558   4.520 -31.588  1.00  0.00     0.115 A 
HETATM    2  N   UNL     1      -2.636   3.274 -32.072  1.00  0.00    -0.148 NA
HETATM    3  N   UNL     1      -3.979   3.071 -32.244  1.00  0.00    -0.044 N 
HETATM    4  C   UNL     1      -4.733   4.183 -31.895  1.00  0.00     0.152 A 
HETATM    5  C   UNL     1      -3.825   5.115 -31.442  1.00  0.00     0.087 A 
ENDROOT
BRANCH   4   6
HETATM    6  N   UNL     1      -6.116   4.235 -32.036  1.00  0.00    -0.307 N 
HETATM    7  C   UNL     1      -6.721   4.675 -33.199  1.00  0.00     0.257 C 
HETATM    8  O   UNL     1      -6.161   5.241 -34.131  1.00  0.00    -0.267 OA
HETATM    9  H   UNL     1      -6.682   3.983 -31.226  1.00  0.00     0.170 HD
BRANCH   7  10
HETATM   10  C   UNL     1      -8.187   4.439 -33.300  1.00  0.00     0.032 A 
HETATM   11  C   UNL     1      -8.795   3.329 -32.695  1.00  0.00     0.018 A 
HETATM   12  C   UNL     1     -10.141   3.045 -32.952  1.00  0.00     0.026 A 
HETATM   13  C   UNL     1     -10.875   3.876 -33.807  1.00  0.00     0.079 A 
HETATM   14  C   UNL     1     -10.284   4.997 -34.394  1.00  0.00     0.026 A 
HETATM   15  C   UNL     1      -8.938   5.275 -34.141  1.00  0.00     0.018 A 
BRANCH  13  16
HETATM   16  S   UNL     1     -12.523   3.393 -34.280  1.00  0.00     0.260 S 
HETATM   17  O   UNL     1     -13.336   4.588 -34.359  1.00  0.00    -0.200 OA
HETATM   18  O   UNL     1     -12.382   2.514 -35.421  1.00  0.00    -0.200 OA
BRANCH  16  19
HETATM   19  N   UNL     1     -13.057   2.465 -32.955  1.00  0.00    -0.307 N 
HETATM   20  C   UNL     1     -13.756   3.165 -31.848  1.00  0.00     0.135 C 
HETATM   21  C   UNL     1     -15.242   3.363 -32.132  1.00  0.00     0.021 C 
HETATM   22  C   UNL     1     -15.926   2.061 -32.538  1.00  0.00     0.003 C 
HETATM   23  C   UNL     1     -15.173   1.375 -33.672  1.00  0.00     0.021 C 
HETATM   24  C   UNL     1     -13.707   1.175 -33.307  1.00  0.00     0.135 C 
ENDBRANCH  16  19
ENDBRANCH  13  16
ENDBRANCH   7  10
ENDBRANCH   4   6
BRANCH   3  25
HETATM   25  C   UNL     1      -4.429   1.820 -32.709  1.00  0.00     0.732 A 
HETATM   26  N   UNL     1      -5.523   1.656 -33.386  1.00  0.00    -0.067 NA
HETATM   27  C   UNL     1      -5.832   0.355 -33.725  1.00  0.00     0.065 A 
HETATM   28  C   UNL     1      -5.073  -0.714 -33.407  1.00  0.00     0.036 A 
HETATM   29  C   UNL     1      -7.124   0.187 -34.494  1.00  0.00     0.060 C 
HETATM   30  C   UNL     1      -5.427  -2.136 -33.732  1.00  0.00     0.046 C 
HETATM   31  C   UNL     1      -3.814  -0.479 -32.661  1.00  0.00     0.268 A 
HETATM   32  C   UNL     1      -6.883  -2.299 -34.168  1.00  0.00     0.005 C 
HETATM   33  C   UNL     1      -7.288  -1.193 -35.136  1.00  0.00     0.006 C 
HETATM   34  O   UNL     1      -3.053  -1.388 -32.353  1.00  0.00    -0.267 OA
HETATM   35  N   UNL     1      -3.573   0.819 -32.345  1.00  0.00    -0.152 N 
HETATM   36  H   UNL     1      -2.736   1.050 -31.819  1.00  0.00     0.188 HD
ENDBRANCH   3  25
BRANCH   1  37
HETATM   37  C   UNL     1      -1.262   5.185 -31.261  1.00  0.00     0.105 A 
HETATM   38  O   UNL     1      -0.203   4.560 -30.661  1.00  0.00    -0.320 OA
HETATM   39  C   UNL     1       0.783   5.481 -30.520  1.00  0.00     0.142 A 
HETATM   40  C   UNL     1       0.382   6.697 -31.017  1.00  0.00     0.027 A 
HETATM   41  C   UNL     1      -0.937   6.507 -31.497  1.00  0.00     0.041 A 
ENDBRANCH   1  37
TORSDOF 6
ENDMDL
MODEL 4
REMARK VINA RESULT:     -10.2      2.041      2.718
REMARK  6 active torsions:
REMARK  status: ('A' for Active; 'I' for Inactive)
REMARK    1  A    between atoms: C_4  and  C_5 
REMARK    2  A    between atoms: N_7  and  C_8 
REMARK    3  A    between atoms: C_19  and  N_20 
REMARK       I    between atoms: N_20  and  C_21 
REMARK    4  A    between atoms: C_21  and  C_22 
REMARK    5  A    between atoms: C_25  and  S_26 
REMARK    6  A    between atoms: S_26  and  N_27 
ROOT
HETATM    1  C   UNL     1      -9.251   1.797 -33.926  1.00  0.00     0.115 A 
HETATM    2  N   UNL     1      -8.819   0.531 -33.894  1.00  0.00    -0.148 NA
HETATM    3  N   UNL     1      -7.470   0.648 -33.695  1.00  0.00    -0.044 N 
HETATM    4  C   UNL     1      -7.063   1.970 -33.582  1.00  0.00     0.152 A 
HETATM    5  C   UNL     1      -8.204   2.723 -33.758  1.00  0.00     0.087 A 
ENDROOT
BRANCH   4   6
HETATM    6  N   UNL     1      -5.747   2.339 -33.322  1.00  0.00    -0.307 N 
HETATM    7  C   UNL     1      -5.222   3.543 -33.751  1.00  0.00     0.257 C 
HETATM    8  O   UNL     1      -5.746   4.312 -34.550  1.00  0.00    -0.267 OA
HETATM    9  H   UNL     1      -5.155   1.663 -32.840  1.00  0.00     0.170 HD
BRANCH   7  10
HETATM   10  C   UNL     1      -3.894   3.914 -33.189  1.00  0.00     0.032 A 
HETATM   11  C   UNL     1      -3.458   3.418 -31.951  1.00  0.00     0.018 A 
HETATM   12  C   UNL     1      -2.285   3.918 -31.374  1.00  0.00     0.026 A 
HETATM   13  C   UNL     1      -1.550   4.906 -32.040  1.00  0.00     0.079 A 
HETATM   14  C   UNL     1      -1.964   5.387 -33.285  1.00  0.00     0.026 A 
HETATM   15  C   UNL     1      -3.139   4.890 -33.855  1.00  0.00     0.018 A 
BRANCH  13  16
HETATM   16  S   UNL     1      -0.175   5.672 -31.208  1.00  0.00     0.260 S 
HETATM   17  O   UNL     1       0.900   4.706 -31.131  1.00  0.00    -0.200 OA
HETATM   18  O   UNL     1       0.026   6.958 -31.842  1.00  0.00    -0.200 OA
BRANCH  16  19
HETATM   19  N   UNL     1      -0.769   5.942 -29.634  1.00  0.00    -0.307 N 
HETATM   20  C   UNL     1       0.214   6.050 -28.525  1.00  0.00     0.135 C 
HETATM   21  C   UNL     1       0.794   7.456 -28.399  1.00  0.00     0.021 C 
HETATM   22  C   UNL     1      -0.295   8.522 -28.334  1.00  0.00     0.003 C 
HETATM   23  C   UNL     1      -1.283   8.370 -29.486  1.00  0.00     0.021 C 
HETATM   24  C   UNL     1      -1.851   6.957 -29.530  1.00  0.00     0.135 C 
ENDBRANCH  16  19
ENDBRANCH  13  16
ENDBRANCH   7  10
ENDBRANCH   4   6
BRANCH   3  25
HETATM   25  C   UNL     1      -6.679  -0.517 -33.654  1.00  0.00     0.732 A 
HETATM   26  N   UNL     1      -5.602  -0.630 -32.939  1.00  0.00    -0.067 NA
HETATM   27  C   UNL     1      -4.929  -1.828 -33.050  1.00  0.00     0.065 A 
HETATM   28  C   UNL     1      -5.326  -2.854 -33.829  1.00  0.00     0.036 A 
HETATM   29  C   UNL     1      -3.664  -1.927 -32.225  1.00  0.00     0.060 C 
HETATM   30  C   UNL     1      -4.574  -4.143 -33.992  1.00  0.00     0.046 C 
HETATM   31  C   UNL     1      -6.580  -2.697 -34.605  1.00  0.00     0.268 A 
HETATM   32  C   UNL     1      -3.146  -4.066 -33.449  1.00  0.00     0.005 C 
HETATM   33  C   UNL     1      -3.112  -3.350 -32.104  1.00  0.00     0.006 C 
HETATM   34  O   UNL     1      -7.028  -3.585 -35.319  1.00  0.00    -0.267 OA
HETATM   35  N   UNL     1      -7.188  -1.491 -34.464  1.00  0.00    -0.152 N 
HETATM   36  H   UNL     1      -8.044  -1.309 -34.981  1.00  0.00     0.188 HD
ENDBRANCH   3  25
BRANCH   1  37
HETATM   37  C   UNL     1     -10.687   2.161 -34.107  1.00  0.00     0.105 A 
HETATM   38  O   UNL     1     -11.148   3.442 -34.241  1.00  0.00    -0.320 OA
HETATM   39  C   UNL     1     -12.497   3.376 -34.373  1.00  0.00     0.142 A 
HETATM   40  C   UNL     1     -12.922   2.071 -34.327  1.00  0.00     0.027 A 
HETATM   41  C   UNL     1     -11.755   1.285 -34.156  1.00  0.00     0.041 A 
ENDBRANCH   1  37
TORSDOF 6
ENDMDL
MODEL 5
REMARK VINA RESULT:     -10.1      2.338      5.349
REMARK  6 active torsions:
REMARK  status: ('A' for Active; 'I' for Inactive)
REMARK    1  A    between atoms: C_4  and  C_5 
REMARK    2  A    between atoms: N_7  and  C_8 
REMARK    3  A    between atoms: C_19  and  N_20 
REMARK       I    between atoms: N_20  and  C_21 
REMARK    4  A    between atoms: C_21  and  C_22 
REMARK    5  A    between atoms: C_25  and  S_26 
REMARK    6  A    between atoms: S_26  and  N_27 
ROOT
HETATM    1  C   UNL     1      -6.069  -1.419 -33.849  1.00  0.00     0.115 A 
HETATM    2  N   UNL     1      -7.281  -0.880 -33.675  1.00  0.00    -0.148 NA
HETATM    3  N   UNL     1      -7.018   0.416 -33.324  1.00  0.00    -0.044 N 
HETATM    4  C   UNL     1      -5.659   0.694 -33.300  1.00  0.00     0.152 A 
HETATM    5  C   UNL     1      -5.035  -0.494 -33.611  1.00  0.00     0.087 A 
ENDROOT
BRANCH   4   6
HETATM    6  N   UNL     1      -5.148   1.958 -33.024  1.00  0.00    -0.307 N 
HETATM    7  C   UNL     1      -4.682   2.306 -31.769  1.00  0.00     0.257 C 
HETATM    8  O   UNL     1      -4.839   1.660 -30.740  1.00  0.00    -0.267 OA
HETATM    9  H   UNL     1      -5.172   2.650 -33.773  1.00  0.00     0.170 HD
BRANCH   7  10
HETATM   10  C   UNL     1      -3.937   3.592 -31.684  1.00  0.00     0.032 A 
HETATM   11  C   UNL     1      -2.657   3.736 -32.240  1.00  0.00     0.018 A 
HETATM   12  C   UNL     1      -1.917   4.898 -31.995  1.00  0.00     0.026 A 
HETATM   13  C   UNL     1      -2.461   5.913 -31.200  1.00  0.00     0.079 A 
HETATM   14  C   UNL     1      -3.745   5.788 -30.662  1.00  0.00     0.026 A 
HETATM   15  C   UNL     1      -4.479   4.625 -30.904  1.00  0.00     0.018 A 
BRANCH  13  16
HETATM   16  S   UNL     1      -1.437   7.293 -30.734  1.00  0.00     0.260 S 
HETATM   17  O   UNL     1      -0.161   7.153 -31.403  1.00  0.00    -0.200 OA
HETATM   18  O   UNL     1      -2.242   8.482 -30.911  1.00  0.00    -0.200 OA
BRANCH  16  19
HETATM   19  N   UNL     1      -1.196   7.057 -29.063  1.00  0.00    -0.307 N 
HETATM   20  C   UNL     1       0.174   6.729 -28.594  1.00  0.00     0.135 C 
HETATM   21  C   UNL     1       1.036   7.974 -28.403  1.00  0.00     0.021 C 
HETATM   22  C   UNL     1       0.345   9.021 -27.535  1.00  0.00     0.003 C 
HETATM   23  C   UNL     1      -1.058   9.323 -28.050  1.00  0.00     0.021 C 
HETATM   24  C   UNL     1      -1.874   8.043 -28.181  1.00  0.00     0.135 C 
ENDBRANCH  16  19
ENDBRANCH  13  16
ENDBRANCH   7  10
ENDBRANCH   4   6
BRANCH   3  25
HETATM   25  C   UNL     1      -8.092   1.276 -33.018  1.00  0.00     0.732 A 
HETATM   26  N   UNL     1      -8.121   2.046 -31.974  1.00  0.00    -0.067 NA
HETATM   27  C   UNL     1      -9.270   2.792 -31.809  1.00  0.00     0.065 A 
HETATM   28  C   UNL     1     -10.320   2.767 -32.654  1.00  0.00     0.036 A 
HETATM   29  C   UNL     1      -9.290   3.664 -30.573  1.00  0.00     0.060 C 
HETATM   30  C   UNL     1     -11.592   3.539 -32.455  1.00  0.00     0.046 C 
HETATM   31  C   UNL     1     -10.233   1.898 -33.851  1.00  0.00     0.268 A 
HETATM   32  C   UNL     1     -11.725   4.107 -31.041  1.00  0.00     0.005 C 
HETATM   33  C   UNL     1     -10.407   4.711 -30.571  1.00  0.00     0.006 C 
HETATM   34  O   UNL     1     -11.129   1.833 -34.684  1.00  0.00    -0.267 OA
HETATM   35  N   UNL     1      -9.085   1.180 -33.951  1.00  0.00    -0.152 N 
HETATM   36  H   UNL     1      -8.965   0.550 -34.739  1.00  0.00     0.188 HD
ENDBRANCH   3  25
BRANCH   1  37
HETATM   37  C   UNL     1      -5.863  -2.838 -34.264  1.00  0.00     0.105 A 
HETATM   38  O   UNL     1      -4.721  -3.554 -34.027  1.00  0.00    -0.320 OA
HETATM   39  C   UNL     1      -4.901  -4.791 -34.555  1.00  0.00     0.142 A 
HETATM   40  C   UNL     1      -6.143  -4.892 -35.134  1.00  0.00     0.027 A 
HETATM   41  C   UNL     1      -6.765  -3.632 -34.947  1.00  0.00     0.041 A 
ENDBRANCH   1  37
TORSDOF 6
ENDMDL
MODEL 6
REMARK VINA RESULT:      -9.8      2.029      5.455
REMARK  6 active torsions:
REMARK  status: ('A' for Active; 'I' for Inactive)
REMARK    1  A    between atoms: C_4  and  C_5 
REMARK    2  A    between atoms: N_7  and  C_8 
REMARK    3  A    between atoms: C_19  and  N_20 
REMARK       I    between atoms: N_20  and  C_21 
REMARK    4  A    between atoms: C_21  and  C_22 
REMARK    5  A    between atoms: C_25  and  S_26 
REMARK    6  A    between atoms: S_26  and  N_27 
ROOT
HETATM    1  C   UNL     1      -6.129  -1.336 -34.028  1.00  0.00     0.115 A 
HETATM    2  N   UNL     1      -7.360  -0.860 -34.247  1.00  0.00    -0.148 NA
HETATM    3  N   UNL     1      -7.272   0.459 -33.891  1.00  0.00    -0.044 N 
HETATM    4  C   UNL     1      -5.996   0.812 -33.475  1.00  0.00     0.152 A 
HETATM    5  C   UNL     1      -5.256  -0.348 -33.533  1.00  0.00     0.087 A 
ENDROOT
BRANCH   4   6
HETATM    6  N   UNL     1      -5.648   2.110 -33.116  1.00  0.00    -0.307 N 
HETATM    7  C   UNL     1      -5.503   2.495 -31.796  1.00  0.00     0.257 C 
HETATM    8  O   UNL     1      -5.844   1.842 -30.815  1.00  0.00    -0.267 OA
HETATM    9  H   UNL     1      -5.549   2.796 -33.864  1.00  0.00     0.170 HD
BRANCH   7  10
HETATM   10  C   UNL     1      -4.885   3.830 -31.570  1.00  0.00     0.032 A 
HETATM   11  C   UNL     1      -3.863   4.316 -32.399  1.00  0.00     0.018 A 
HETATM   12  C   UNL     1      -3.190   5.494 -32.059  1.00  0.00     0.026 A 
HETATM   13  C   UNL     1      -3.544   6.185 -30.894  1.00  0.00     0.079 A 
HETATM   14  C   UNL     1      -4.577   5.721 -30.076  1.00  0.00     0.026 A 
HETATM   15  C   UNL     1      -5.244   4.542 -30.415  1.00  0.00     0.018 A 
BRANCH  13  16
HETATM   16  S   UNL     1      -2.551   7.567 -30.370  1.00  0.00     0.260 S 
HETATM   17  O   UNL     1      -1.599   7.861 -31.420  1.00  0.00    -0.200 OA
HETATM   18  O   UNL     1      -3.472   8.579 -29.897  1.00  0.00    -0.200 OA
BRANCH  16  19
HETATM   19  N   UNL     1      -1.700   6.953 -29.028  1.00  0.00    -0.307 N 
HETATM   20  C   UNL     1      -0.410   6.261 -29.277  1.00  0.00     0.135 C 
HETATM   21  C   UNL     1       0.759   7.236 -29.398  1.00  0.00     0.021 C 
HETATM   22  C   UNL     1       0.820   8.205 -28.221  1.00  0.00     0.003 C 
HETATM   23  C   UNL     1      -0.525   8.888 -28.000  1.00  0.00     0.021 C 
HETATM   24  C   UNL     1      -1.638   7.858 -27.850  1.00  0.00     0.135 C 
ENDBRANCH  16  19
ENDBRANCH  13  16
ENDBRANCH   7  10
ENDBRANCH   4   6
BRANCH   3  25
HETATM   25  C   UNL     1      -8.425   1.266 -33.958  1.00  0.00     0.732 A 
HETATM   26  N   UNL     1      -8.399   2.536 -34.222  1.00  0.00    -0.067 NA
HETATM   27  C   UNL     1      -9.619   3.178 -34.207  1.00  0.00     0.065 A 
HETATM   28  C   UNL     1     -10.795   2.570 -33.951  1.00  0.00     0.036 A 
HETATM   29  C   UNL     1      -9.561   4.663 -34.493  1.00  0.00     0.060 C 
HETATM   30  C   UNL     1     -12.121   3.272 -33.886  1.00  0.00     0.046 C 
HETATM   31  C   UNL     1     -10.785   1.111 -33.688  1.00  0.00     0.268 A 
HETATM   32  C   UNL     1     -11.982   4.793 -33.813  1.00  0.00     0.005 C 
HETATM   33  C   UNL     1     -10.925   5.291 -34.791  1.00  0.00     0.006 C 
HETATM   34  O   UNL     1     -11.808   0.475 -33.471  1.00  0.00    -0.267 OA
HETATM   35  N   UNL     1      -9.554   0.540 -33.703  1.00  0.00    -0.152 N 
HETATM   36  H   UNL     1      -9.471  -0.455 -33.513  1.00  0.00     0.188 HD
ENDBRANCH   3  25
BRANCH   1  37
HETATM   37  C   UNL     1      -5.745  -2.753 -34.298  1.00  0.00     0.105 A 
HETATM   38  O   UNL     1      -4.538  -3.303 -33.963  1.00  0.00    -0.320 OA
HETATM   39  C   UNL     1      -4.554  -4.596 -34.374  1.00  0.00     0.142 A 
HETATM   40  C   UNL     1      -5.753  -4.897 -34.973  1.00  0.00     0.027 A 
HETATM   41  C   UNL     1      -6.523  -3.708 -34.924  1.00  0.00     0.041 A 
ENDBRANCH   1  37
TORSDOF 6
ENDMDL
MODEL 7
REMARK VINA RESULT:      -9.4      2.512      5.730
REMARK  6 active torsions:
REMARK  status: ('A' for Active; 'I' for Inactive)
REMARK    1  A    between atoms: C_4  and  C_5 
REMARK    2  A    between atoms: N_7  and  C_8 
REMARK    3  A    between atoms: C_19  and  N_20 
REMARK       I    between atoms: N_20  and  C_21 
REMARK    4  A    between atoms: C_21  and  C_22 
REMARK    5  A    between atoms: C_25  and  S_26 
REMARK    6  A    between atoms: S_26  and  N_27 
ROOT
HETATM    1  C   UNL     1      -6.126  -1.218 -33.809  1.00  0.00     0.115 A 
HETATM    2  N   UNL     1      -7.340  -0.656 -33.819  1.00  0.00    -0.148 NA
HETATM    3  N   UNL     1      -7.117   0.620 -33.376  1.00  0.00    -0.044 N 
HETATM    4  C   UNL     1      -5.776   0.863 -33.112  1.00  0.00     0.152 A 
HETATM    5  C   UNL     1      -5.130  -0.329 -33.362  1.00  0.00     0.087 A 
ENDROOT
BRANCH   4   6
HETATM    6  N   UNL     1      -5.296   2.102 -32.703  1.00  0.00    -0.307 N 
HETATM    7  C   UNL     1      -5.128   2.422 -31.369  1.00  0.00     0.257 C 
HETATM    8  O   UNL     1      -5.549   1.777 -30.416  1.00  0.00    -0.267 OA
HETATM    9  H   UNL     1      -5.115   2.799 -33.426  1.00  0.00     0.170 HD
BRANCH   7  10
HETATM   10  C   UNL     1      -4.374   3.676 -31.089  1.00  0.00     0.032 A 
HETATM   11  C   UNL     1      -4.974   4.763 -30.436  1.00  0.00     0.018 A 
HETATM   12  C   UNL     1      -4.294   5.981 -30.342  1.00  0.00     0.026 A 
HETATM   13  C   UNL     1      -3.013   6.107 -30.894  1.00  0.00     0.079 A 
HETATM   14  C   UNL     1      -2.398   5.021 -31.523  1.00  0.00     0.026 A 
HETATM   15  C   UNL     1      -3.082   3.807 -31.621  1.00  0.00     0.018 A 
BRANCH  13  16
HETATM   16  S   UNL     1      -2.243   7.711 -30.942  1.00  0.00     0.260 S 
HETATM   17  O   UNL     1      -0.863   7.561 -30.531  1.00  0.00    -0.200 OA
HETATM   18  O   UNL     1      -2.577   8.290 -32.226  1.00  0.00    -0.200 OA
BRANCH  16  19
HETATM   19  N   UNL     1      -3.071   8.582 -29.734  1.00  0.00    -0.307 N 
HETATM   20  C   UNL     1      -2.530   8.547 -28.352  1.00  0.00     0.135 C 
HETATM   21  C   UNL     1      -1.421   9.573 -28.136  1.00  0.00     0.021 C 
HETATM   22  C   UNL     1      -1.841  10.972 -28.575  1.00  0.00     0.003 C 
HETATM   23  C   UNL     1      -2.394  10.960 -29.996  1.00  0.00     0.021 C 
HETATM   24  C   UNL     1      -3.521   9.942 -30.130  1.00  0.00     0.135 C 
ENDBRANCH  16  19
ENDBRANCH  13  16
ENDBRANCH   7  10
ENDBRANCH   4   6
BRANCH   3  25
HETATM   25  C   UNL     1      -8.211   1.494 -33.220  1.00  0.00     0.732 A 
HETATM   26  N   UNL     1      -8.884   1.987 -34.214  1.00  0.00    -0.067 NA
HETATM   27  C   UNL     1      -9.899   2.858 -33.879  1.00  0.00     0.065 A 
HETATM   28  C   UNL     1     -10.220   3.202 -32.615  1.00  0.00     0.036 A 
HETATM   29  C   UNL     1     -10.654   3.438 -35.055  1.00  0.00     0.060 C 
HETATM   30  C   UNL     1     -11.292   4.186 -32.246  1.00  0.00     0.046 C 
HETATM   31  C   UNL     1      -9.447   2.590 -31.508  1.00  0.00     0.268 A 
HETATM   32  C   UNL     1     -11.772   5.014 -33.439  1.00  0.00     0.005 C 
HETATM   33  C   UNL     1     -11.961   4.135 -34.669  1.00  0.00     0.006 C 
HETATM   34  O   UNL     1      -9.686   2.826 -30.330  1.00  0.00    -0.267 OA
HETATM   35  N   UNL     1      -8.454   1.753 -31.901  1.00  0.00    -0.152 N 
HETATM   36  H   UNL     1      -7.873   1.312 -31.195  1.00  0.00     0.188 HD
ENDBRANCH   3  25
BRANCH   1  37
HETATM   37  C   UNL     1      -5.879  -2.626 -34.241  1.00  0.00     0.105 A 
HETATM   38  O   UNL     1      -4.710  -3.304 -34.029  1.00  0.00    -0.320 OA
HETATM   39  C   UNL     1      -4.857  -4.542 -34.566  1.00  0.00     0.142 A 
HETATM   40  C   UNL     1      -6.103  -4.680 -35.125  1.00  0.00     0.027 A 
HETATM   41  C   UNL     1      -6.765  -3.444 -34.916  1.00  0.00     0.041 A 
ENDBRANCH   1  37
TORSDOF 6
ENDMDL
MODEL 8
REMARK VINA RESULT:      -9.4      3.752      8.089
REMARK  6 active torsions:
REMARK  status: ('A' for Active; 'I' for Inactive)
REMARK    1  A    between atoms: C_4  and  C_5 
REMARK    2  A    between atoms: N_7  and  C_8 
REMARK    3  A    between atoms: C_19  and  N_20 
REMARK       I    between atoms: N_20  and  C_21 
REMARK    4  A    between atoms: C_21  and  C_22 
REMARK    5  A    between atoms: C_25  and  S_26 
REMARK    6  A    between atoms: S_26  and  N_27 
ROOT
HETATM    1  C   UNL     1      -5.814  -1.749 -34.174  1.00  0.00     0.115 A 
HETATM    2  N   UNL     1      -5.174  -0.703 -33.636  1.00  0.00    -0.148 NA
HETATM    3  N   UNL     1      -6.071   0.325 -33.746  1.00  0.00    -0.044 N 
HETATM    4  C   UNL     1      -7.268  -0.075 -34.326  1.00  0.00     0.152 A 
HETATM    5  C   UNL     1      -7.101  -1.408 -34.631  1.00  0.00     0.087 A 
ENDROOT
BRANCH   4   6
HETATM    6  N   UNL     1      -8.352   0.781 -34.493  1.00  0.00    -0.307 N 
HETATM    7  C   UNL     1      -9.444   0.759 -33.646  1.00  0.00     0.257 C 
HETATM    8  O   UNL     1      -9.688  -0.103 -32.809  1.00  0.00    -0.267 OA
HETATM    9  H   UNL     1      -8.341   1.402 -35.302  1.00  0.00     0.170 HD
BRANCH   7  10
HETATM   10  C   UNL     1     -10.403   1.890 -33.789  1.00  0.00     0.032 A 
HETATM   11  C   UNL     1     -11.498   1.816 -34.662  1.00  0.00     0.018 A 
HETATM   12  C   UNL     1     -12.278   2.953 -34.899  1.00  0.00     0.026 A 
HETATM   13  C   UNL     1     -11.964   4.157 -34.258  1.00  0.00     0.079 A 
HETATM   14  C   UNL     1     -10.889   4.232 -33.368  1.00  0.00     0.026 A 
HETATM   15  C   UNL     1     -10.109   3.097 -33.137  1.00  0.00     0.018 A 
BRANCH  13  16
HETATM   16  S   UNL     1     -12.838   5.638 -34.718  1.00  0.00     0.260 S 
HETATM   17  O   UNL     1     -13.144   5.560 -36.130  1.00  0.00    -0.200 OA
HETATM   18  O   UNL     1     -13.888   5.818 -33.739  1.00  0.00    -0.200 OA
BRANCH  16  19
HETATM   19  N   UNL     1     -11.680   6.866 -34.487  1.00  0.00    -0.307 N 
HETATM   20  C   UNL     1     -10.799   7.221 -35.629  1.00  0.00     0.135 C 
HETATM   21  C   UNL     1     -11.457   8.212 -36.584  1.00  0.00     0.021 C 
HETATM   22  C   UNL     1     -12.005   9.435 -35.853  1.00  0.00     0.003 C 
HETATM   23  C   UNL     1     -12.898   9.025 -34.688  1.00  0.00     0.021 C 
HETATM   24  C   UNL     1     -12.166   8.066 -33.755  1.00  0.00     0.135 C 
ENDBRANCH  16  19
ENDBRANCH  13  16
ENDBRANCH   7  10
ENDBRANCH   4   6
BRANCH   3  25
HETATM   25  C   UNL     1      -5.698   1.611 -33.308  1.00  0.00     0.732 A 
HETATM   26  N   UNL     1      -6.367   2.687 -33.587  1.00  0.00    -0.067 NA
HETATM   27  C   UNL     1      -5.834   3.867 -33.109  1.00  0.00     0.065 A 
HETATM   28  C   UNL     1      -4.700   3.950 -32.385  1.00  0.00     0.036 A 
HETATM   29  C   UNL     1      -6.619   5.109 -33.467  1.00  0.00     0.060 C 
HETATM   30  C   UNL     1      -4.089   5.234 -31.904  1.00  0.00     0.046 C 
HETATM   31  C   UNL     1      -3.984   2.693 -32.061  1.00  0.00     0.268 A 
HETATM   32  C   UNL     1      -4.690   6.466 -32.582  1.00  0.00     0.005 C 
HETATM   33  C   UNL     1      -6.207   6.352 -32.673  1.00  0.00     0.006 C 
HETATM   34  O   UNL     1      -2.961   2.674 -31.389  1.00  0.00    -0.267 OA
HETATM   35  N   UNL     1      -4.549   1.569 -32.570  1.00  0.00    -0.152 N 
HETATM   36  H   UNL     1      -4.102   0.673 -32.401  1.00  0.00     0.188 HD
ENDBRANCH   3  25
BRANCH   1  37
HETATM   37  C   UNL     1      -5.216  -3.114 -34.254  1.00  0.00     0.105 A 
HETATM   38  O   UNL     1      -3.996  -3.454 -33.736  1.00  0.00    -0.320 OA
HETATM   39  C   UNL     1      -3.791  -4.767 -34.011  1.00  0.00     0.142 A 
HETATM   40  C   UNL     1      -4.859  -5.287 -34.702  1.00  0.00     0.027 A 
HETATM   41  C   UNL     1      -5.779  -4.221 -34.859  1.00  0.00     0.041 A 
ENDBRANCH   1  37
TORSDOF 6
ENDMDL
MODEL 9
REMARK VINA RESULT:      -9.0      3.432      8.290
REMARK  6 active torsions:
REMARK  status: ('A' for Active; 'I' for Inactive)
REMARK    1  A    between atoms: C_4  and  C_5 
REMARK    2  A    between atoms: N_7  and  C_8 
REMARK    3  A    between atoms: C_19  and  N_20 
REMARK       I    between atoms: N_20  and  C_21 
REMARK    4  A    between atoms: C_21  and  C_22 
REMARK    5  A    between atoms: C_25  and  S_26 
REMARK    6  A    between atoms: S_26  and  N_27 
ROOT
HETATM    1  C   UNL     1      -5.683  -1.723 -33.979  1.00  0.00     0.115 A 
HETATM    2  N   UNL     1      -5.023  -0.666 -33.492  1.00  0.00    -0.148 NA
HETATM    3  N   UNL     1      -5.938   0.350 -33.550  1.00  0.00    -0.044 N 
HETATM    4  C   UNL     1      -7.165  -0.069 -34.045  1.00  0.00     0.152 A 
HETATM    5  C   UNL     1      -7.002  -1.402 -34.353  1.00  0.00     0.087 A 
ENDROOT
BRANCH   4   6
HETATM    6  N   UNL     1      -8.269   0.771 -34.146  1.00  0.00    -0.307 N 
HETATM    7  C   UNL     1      -9.253   0.813 -33.176  1.00  0.00     0.257 C 
HETATM    8  O   UNL     1      -9.388   0.016 -32.254  1.00  0.00    -0.267 OA
HETATM    9  H   UNL     1      -8.360   1.330 -34.994  1.00  0.00     0.170 HD
BRANCH   7  10
HETATM   10  C   UNL     1     -10.232   1.929 -33.287  1.00  0.00     0.032 A 
HETATM   11  C   UNL     1     -11.316   1.868 -34.176  1.00  0.00     0.018 A 
HETATM   12  C   UNL     1     -12.115   2.998 -34.379  1.00  0.00     0.026 A 
HETATM   13  C   UNL     1     -11.832   4.182 -33.689  1.00  0.00     0.079 A 
HETATM   14  C   UNL     1     -10.770   4.244 -32.784  1.00  0.00     0.026 A 
HETATM   15  C   UNL     1      -9.970   3.116 -32.587  1.00  0.00     0.018 A 
BRANCH  13  16
HETATM   16  S   UNL     1     -12.730   5.663 -34.103  1.00  0.00     0.260 S 
HETATM   17  O   UNL     1     -11.878   6.799 -33.822  1.00  0.00    -0.200 OA
HETATM   18  O   UNL     1     -13.278   5.455 -35.427  1.00  0.00    -0.200 OA
BRANCH  16  19
HETATM   19  N   UNL     1     -14.018   5.668 -32.989  1.00  0.00    -0.307 N 
HETATM   20  C   UNL     1     -14.511   4.361 -32.485  1.00  0.00     0.135 C 
HETATM   21  C   UNL     1     -13.683   3.838 -31.315  1.00  0.00     0.021 C 
HETATM   22  C   UNL     1     -13.528   4.881 -30.212  1.00  0.00     0.003 C 
HETATM   23  C   UNL     1     -13.025   6.206 -30.773  1.00  0.00     0.021 C 
HETATM   24  C   UNL     1     -13.919   6.687 -31.910  1.00  0.00     0.135 C 
ENDBRANCH  16  19
ENDBRANCH  13  16
ENDBRANCH   7  10
ENDBRANCH   4   6
BRANCH   3  25
HETATM   25  C   UNL     1      -5.554   1.643 -33.146  1.00  0.00     0.732 A 
HETATM   26  N   UNL     1      -6.226   2.715 -33.433  1.00  0.00    -0.067 NA
HETATM   27  C   UNL     1      -5.681   3.903 -32.991  1.00  0.00     0.065 A 
HETATM   28  C   UNL     1      -4.533   3.999 -32.292  1.00  0.00     0.036 A 
HETATM   29  C   UNL     1      -6.470   5.141 -33.360  1.00  0.00     0.060 C 
HETATM   30  C   UNL     1      -3.910   5.292 -31.849  1.00  0.00     0.046 C 
HETATM   31  C   UNL     1      -3.813   2.747 -31.956  1.00  0.00     0.268 A 
HETATM   32  C   UNL     1      -4.521   6.511 -32.542  1.00  0.00     0.005 C 
HETATM   33  C   UNL     1      -6.040   6.399 -32.600  1.00  0.00     0.006 C 
HETATM   34  O   UNL     1      -2.777   2.740 -31.303  1.00  0.00    -0.267 OA
HETATM   35  N   UNL     1      -4.391   1.615 -32.430  1.00  0.00    -0.152 N 
HETATM   36  H   UNL     1      -3.942   0.721 -32.251  1.00  0.00     0.188 HD
ENDBRANCH   3  25
BRANCH   1  37
HETATM   37  C   UNL     1      -5.073  -3.081 -34.090  1.00  0.00     0.105 A 
HETATM   38  O   UNL     1      -5.677  -4.151 -34.693  1.00  0.00    -0.320 OA
HETATM   39  C   UNL     1      -4.829  -5.206 -34.589  1.00  0.00     0.142 A 
HETATM   40  C   UNL     1      -3.682  -4.839 -33.927  1.00  0.00     0.027 A 
HETATM   41  C   UNL     1      -3.838  -3.468 -33.606  1.00  0.00     0.041 A 
ENDBRANCH   1  37
TORSDOF 6
ENDMDL
MODEL 10
REMARK VINA RESULT:      -9.0      3.034      5.886
REMARK  6 active torsions:
REMARK  status: ('A' for Active; 'I' for Inactive)
REMARK    1  A    between atoms: C_4  and  C_5 
REMARK    2  A    between atoms: N_7  and  C_8 
REMARK    3  A    between atoms: C_19  and  N_20 
REMARK       I    between atoms: N_20  and  C_21 
REMARK    4  A    between atoms: C_21  and  C_22 
REMARK    5  A    between atoms: C_25  and  S_26 
REMARK    6  A    between atoms: S_26  and  N_27 
ROOT
HETATM    1  C   UNL     1      -6.568  -1.050 -33.347  1.00  0.00     0.115 A 
HETATM    2  N   UNL     1      -7.751  -0.448 -33.511  1.00  0.00    -0.148 NA
HETATM    3  N   UNL     1      -7.659   0.677 -32.737  1.00  0.00    -0.044 N 
HETATM    4  C   UNL     1      -6.425   0.792 -32.113  1.00  0.00     0.152 A 
HETATM    5  C   UNL     1      -5.721  -0.335 -32.478  1.00  0.00     0.087 A 
ENDROOT
BRANCH   4   6
HETATM    6  N   UNL     1      -6.075   1.879 -31.318  1.00  0.00    -0.307 N 
HETATM    7  C   UNL     1      -5.360   2.953 -31.815  1.00  0.00     0.257 C 
HETATM    8  O   UNL     1      -4.790   2.998 -32.900  1.00  0.00    -0.267 OA
HETATM    9  H   UNL     1      -6.322   1.839 -30.330  1.00  0.00     0.170 HD
BRANCH   7  10
HETATM   10  C   UNL     1      -5.279   4.148 -30.930  1.00  0.00     0.032 A 
HETATM   11  C   UNL     1      -4.430   5.225 -31.227  1.00  0.00     0.018 A 
HETATM   12  C   UNL     1      -4.250   6.249 -30.292  1.00  0.00     0.026 A 
HETATM   13  C   UNL     1      -4.925   6.198 -29.066  1.00  0.00     0.079 A 
HETATM   14  C   UNL     1      -5.791   5.141 -28.773  1.00  0.00     0.026 A 
HETATM   15  C   UNL     1      -5.964   4.116 -29.706  1.00  0.00     0.018 A 
BRANCH  13  16
HETATM   16  S   UNL     1      -4.536   7.399 -27.811  1.00  0.00     0.260 S 
HETATM   17  O   UNL     1      -4.645   8.717 -28.400  1.00  0.00    -0.200 OA
HETATM   18  O   UNL     1      -5.312   7.041 -26.643  1.00  0.00    -0.200 OA
BRANCH  16  19
HETATM   19  N   UNL     1      -2.894   7.096 -27.472  1.00  0.00    -0.307 N 
HETATM   20  C   UNL     1      -1.881   8.021 -28.040  1.00  0.00     0.135 C 
HETATM   21  C   UNL     1      -1.686   9.268 -27.181  1.00  0.00     0.021 C 
HETATM   22  C   UNL     1      -1.421   8.921 -25.719  1.00  0.00     0.003 C 
HETATM   23  C   UNL     1      -2.481   7.967 -25.180  1.00  0.00     0.021 C 
HETATM   24  C   UNL     1      -2.596   6.729 -26.062  1.00  0.00     0.135 C 
ENDBRANCH  16  19
ENDBRANCH  13  16
ENDBRANCH   7  10
ENDBRANCH   4   6
BRANCH   3  25
HETATM   25  C   UNL     1      -8.771   1.537 -32.642  1.00  0.00     0.732 A 
HETATM   26  N   UNL     1      -8.951   2.373 -31.666  1.00  0.00    -0.067 NA
HETATM   27  C   UNL     1     -10.117   3.110 -31.713  1.00  0.00     0.065 A 
HETATM   28  C   UNL     1     -11.038   3.014 -32.693  1.00  0.00     0.036 A 
HETATM   29  C   UNL     1     -10.316   4.060 -30.553  1.00  0.00     0.060 C 
HETATM   30  C   UNL     1     -12.330   3.777 -32.726  1.00  0.00     0.046 C 
HETATM   31  C   UNL     1     -10.777   2.071 -33.806  1.00  0.00     0.268 A 
HETATM   32  C   UNL     1     -12.663   4.433 -31.385  1.00  0.00     0.005 C 
HETATM   33  C   UNL     1     -11.428   5.088 -30.777  1.00  0.00     0.006 C 
HETATM   34  O   UNL     1     -11.547   1.937 -34.749  1.00  0.00    -0.267 OA
HETATM   35  N   UNL     1      -9.622   1.366 -33.696  1.00  0.00    -0.152 N 
HETATM   36  H   UNL     1      -9.389   0.688 -34.416  1.00  0.00     0.188 HD
ENDBRANCH   3  25
BRANCH   1  37
HETATM   37  C   UNL     1      -6.204  -2.327 -34.030  1.00  0.00     0.105 A 
HETATM   38  O   UNL     1      -7.110  -3.243 -34.487  1.00  0.00    -0.320 OA
HETATM   39  C   UNL     1      -6.409  -4.268 -35.035  1.00  0.00     0.142 A 
HETATM   40  C   UNL     1      -5.059  -4.033 -34.941  1.00  0.00     0.027 A 
HETATM   41  C   UNL     1      -4.925  -2.780 -34.293  1.00  0.00     0.041 A 
ENDBRANCH   1  37
TORSDOF 6
ENDMDL
