MODEL 1
REMARK VINA RESULT:      -7.7      0.000      0.000
REMARK  9 active torsions:
REMARK  status: ('A' for Active; 'I' for Inactive)
REMARK    1  A    between atoms: C_2  and  N_3 
REMARK    2  A    between atoms: N_3  and  C_5 
REMARK    3  A    between atoms: N_3  and  C_29 
REMARK    4  A    between atoms: C_5  and  C_6 
REMARK    5  A    between atoms: N_7  and  C_8 
REMARK    6  A    between atoms: C_12  and  N_13 
REMARK    7  A    between atoms: C_16  and  C_17 
REMARK       I    between atoms: C_17  and  N_18 
REMARK    8  A    between atoms: N_18  and  N_19 
REMARK    9  A    between atoms: C_20  and  C_21 
ROOT
HETATM    1  C   UNL     1      -4.790  -1.273 -33.002  1.00  0.00     0.096 A 
HETATM    2  N   UNL     1      -4.528  -2.595 -33.350  1.00  0.00    -0.215 N 
HETATM    3  N   UNL     1      -3.417  -3.009 -32.687  1.00  0.00     0.012 NA
HETATM    4  N   UNL     1      -3.016  -2.052 -31.865  1.00  0.00    -0.152 NA
HETATM    5  C   UNL     1      -3.842  -0.980 -32.030  1.00  0.00     0.170 A 
ENDROOT
BRANCH   5   6
HETATM    6  C   UNL     1      -3.722   0.264 -31.281  1.00  0.00     0.293 C 
HETATM    7  N   UNL     1      -3.115   1.290 -31.980  1.00  0.00    -0.242 N 
HETATM    8  H   UNL     1      -2.796   1.148 -32.934  1.00  0.00     0.192 HD
HETATM    9  O   UNL     1      -4.122   0.322 -30.121  1.00  0.00    -0.264 OA
BRANCH   7  10
HETATM   10  N   UNL     1      -2.989   2.509 -31.388  1.00  0.00    -0.184 NA
HETATM   11  C   UNL     1      -2.876   3.526 -32.181  1.00  0.00     0.150 C 
BRANCH  11  12
HETATM   12  C   UNL     1      -2.761   4.899 -31.649  1.00  0.00    -0.016 A 
HETATM   13  C   UNL     1      -1.633   5.285 -30.918  1.00  0.00     0.031 A 
HETATM   14  C   UNL     1      -1.553   6.583 -30.415  1.00  0.00     0.007 A 
HETATM   15  I   UNL     1       0.115   7.162 -29.317  1.00  0.00    -0.045 I 
HETATM   16  C   UNL     1      -2.586   7.493 -30.640  1.00  0.00     0.018 A 
HETATM   17  C   UNL     1      -3.709   7.103 -31.373  1.00  0.00     0.002 A 
HETATM   18  C   UNL     1      -3.801   5.804 -31.878  1.00  0.00     0.013 A 
ENDBRANCH  11  12
ENDBRANCH   7  10
ENDBRANCH   5   6
BRANCH   1  19
HETATM   19  C   UNL     1      -5.799  -0.391 -33.639  1.00  0.00     0.296 C 
BRANCH  19  20
HETATM   20  N   UNL     1      -7.157  -0.327 -32.960  1.00  0.00    -0.066 N 
HETATM   21  H   UNL     1      -7.302  -1.243 -32.509  1.00  0.00     0.280 HD
BRANCH  20  22
HETATM   22  C   UNL     1      -8.269  -0.144 -33.985  1.00  0.00     0.231 C 
HETATM   23  C   UNL     1      -7.711   0.235 -35.345  1.00  0.00     0.034 C 
ENDBRANCH  20  22
BRANCH  20  24
HETATM   24  C   UNL     1      -7.220   0.750 -31.886  1.00  0.00     0.231 C 
HETATM   25  C   UNL     1      -6.671   2.070 -32.404  1.00  0.00     0.034 C 
ENDBRANCH  20  24
ENDBRANCH  19  20
ENDBRANCH   1  19
BRANCH   2  26
HETATM   26  C   UNL     1      -5.275  -3.449 -34.195  1.00  0.00     0.225 A 
HETATM   27  N   UNL     1      -6.392  -3.000 -34.776  1.00  0.00    -0.081 NA
HETATM   28  O   UNL     1      -6.852  -4.105 -35.501  1.00  0.00    -0.103 OA
HETATM   29  N   UNL     1      -6.024  -5.203 -35.322  1.00  0.00    -0.083 NA
HETATM   30  C   UNL     1      -5.048  -4.799 -34.510  1.00  0.00     0.201 A 
BRANCH  30  31
HETATM   31  N   UNL     1      -4.033  -5.573 -34.095  1.00  0.00    -0.379 N 
HETATM   32  H   UNL     1      -3.975  -5.866 -33.124  1.00  0.00     0.158 HD
HETATM   33  H   UNL     1      -3.200  -5.764 -34.649  1.00  0.00     0.158 HD
ENDBRANCH  30  31
ENDBRANCH   2  26
TORSDOF 9
ENDMDL
MODEL 2
REMARK VINA RESULT:      -7.4      4.448      9.686
REMARK  9 active torsions:
REMARK  status: ('A' for Active; 'I' for Inactive)
REMARK    1  A    between atoms: C_2  and  N_3 
REMARK    2  A    between atoms: N_3  and  C_5 
REMARK    3  A    between atoms: N_3  and  C_29 
REMARK    4  A    between atoms: C_5  and  C_6 
REMARK    5  A    between atoms: N_7  and  C_8 
REMARK    6  A    between atoms: C_12  and  N_13 
REMARK    7  A    between atoms: C_16  and  C_17 
REMARK       I    between atoms: C_17  and  N_18 
REMARK    8  A    between atoms: N_18  and  N_19 
REMARK    9  A    between atoms: C_20  and  C_21 
ROOT
HETATM    1  C   UNL     1      -3.986   5.842 -32.098  1.00  0.00     0.096 A 
HETATM    2  N   UNL     1      -4.226   7.012 -31.383  1.00  0.00    -0.215 N 
HETATM    3  N   UNL     1      -5.509   7.403 -31.606  1.00  0.00     0.012 NA
HETATM    4  N   UNL     1      -6.122   6.493 -32.346  1.00  0.00    -0.152 NA
HETATM    5  C   UNL     1      -5.217   5.522 -32.656  1.00  0.00     0.170 A 
ENDROOT
BRANCH   5   6
HETATM    6  C   UNL     1      -5.530   4.341 -33.450  1.00  0.00     0.293 C 
HETATM    7  N   UNL     1      -5.581   3.167 -32.723  1.00  0.00    -0.242 N 
HETATM    8  H   UNL     1      -5.411   3.170 -31.721  1.00  0.00     0.192 HD
HETATM    9  O   UNL     1      -5.698   4.444 -34.662  1.00  0.00    -0.264 OA
BRANCH   7  10
HETATM   10  N   UNL     1      -5.908   2.009 -33.359  1.00  0.00    -0.184 NA
HETATM   11  C   UNL     1      -5.274   0.945 -32.982  1.00  0.00     0.150 C 
BRANCH  11  12
HETATM   12  C   UNL     1      -5.567  -0.371 -33.584  1.00  0.00    -0.016 A 
HETATM   13  C   UNL     1      -4.704  -1.453 -33.380  1.00  0.00     0.031 A 
HETATM   14  C   UNL     1      -4.994  -2.682 -33.970  1.00  0.00     0.007 A 
HETATM   15  I   UNL     1      -3.710  -4.292 -33.682  1.00  0.00    -0.045 I 
HETATM   16  C   UNL     1      -6.138  -2.839 -34.753  1.00  0.00     0.018 A 
HETATM   17  C   UNL     1      -6.998  -1.756 -34.951  1.00  0.00     0.002 A 
HETATM   18  C   UNL     1      -6.714  -0.518 -34.369  1.00  0.00     0.013 A 
ENDBRANCH  11  12
ENDBRANCH   7  10
ENDBRANCH   5   6
BRANCH   1  19
HETATM   19  C   UNL     1      -2.665   5.189 -32.276  1.00  0.00     0.296 C 
BRANCH  19  20
HETATM   20  N   UNL     1      -1.479   6.120 -32.469  1.00  0.00    -0.066 N 
HETATM   21  H   UNL     1      -1.743   7.021 -32.045  1.00  0.00     0.280 HD
BRANCH  20  22
HETATM   22  C   UNL     1      -1.222   6.371 -33.950  1.00  0.00     0.231 C 
HETATM   23  C   UNL     1      -1.593   5.162 -34.789  1.00  0.00     0.034 C 
ENDBRANCH  20  22
BRANCH  20  24
HETATM   24  C   UNL     1      -0.223   5.612 -31.774  1.00  0.00     0.231 C 
HETATM   25  C   UNL     1       0.500   6.742 -31.059  1.00  0.00     0.034 C 
ENDBRANCH  20  24
ENDBRANCH  19  20
ENDBRANCH   1  19
BRANCH   2  26
HETATM   26  C   UNL     1      -3.359   7.705 -30.507  1.00  0.00     0.225 A 
HETATM   27  N   UNL     1      -2.612   8.713 -30.969  1.00  0.00    -0.081 NA
HETATM   28  O   UNL     1      -1.889   9.127 -29.845  1.00  0.00    -0.103 OA
HETATM   29  N   UNL     1      -2.190   8.347 -28.739  1.00  0.00    -0.083 NA
HETATM   30  C   UNL     1      -3.098   7.463 -29.148  1.00  0.00     0.201 A 
BRANCH  30  31
HETATM   31  N   UNL     1      -3.654   6.525 -28.366  1.00  0.00    -0.379 N 
HETATM   32  H   UNL     1      -3.138   6.140 -27.580  1.00  0.00     0.158 HD
HETATM   33  H   UNL     1      -4.514   6.030 -28.594  1.00  0.00     0.158 HD
ENDBRANCH  30  31
ENDBRANCH   2  26
TORSDOF 9
ENDMDL
MODEL 3
REMARK VINA RESULT:      -7.4      4.439      9.481
REMARK  9 active torsions:
REMARK  status: ('A' for Active; 'I' for Inactive)
REMARK    1  A    between atoms: C_2  and  N_3 
REMARK    2  A    between atoms: N_3  and  C_5 
REMARK    3  A    between atoms: N_3  and  C_29 
REMARK    4  A    between atoms: C_5  and  C_6 
REMARK    5  A    between atoms: N_7  and  C_8 
REMARK    6  A    between atoms: C_12  and  N_13 
REMARK    7  A    between atoms: C_16  and  C_17 
REMARK       I    between atoms: C_17  and  N_18 
REMARK    8  A    between atoms: N_18  and  N_19 
REMARK    9  A    between atoms: C_20  and  C_21 
ROOT
HETATM    1  C   UNL     1      -2.672   5.746 -30.739  1.00  0.00     0.096 A 
HETATM    2  N   UNL     1      -1.655   6.386 -30.034  1.00  0.00    -0.215 N 
HETATM    3  N   UNL     1      -0.482   5.749 -30.288  1.00  0.00     0.012 NA
HETATM    4  N   UNL     1      -0.684   4.800 -31.188  1.00  0.00    -0.152 NA
HETATM    5  C   UNL     1      -2.014   4.780 -31.489  1.00  0.00     0.170 A 
ENDROOT
BRANCH   5   6
HETATM    6  C   UNL     1      -2.617   3.874 -32.458  1.00  0.00     0.293 C 
HETATM    7  N   UNL     1      -3.213   2.761 -31.897  1.00  0.00    -0.242 N 
HETATM    8  H   UNL     1      -3.211   2.624 -30.890  1.00  0.00     0.192 HD
HETATM    9  O   UNL     1      -2.543   4.123 -33.658  1.00  0.00    -0.264 OA
BRANCH   7  10
HETATM   10  N   UNL     1      -3.843   1.869 -32.710  1.00  0.00    -0.184 NA
HETATM   11  C   UNL     1      -3.877   0.641 -32.302  1.00  0.00     0.150 C 
BRANCH  11  12
HETATM   12  C   UNL     1      -4.558  -0.406 -33.089  1.00  0.00    -0.016 A 
HETATM   13  C   UNL     1      -4.045  -1.707 -33.134  1.00  0.00     0.031 A 
HETATM   14  C   UNL     1      -4.698  -2.676 -33.895  1.00  0.00     0.007 A 
HETATM   15  I   UNL     1      -3.937  -4.609 -33.977  1.00  0.00    -0.045 I 
HETATM   16  C   UNL     1      -5.857  -2.356 -34.604  1.00  0.00     0.018 A 
HETATM   17  C   UNL     1      -6.366  -1.056 -34.553  1.00  0.00     0.002 A 
HETATM   18  C   UNL     1      -5.717  -0.077 -33.798  1.00  0.00     0.013 A 
ENDBRANCH  11  12
ENDBRANCH   7  10
ENDBRANCH   5   6
BRANCH   1  19
HETATM   19  C   UNL     1      -4.125   6.010 -30.596  1.00  0.00     0.296 C 
BRANCH  19  20
HETATM   20  N   UNL     1      -4.836   5.260 -29.481  1.00  0.00    -0.066 N 
HETATM   21  H   UNL     1      -4.117   4.699 -29.002  1.00  0.00     0.280 HD
BRANCH  20  22
HETATM   22  C   UNL     1      -5.865   4.291 -30.050  1.00  0.00     0.231 C 
HETATM   23  C   UNL     1      -7.202   4.426 -29.343  1.00  0.00     0.034 C 
ENDBRANCH  20  22
BRANCH  20  24
HETATM   24  C   UNL     1      -5.470   6.198 -28.463  1.00  0.00     0.231 C 
HETATM   25  C   UNL     1      -5.413   7.640 -28.939  1.00  0.00     0.034 C 
ENDBRANCH  20  24
ENDBRANCH  19  20
ENDBRANCH   1  19
BRANCH   2  26
HETATM   26  C   UNL     1      -1.736   7.540 -29.221  1.00  0.00     0.225 A 
HETATM   27  N   UNL     1      -1.621   8.752 -29.773  1.00  0.00    -0.081 NA
HETATM   28  O   UNL     1      -1.730   9.621 -28.681  1.00  0.00    -0.103 OA
HETATM   29  N   UNL     1      -1.880   8.920 -27.495  1.00  0.00    -0.083 NA
HETATM   30  C   UNL     1      -1.881   7.630 -27.826  1.00  0.00     0.201 A 
BRANCH  30  31
HETATM   31  N   UNL     1      -2.010   6.619 -26.954  1.00  0.00    -0.379 N 
HETATM   32  H   UNL     1      -2.199   6.808 -25.973  1.00  0.00     0.158 HD
HETATM   33  H   UNL     1      -1.767   5.653 -27.162  1.00  0.00     0.158 HD
ENDBRANCH  30  31
ENDBRANCH   2  26
TORSDOF 9
ENDMDL
MODEL 4
REMARK VINA RESULT:      -7.3      4.902      8.880
REMARK  9 active torsions:
REMARK  status: ('A' for Active; 'I' for Inactive)
REMARK    1  A    between atoms: C_2  and  N_3 
REMARK    2  A    between atoms: N_3  and  C_5 
REMARK    3  A    between atoms: N_3  and  C_29 
REMARK    4  A    between atoms: C_5  and  C_6 
REMARK    5  A    between atoms: N_7  and  C_8 
REMARK    6  A    between atoms: C_12  and  N_13 
REMARK    7  A    between atoms: C_16  and  C_17 
REMARK       I    between atoms: C_17  and  N_18 
REMARK    8  A    between atoms: N_18  and  N_19 
REMARK    9  A    between atoms: C_20  and  C_21 
ROOT
HETATM    1  C   UNL     1      -5.592   2.631 -32.987  1.00  0.00     0.096 A 
HETATM    2  N   UNL     1      -4.720   3.694 -33.206  1.00  0.00    -0.215 N 
HETATM    3  N   UNL     1      -5.315   4.579 -34.048  1.00  0.00     0.012 NA
HETATM    4  N   UNL     1      -6.552   4.182 -34.299  1.00  0.00    -0.152 NA
HETATM    5  C   UNL     1      -6.753   2.995 -33.656  1.00  0.00     0.170 A 
ENDROOT
BRANCH   5   6
HETATM    6  C   UNL     1      -8.008   2.255 -33.686  1.00  0.00     0.293 C 
HETATM    7  N   UNL     1      -8.961   2.722 -32.802  1.00  0.00    -0.242 N 
HETATM    8  H   UNL     1      -8.765   3.517 -32.201  1.00  0.00     0.192 HD
HETATM    9  O   UNL     1      -8.134   1.293 -34.438  1.00  0.00    -0.264 OA
BRANCH   7  10
HETATM   10  N   UNL     1     -10.186   2.129 -32.778  1.00  0.00    -0.184 NA
HETATM   11  C   UNL     1     -11.115   2.695 -33.481  1.00  0.00     0.150 C 
BRANCH  11  12
HETATM   12  C   UNL     1     -12.474   2.122 -33.550  1.00  0.00    -0.016 A 
HETATM   13  C   UNL     1     -13.537   2.733 -32.875  1.00  0.00     0.031 A 
HETATM   14  C   UNL     1     -14.809   2.167 -32.945  1.00  0.00     0.007 A 
HETATM   15  I   UNL     1     -16.391   3.062 -31.936  1.00  0.00    -0.045 I 
HETATM   16  C   UNL     1     -15.026   1.004 -33.683  1.00  0.00     0.018 A 
HETATM   17  C   UNL     1     -13.962   0.400 -34.357  1.00  0.00     0.002 A 
HETATM   18  C   UNL     1     -12.683   0.956 -34.291  1.00  0.00     0.013 A 
ENDBRANCH  11  12
ENDBRANCH   7  10
ENDBRANCH   5   6
BRANCH   1  19
HETATM   19  C   UNL     1      -5.262   1.369 -32.280  1.00  0.00     0.296 C 
BRANCH  19  20
HETATM   20  N   UNL     1      -4.756   0.227 -33.146  1.00  0.00    -0.066 N 
HETATM   21  H   UNL     1      -4.774   0.569 -34.118  1.00  0.00     0.280 HD
BRANCH  20  22
HETATM   22  C   UNL     1      -5.694  -0.971 -33.068  1.00  0.00     0.231 C 
HETATM   23  C   UNL     1      -6.075  -1.467 -34.451  1.00  0.00     0.034 C 
ENDBRANCH  20  22
BRANCH  20  24
HETATM   24  C   UNL     1      -3.327  -0.173 -32.805  1.00  0.00     0.231 C 
HETATM   25  C   UNL     1      -3.054  -0.006 -31.319  1.00  0.00     0.034 C 
ENDBRANCH  20  24
ENDBRANCH  19  20
ENDBRANCH   1  19
BRANCH   2  26
HETATM   26  C   UNL     1      -3.443   3.918 -32.641  1.00  0.00     0.225 A 
HETATM   27  N   UNL     1      -3.223   3.622 -31.356  1.00  0.00    -0.081 NA
HETATM   28  O   UNL     1      -1.886   3.989 -31.159  1.00  0.00    -0.103 OA
HETATM   29  N   UNL     1      -1.338   4.524 -32.315  1.00  0.00    -0.083 NA
HETATM   30  C   UNL     1      -2.302   4.484 -33.233  1.00  0.00     0.201 A 
BRANCH  30  31
HETATM   31  N   UNL     1      -2.167   4.909 -34.498  1.00  0.00    -0.379 N 
HETATM   32  H   UNL     1      -1.248   5.138 -34.868  1.00  0.00     0.158 HD
HETATM   33  H   UNL     1      -2.946   5.188 -35.092  1.00  0.00     0.158 HD
ENDBRANCH  30  31
ENDBRANCH   2  26
TORSDOF 9
ENDMDL
MODEL 5
REMARK VINA RESULT:      -7.2      4.228      6.370
REMARK  9 active torsions:
REMARK  status: ('A' for Active; 'I' for Inactive)
REMARK    1  A    between atoms: C_2  and  N_3 
REMARK    2  A    between atoms: N_3  and  C_5 
REMARK    3  A    between atoms: N_3  and  C_29 
REMARK    4  A    between atoms: C_5  and  C_6 
REMARK    5  A    between atoms: N_7  and  C_8 
REMARK    6  A    between atoms: C_12  and  N_13 
REMARK    7  A    between atoms: C_16  and  C_17 
REMARK       I    between atoms: C_17  and  N_18 
REMARK    8  A    between atoms: N_18  and  N_19 
REMARK    9  A    between atoms: C_20  and  C_21 
ROOT
HETATM    1  C   UNL     1      -9.260   3.209 -33.995  1.00  0.00     0.096 A 
HETATM    2  N   UNL     1     -10.574   3.640 -33.832  1.00  0.00    -0.215 N 
HETATM    3  N   UNL     1     -10.559   4.931 -33.407  1.00  0.00     0.012 NA
HETATM    4  N   UNL     1      -9.311   5.370 -33.384  1.00  0.00    -0.152 NA
HETATM    5  C   UNL     1      -8.494   4.340 -33.746  1.00  0.00     0.170 A 
ENDROOT
BRANCH   5   6
HETATM    6  C   UNL     1      -7.044   4.448 -33.849  1.00  0.00     0.293 C 
HETATM    7  N   UNL     1      -6.548   5.704 -33.556  1.00  0.00    -0.242 N 
HETATM    8  H   UNL     1      -7.174   6.460 -33.293  1.00  0.00     0.192 HD
HETATM    9  O   UNL     1      -6.381   3.475 -34.198  1.00  0.00    -0.264 OA
BRANCH   7  10
HETATM   10  N   UNL     1      -5.202   5.904 -33.581  1.00  0.00    -0.184 NA
HETATM   11  C   UNL     1      -4.657   6.300 -32.475  1.00  0.00     0.150 C 
BRANCH  11  12
HETATM   12  C   UNL     1      -3.201   6.522 -32.379  1.00  0.00    -0.016 A 
HETATM   13  C   UNL     1      -2.568   6.549 -31.132  1.00  0.00     0.031 A 
HETATM   14  C   UNL     1      -1.193   6.774 -31.066  1.00  0.00     0.007 A 
HETATM   15  I   UNL     1      -0.246   6.827 -29.215  1.00  0.00    -0.045 I 
HETATM   16  C   UNL     1      -0.451   6.967 -32.231  1.00  0.00     0.018 A 
HETATM   17  C   UNL     1      -1.088   6.936 -33.474  1.00  0.00     0.002 A 
HETATM   18  C   UNL     1      -2.465   6.716 -33.551  1.00  0.00     0.013 A 
ENDBRANCH  11  12
ENDBRANCH   7  10
ENDBRANCH   5   6
BRANCH   1  19
HETATM   19  C   UNL     1      -8.832   1.814 -34.267  1.00  0.00     0.296 C 
BRANCH  19  20
HETATM   20  N   UNL     1      -8.129   1.095 -33.128  1.00  0.00    -0.066 N 
HETATM   21  H   UNL     1      -7.516   1.790 -32.677  1.00  0.00     0.280 HD
BRANCH  20  22
HETATM   22  C   UNL     1      -7.238  -0.022 -33.658  1.00  0.00     0.231 C 
HETATM   23  C   UNL     1      -7.228  -0.048 -35.176  1.00  0.00     0.034 C 
ENDBRANCH  20  22
BRANCH  20  24
HETATM   24  C   UNL     1      -9.105   0.568 -32.084  1.00  0.00     0.231 C 
HETATM   25  C   UNL     1     -10.180  -0.292 -32.728  1.00  0.00     0.034 C 
ENDBRANCH  20  24
ENDBRANCH  19  20
ENDBRANCH   1  19
BRANCH   2  26
HETATM   26  C   UNL     1     -11.772   2.938 -34.099  1.00  0.00     0.225 A 
HETATM   27  N   UNL     1     -12.489   2.439 -33.088  1.00  0.00    -0.081 NA
HETATM   28  O   UNL     1     -13.566   1.813 -33.727  1.00  0.00    -0.103 OA
HETATM   29  N   UNL     1     -13.462   1.920 -35.105  1.00  0.00    -0.083 NA
HETATM   30  C   UNL     1     -12.349   2.615 -35.338  1.00  0.00     0.201 A 
BRANCH  30  31
HETATM   31  N   UNL     1     -11.896   2.940 -36.558  1.00  0.00    -0.379 N 
HETATM   32  H   UNL     1     -10.988   3.385 -36.667  1.00  0.00     0.158 HD
HETATM   33  H   UNL     1     -12.468   2.929 -37.400  1.00  0.00     0.158 HD
ENDBRANCH  30  31
ENDBRANCH   2  26
TORSDOF 9
ENDMDL
MODEL 6
REMARK VINA RESULT:      -7.2      4.950      9.907
REMARK  9 active torsions:
REMARK  status: ('A' for Active; 'I' for Inactive)
REMARK    1  A    between atoms: C_2  and  N_3 
REMARK    2  A    between atoms: N_3  and  C_5 
REMARK    3  A    between atoms: N_3  and  C_29 
REMARK    4  A    between atoms: C_5  and  C_6 
REMARK    5  A    between atoms: N_7  and  C_8 
REMARK    6  A    between atoms: C_12  and  N_13 
REMARK    7  A    between atoms: C_16  and  C_17 
REMARK       I    between atoms: C_17  and  N_18 
REMARK    8  A    between atoms: N_18  and  N_19 
REMARK    9  A    between atoms: C_20  and  C_21 
ROOT
HETATM    1  C   UNL     1      -4.490   6.276 -29.061  1.00  0.00     0.096 A 
HETATM    2  N   UNL     1      -4.381   6.697 -27.739  1.00  0.00    -0.215 N 
HETATM    3  N   UNL     1      -5.496   6.310 -27.065  1.00  0.00     0.012 NA
HETATM    4  N   UNL     1      -6.260   5.584 -27.864  1.00  0.00    -0.152 NA
HETATM    5  C   UNL     1      -5.666   5.539 -29.091  1.00  0.00     0.170 A 
ENDROOT
BRANCH   5   6
HETATM    6  C   UNL     1      -6.210   4.815 -30.233  1.00  0.00     0.293 C 
HETATM    7  N   UNL     1      -5.982   3.453 -30.200  1.00  0.00    -0.242 N 
HETATM    8  H   UNL     1      -5.476   3.031 -29.427  1.00  0.00     0.192 HD
HETATM    9  O   UNL     1      -6.788   5.427 -31.127  1.00  0.00    -0.264 OA
BRANCH   7  10
HETATM   10  N   UNL     1      -6.484   2.675 -31.198  1.00  0.00    -0.184 NA
HETATM   11  C   UNL     1      -5.620   2.081 -31.956  1.00  0.00     0.150 C 
BRANCH  11  12
HETATM   12  C   UNL     1      -6.051   1.190 -33.052  1.00  0.00    -0.016 A 
HETATM   13  C   UNL     1      -5.500  -0.088 -33.186  1.00  0.00     0.031 A 
HETATM   14  C   UNL     1      -5.914  -0.906 -34.237  1.00  0.00     0.007 A 
HETATM   15  I   UNL     1      -5.091  -2.804 -34.451  1.00  0.00    -0.045 I 
HETATM   16  C   UNL     1      -6.872  -0.459 -35.147  1.00  0.00     0.018 A 
HETATM   17  C   UNL     1      -7.421   0.818 -35.006  1.00  0.00     0.002 A 
HETATM   18  C   UNL     1      -7.010   1.647 -33.960  1.00  0.00     0.013 A 
ENDBRANCH  11  12
ENDBRANCH   7  10
ENDBRANCH   5   6
BRANCH   1  19
HETATM   19  C   UNL     1      -3.578   6.652 -30.170  1.00  0.00     0.296 C 
BRANCH  19  20
HETATM   20  N   UNL     1      -2.444   5.683 -30.463  1.00  0.00    -0.066 N 
HETATM   21  H   UNL     1      -2.393   5.042 -29.658  1.00  0.00     0.280 HD
BRANCH  20  22
HETATM   22  C   UNL     1      -1.111   6.417 -30.547  1.00  0.00     0.231 C 
HETATM   23  C   UNL     1      -0.333   6.302 -29.249  1.00  0.00     0.034 C 
ENDBRANCH  20  22
BRANCH  20  24
HETATM   24  C   UNL     1      -2.695   4.858 -31.718  1.00  0.00     0.231 C 
HETATM   25  C   UNL     1      -1.477   4.864 -32.628  1.00  0.00     0.034 C 
ENDBRANCH  20  24
ENDBRANCH  19  20
ENDBRANCH   1  19
BRANCH   2  26
HETATM   26  C   UNL     1      -3.304   7.366 -27.112  1.00  0.00     0.225 A 
HETATM   27  N   UNL     1      -3.019   8.628 -27.447  1.00  0.00    -0.081 NA
HETATM   28  O   UNL     1      -1.908   8.936 -26.651  1.00  0.00    -0.103 OA
HETATM   29  N   UNL     1      -1.530   7.850 -25.877  1.00  0.00    -0.083 NA
HETATM   30  C   UNL     1      -2.391   6.875 -26.163  1.00  0.00     0.201 A 
BRANCH  30  31
HETATM   31  N   UNL     1      -2.368   5.652 -25.612  1.00  0.00    -0.379 N 
HETATM   32  H   UNL     1      -1.489   5.244 -25.303  1.00  0.00     0.158 HD
HETATM   33  H   UNL     1      -3.155   5.006 -25.626  1.00  0.00     0.158 HD
ENDBRANCH  30  31
ENDBRANCH   2  26
TORSDOF 9
ENDMDL
MODEL 7
REMARK VINA RESULT:      -7.0      4.736      6.928
REMARK  9 active torsions:
REMARK  status: ('A' for Active; 'I' for Inactive)
REMARK    1  A    between atoms: C_2  and  N_3 
REMARK    2  A    between atoms: N_3  and  C_5 
REMARK    3  A    between atoms: N_3  and  C_29 
REMARK    4  A    between atoms: C_5  and  C_6 
REMARK    5  A    between atoms: N_7  and  C_8 
REMARK    6  A    between atoms: C_12  and  N_13 
REMARK    7  A    between atoms: C_16  and  C_17 
REMARK       I    between atoms: C_17  and  N_18 
REMARK    8  A    between atoms: N_18  and  N_19 
REMARK    9  A    between atoms: C_20  and  C_21 
ROOT
HETATM    1  C   UNL     1     -10.443   3.500 -33.119  1.00  0.00     0.096 A 
HETATM    2  N   UNL     1     -11.699   3.709 -33.683  1.00  0.00    -0.215 N 
HETATM    3  N   UNL     1     -11.851   5.037 -33.926  1.00  0.00     0.012 NA
HETATM    4  N   UNL     1     -10.724   5.668 -33.636  1.00  0.00    -0.152 NA
HETATM    5  C   UNL     1      -9.841   4.751 -33.146  1.00  0.00     0.170 A 
ENDROOT
BRANCH   5   6
HETATM    6  C   UNL     1      -8.482   5.071 -32.731  1.00  0.00     0.293 C 
HETATM    7  N   UNL     1      -7.615   5.324 -33.776  1.00  0.00    -0.242 N 
HETATM    8  H   UNL     1      -7.938   5.283 -34.738  1.00  0.00     0.192 HD
HETATM    9  O   UNL     1      -8.191   5.073 -31.537  1.00  0.00    -0.264 OA
BRANCH   7  10
HETATM   10  N   UNL     1      -6.329   5.675 -33.498  1.00  0.00    -0.184 NA
HETATM   11  C   UNL     1      -5.405   5.023 -34.128  1.00  0.00     0.150 C 
BRANCH  11  12
HETATM   12  C   UNL     1      -3.976   5.338 -33.925  1.00  0.00    -0.016 A 
HETATM   13  C   UNL     1      -3.522   5.808 -32.688  1.00  0.00     0.031 A 
HETATM   14  C   UNL     1      -2.171   6.111 -32.524  1.00  0.00     0.007 A 
HETATM   15  I   UNL     1      -1.489   6.821 -30.693  1.00  0.00    -0.045 I 
HETATM   16  C   UNL     1      -1.276   5.946 -33.581  1.00  0.00     0.018 A 
HETATM   17  C   UNL     1      -1.735   5.474 -34.813  1.00  0.00     0.002 A 
HETATM   18  C   UNL     1      -3.087   5.171 -34.990  1.00  0.00     0.013 A 
ENDBRANCH  11  12
ENDBRANCH   7  10
ENDBRANCH   5   6
BRANCH   1  19
HETATM   19  C   UNL     1      -9.955   2.225 -32.537  1.00  0.00     0.296 C 
BRANCH  19  20
HETATM   20  N   UNL     1      -8.640   1.697 -33.087  1.00  0.00    -0.066 N 
HETATM   21  H   UNL     1      -8.214   2.470 -33.617  1.00  0.00     0.280 HD
BRANCH  20  22
HETATM   22  C   UNL     1      -8.882   0.553 -34.065  1.00  0.00     0.231 C 
HETATM   23  C   UNL     1      -7.771   0.463 -35.096  1.00  0.00     0.034 C 
ENDBRANCH  20  22
BRANCH  20  24
HETATM   24  C   UNL     1      -7.675   1.280 -31.986  1.00  0.00     0.231 C 
HETATM   25  C   UNL     1      -6.347   2.009 -32.121  1.00  0.00     0.034 C 
ENDBRANCH  20  24
ENDBRANCH  19  20
ENDBRANCH   1  19
BRANCH   2  26
HETATM   26  C   UNL     1     -12.681   2.752 -34.029  1.00  0.00     0.225 A 
HETATM   27  N   UNL     1     -12.718   2.256 -35.270  1.00  0.00    -0.081 NA
HETATM   28  O   UNL     1     -13.807   1.377 -35.240  1.00  0.00    -0.103 OA
HETATM   29  N   UNL     1     -14.420   1.381 -33.996  1.00  0.00    -0.083 NA
HETATM   30  C   UNL     1     -13.726   2.235 -33.245  1.00  0.00     0.201 A 
BRANCH  30  31
HETATM   31  N   UNL     1     -14.000   2.519 -31.963  1.00  0.00    -0.379 N 
HETATM   32  H   UNL     1     -14.187   1.771 -31.300  1.00  0.00     0.158 HD
HETATM   33  H   UNL     1     -14.204   3.455 -31.618  1.00  0.00     0.158 HD
ENDBRANCH  30  31
ENDBRANCH   2  26
TORSDOF 9
ENDMDL
MODEL 8
REMARK VINA RESULT:      -7.0      3.746      5.802
REMARK  9 active torsions:
REMARK  status: ('A' for Active; 'I' for Inactive)
REMARK    1  A    between atoms: C_2  and  N_3 
REMARK    2  A    between atoms: N_3  and  C_5 
REMARK    3  A    between atoms: N_3  and  C_29 
REMARK    4  A    between atoms: C_5  and  C_6 
REMARK    5  A    between atoms: N_7  and  C_8 
REMARK    6  A    between atoms: C_12  and  N_13 
REMARK    7  A    between atoms: C_16  and  C_17 
REMARK       I    between atoms: C_17  and  N_18 
REMARK    8  A    between atoms: N_18  and  N_19 
REMARK    9  A    between atoms: C_20  and  C_21 
ROOT
HETATM    1  C   UNL     1      -8.031   3.303 -33.610  1.00  0.00     0.096 A 
HETATM    2  N   UNL     1      -9.377   3.460 -33.931  1.00  0.00    -0.215 N 
HETATM    3  N   UNL     1      -9.591   4.753 -34.290  1.00  0.00     0.012 NA
HETATM    4  N   UNL     1      -8.437   5.400 -34.306  1.00  0.00    -0.152 NA
HETATM    5  C   UNL     1      -7.463   4.536 -33.901  1.00  0.00     0.170 A 
ENDROOT
BRANCH   5   6
HETATM    6  C   UNL     1      -6.052   4.886 -33.806  1.00  0.00     0.293 C 
HETATM    7  N   UNL     1      -5.736   5.672 -32.714  1.00  0.00    -0.242 N 
HETATM    8  H   UNL     1      -6.456   5.958 -32.056  1.00  0.00     0.192 HD
HETATM    9  O   UNL     1      -5.266   4.504 -34.669  1.00  0.00    -0.264 OA
BRANCH   7  10
HETATM   10  N   UNL     1      -4.437   6.022 -32.505  1.00  0.00    -0.184 NA
HETATM   11  C   UNL     1      -3.830   5.431 -31.527  1.00  0.00     0.150 C 
BRANCH  11  12
HETATM   12  C   UNL     1      -2.412   5.713 -31.226  1.00  0.00    -0.016 A 
HETATM   13  C   UNL     1      -2.065   6.545 -30.156  1.00  0.00     0.031 A 
HETATM   14  C   UNL     1      -0.720   6.807 -29.900  1.00  0.00     0.007 A 
HETATM   15  I   UNL     1      -0.196   8.051 -28.319  1.00  0.00    -0.045 I 
HETATM   16  C   UNL     1       0.275   6.244 -30.699  1.00  0.00     0.018 A 
HETATM   17  C   UNL     1      -0.077   5.412 -31.765  1.00  0.00     0.002 A 
HETATM   18  C   UNL     1      -1.422   5.146 -32.033  1.00  0.00     0.013 A 
ENDBRANCH  11  12
ENDBRANCH   7  10
ENDBRANCH   5   6
BRANCH   1  19
HETATM   19  C   UNL     1      -7.421   2.098 -32.996  1.00  0.00     0.296 C 
BRANCH  19  20
HETATM   20  N   UNL     1      -6.156   1.577 -33.656  1.00  0.00    -0.066 N 
HETATM   21  H   UNL     1      -5.943   2.223 -34.429  1.00  0.00     0.280 HD
BRANCH  20  22
HETATM   22  C   UNL     1      -6.389   0.199 -34.266  1.00  0.00     0.231 C 
HETATM   23  C   UNL     1      -7.516   0.228 -35.283  1.00  0.00     0.034 C 
ENDBRANCH  20  22
BRANCH  20  24
HETATM   24  C   UNL     1      -4.968   1.559 -32.704  1.00  0.00     0.231 C 
HETATM   25  C   UNL     1      -5.352   2.116 -31.343  1.00  0.00     0.034 C 
ENDBRANCH  20  24
ENDBRANCH  19  20
ENDBRANCH   1  19
BRANCH   2  26
HETATM   26  C   UNL     1     -10.397   2.481 -33.962  1.00  0.00     0.225 A 
HETATM   27  N   UNL     1     -10.421   1.515 -33.038  1.00  0.00    -0.081 NA
HETATM   28  O   UNL     1     -11.533   0.745 -33.397  1.00  0.00    -0.103 OA
HETATM   29  N   UNL     1     -12.139   1.241 -34.541  1.00  0.00    -0.083 NA
HETATM   30  C   UNL     1     -11.435   2.315 -34.895  1.00  0.00     0.201 A 
BRANCH  30  31
HETATM   31  N   UNL     1     -11.705   3.087 -35.958  1.00  0.00    -0.379 N 
HETATM   32  H   UNL     1     -11.437   2.788 -36.892  1.00  0.00     0.158 HD
HETATM   33  H   UNL     1     -12.021   4.053 -35.895  1.00  0.00     0.158 HD
ENDBRANCH  30  31
ENDBRANCH   2  26
TORSDOF 9
ENDMDL
MODEL 9
REMARK VINA RESULT:      -7.0      3.294      5.265
REMARK  9 active torsions:
REMARK  status: ('A' for Active; 'I' for Inactive)
REMARK    1  A    between atoms: C_2  and  N_3 
REMARK    2  A    between atoms: N_3  and  C_5 
REMARK    3  A    between atoms: N_3  and  C_29 
REMARK    4  A    between atoms: C_5  and  C_6 
REMARK    5  A    between atoms: N_7  and  C_8 
REMARK    6  A    between atoms: C_12  and  N_13 
REMARK    7  A    between atoms: C_16  and  C_17 
REMARK       I    between atoms: C_17  and  N_18 
REMARK    8  A    between atoms: N_18  and  N_19 
REMARK    9  A    between atoms: C_20  and  C_21 
ROOT
HETATM    1  C   UNL     1      -7.815   2.661 -32.098  1.00  0.00     0.096 A 
HETATM    2  N   UNL     1      -9.207   2.652 -32.066  1.00  0.00    -0.215 N 
HETATM    3  N   UNL     1      -9.618   3.107 -30.853  1.00  0.00     0.012 NA
HETATM    4  N   UNL     1      -8.565   3.494 -30.151  1.00  0.00    -0.152 NA
HETATM    5  C   UNL     1      -7.448   3.240 -30.891  1.00  0.00     0.170 A 
ENDROOT
BRANCH   5   6
HETATM    6  C   UNL     1      -6.093   3.547 -30.451  1.00  0.00     0.293 C 
HETATM    7  N   UNL     1      -5.682   4.834 -30.739  1.00  0.00    -0.242 N 
HETATM    8  H   UNL     1      -6.303   5.481 -31.216  1.00  0.00     0.192 HD
HETATM    9  O   UNL     1      -5.417   2.682 -29.900  1.00  0.00    -0.264 OA
BRANCH   7  10
HETATM   10  N   UNL     1      -4.447   5.239 -30.334  1.00  0.00    -0.184 NA
HETATM   11  C   UNL     1      -3.583   5.476 -31.268  1.00  0.00     0.150 C 
BRANCH  11  12
HETATM   12  C   UNL     1      -2.221   5.948 -30.946  1.00  0.00    -0.016 A 
HETATM   13  C   UNL     1      -2.002   6.787 -29.849  1.00  0.00     0.031 A 
HETATM   14  C   UNL     1      -0.710   7.230 -29.572  1.00  0.00     0.007 A 
HETATM   15  I   UNL     1      -0.376   8.488 -27.950  1.00  0.00    -0.045 I 
HETATM   16  C   UNL     1       0.360   6.839 -30.377  1.00  0.00     0.018 A 
HETATM   17  C   UNL     1       0.136   5.999 -31.470  1.00  0.00     0.002 A 
HETATM   18  C   UNL     1      -1.156   5.552 -31.759  1.00  0.00     0.013 A 
ENDBRANCH  11  12
ENDBRANCH   7  10
ENDBRANCH   5   6
BRANCH   1  19
HETATM   19  C   UNL     1      -6.968   2.070 -33.164  1.00  0.00     0.296 C 
BRANCH  19  20
HETATM   20  N   UNL     1      -6.504   0.641 -32.936  1.00  0.00    -0.066 N 
HETATM   21  H   UNL     1      -6.838   0.371 -32.000  1.00  0.00     0.280 HD
BRANCH  20  22
HETATM   22  C   UNL     1      -4.982   0.562 -32.916  1.00  0.00     0.231 C 
HETATM   23  C   UNL     1      -4.497  -0.839 -33.243  1.00  0.00     0.034 C 
ENDBRANCH  20  22
BRANCH  20  24
HETATM   24  C   UNL     1      -7.089  -0.329 -33.953  1.00  0.00     0.231 C 
HETATM   25  C   UNL     1      -7.496   0.395 -35.227  1.00  0.00     0.034 C 
ENDBRANCH  20  24
ENDBRANCH  19  20
ENDBRANCH   1  19
BRANCH   2  26
HETATM   26  C   UNL     1     -10.111   2.301 -33.095  1.00  0.00     0.225 A 
HETATM   27  N   UNL     1     -10.557   3.238 -33.937  1.00  0.00    -0.081 NA
HETATM   28  O   UNL     1     -11.424   2.535 -34.782  1.00  0.00    -0.103 OA
HETATM   29  N   UNL     1     -11.506   1.199 -34.417  1.00  0.00    -0.083 NA
HETATM   30  C   UNL     1     -10.696   1.053 -33.370  1.00  0.00     0.201 A 
BRANCH  30  31
HETATM   31  N   UNL     1     -10.489  -0.104 -32.723  1.00  0.00    -0.379 N 
HETATM   32  H   UNL     1      -9.924  -0.836 -33.145  1.00  0.00     0.158 HD
HETATM   33  H   UNL     1     -10.999  -0.388 -31.889  1.00  0.00     0.158 HD
ENDBRANCH  30  31
ENDBRANCH   2  26
TORSDOF 9
ENDMDL
MODEL 10
REMARK VINA RESULT:      -6.9      2.490      2.845
REMARK  9 active torsions:
REMARK  status: ('A' for Active; 'I' for Inactive)
REMARK    1  A    between atoms: C_2  and  N_3 
REMARK    2  A    between atoms: N_3  and  C_5 
REMARK    3  A    between atoms: N_3  and  C_29 
REMARK    4  A    between atoms: C_5  and  C_6 
REMARK    5  A    between atoms: N_7  and  C_8 
REMARK    6  A    between atoms: C_12  and  N_13 
REMARK    7  A    between atoms: C_16  and  C_17 
REMARK       I    between atoms: C_17  and  N_18 
REMARK    8  A    between atoms: N_18  and  N_19 
REMARK    9  A    between atoms: C_20  and  C_21 
ROOT
HETATM    1  C   UNL     1      -5.037  -0.837 -33.185  1.00  0.00     0.096 A 
HETATM    2  N   UNL     1      -4.609  -2.153 -33.341  1.00  0.00    -0.215 N 
HETATM    3  N   UNL     1      -3.521  -2.353 -32.551  1.00  0.00     0.012 NA
HETATM    4  N   UNL     1      -3.295  -1.265 -31.833  1.00  0.00    -0.152 NA
HETATM    5  C   UNL     1      -4.212  -0.322 -32.194  1.00  0.00     0.170 A 
ENDROOT
BRANCH   5   6
HETATM    6  C   UNL     1      -4.288   1.009 -31.605  1.00  0.00     0.293 C 
HETATM    7  N   UNL     1      -5.263   1.144 -30.636  1.00  0.00    -0.242 N 
HETATM    8  H   UNL     1      -5.856   0.358 -30.384  1.00  0.00     0.192 HD
HETATM    9  O   UNL     1      -3.536   1.897 -31.999  1.00  0.00    -0.264 OA
BRANCH   7  10
HETATM   10  N   UNL     1      -5.392   2.336 -29.991  1.00  0.00    -0.184 NA
HETATM   11  C   UNL     1      -6.494   2.985 -30.192  1.00  0.00     0.150 C 
BRANCH  11  12
HETATM   12  C   UNL     1      -6.753   4.274 -29.521  1.00  0.00    -0.016 A 
HETATM   13  C   UNL     1      -5.728   4.937 -28.838  1.00  0.00     0.031 A 
HETATM   14  C   UNL     1      -6.000   6.147 -28.201  1.00  0.00     0.007 A 
HETATM   15  I   UNL     1      -4.486   7.134 -27.173  1.00  0.00    -0.045 I 
HETATM   16  C   UNL     1      -7.281   6.699 -28.246  1.00  0.00     0.018 A 
HETATM   17  C   UNL     1      -8.300   6.033 -28.932  1.00  0.00     0.002 A 
HETATM   18  C   UNL     1      -8.040   4.818 -29.570  1.00  0.00     0.013 A 
ENDBRANCH  11  12
ENDBRANCH   7  10
ENDBRANCH   5   6
BRANCH   1  19
HETATM   19  C   UNL     1      -6.076  -0.161 -34.001  1.00  0.00     0.296 C 
BRANCH  19  20
HETATM   20  N   UNL     1      -7.282   0.370 -33.244  1.00  0.00    -0.066 N 
HETATM   21  H   UNL     1      -7.063   0.274 -32.242  1.00  0.00     0.280 HD
BRANCH  20  22
HETATM   22  C   UNL     1      -8.516  -0.481 -33.524  1.00  0.00     0.231 C 
HETATM   23  C   UNL     1      -9.755   0.114 -32.881  1.00  0.00     0.034 C 
ENDBRANCH  20  22
BRANCH  20  24
HETATM   24  C   UNL     1      -7.553   1.839 -33.538  1.00  0.00     0.231 C 
HETATM   25  C   UNL     1      -6.348   2.495 -34.193  1.00  0.00     0.034 C 
ENDBRANCH  20  24
ENDBRANCH  19  20
ENDBRANCH   1  19
BRANCH   2  26
HETATM   26  C   UNL     1      -5.186  -3.182 -34.119  1.00  0.00     0.225 A 
HETATM   27  N   UNL     1      -6.332  -2.961 -34.771  1.00  0.00    -0.081 NA
HETATM   28  O   UNL     1      -6.594  -4.184 -35.399  1.00  0.00    -0.103 OA
HETATM   29  N   UNL     1      -5.622  -5.124 -35.092  1.00  0.00    -0.083 NA
HETATM   30  C   UNL     1      -4.751  -4.506 -34.296  1.00  0.00     0.201 A 
BRANCH  30  31
HETATM   31  N   UNL     1      -3.652  -5.078 -33.781  1.00  0.00    -0.379 N 
HETATM   32  H   UNL     1      -2.762  -5.015 -34.269  1.00  0.00     0.158 HD
HETATM   33  H   UNL     1      -3.663  -5.730 -32.999  1.00  0.00     0.158 HD
ENDBRANCH  30  31
ENDBRANCH   2  26
TORSDOF 9
ENDMDL
