MODEL 1
REMARK VINA RESULT:      -8.7      0.000      0.000
REMARK  14 active torsions:
REMARK  status: ('A' for Active; 'I' for Inactive)
REMARK    1  A    between atoms: C_2  and  O_3 
REMARK    2  A    between atoms: O_3  and  C_4 
REMARK    3  A    between atoms: C_5  and  O_6 
REMARK    4  A    between atoms: C_9  and  C_10 
REMARK    5  A    between atoms: N_11  and  C_12 
REMARK    6  A    between atoms: C_12  and  C_13 
REMARK    7  A    between atoms: C_13  and  C_14 
REMARK    8  A    between atoms: C_14  and  N_15 
REMARK    9  A    between atoms: C_24  and  O_25 
REMARK   10  A    between atoms: C_26  and  C_27 
REMARK   11  A    between atoms: C_27  and  C_28 
REMARK   12  A    between atoms: C_32  and  O_33 
REMARK   13  A    between atoms: O_33  and  C_34 
REMARK   14  A    between atoms: C_34  and  C_35 
ROOT
HETATM    1  C   UNL     1      -5.442   4.124 -32.539  1.00  0.00     0.161 C 
HETATM    2  N   UNL     1      -6.533   4.908 -31.965  1.00  0.00    -0.333 N 
HETATM    3  C   UNL     1      -6.711   4.605 -30.630  1.00  0.00     0.278 C 
HETATM    4  O   UNL     1      -7.514   5.085 -29.848  1.00  0.00    -0.265 OA
HETATM    5  C   UNL     1      -5.758   3.528 -30.282  1.00  0.00     0.146 C 
HETATM    6  C   UNL     1      -5.105   3.208 -31.403  1.00  0.00     0.059 C 
ENDROOT
BRANCH   6   7
HETATM    7  C   UNL     1      -4.182   2.081 -31.652  1.00  0.00     0.193 C 
HETATM    8  O   UNL     1      -3.037   2.136 -31.212  1.00  0.00    -0.287 OA
BRANCH   7   9
HETATM    9  C   UNL     1      -4.579   0.942 -32.522  1.00  0.00     0.015 A 
HETATM   10  C   UNL     1      -5.681   1.107 -33.372  1.00  0.00     0.025 A 
HETATM   11  C   UNL     1      -6.141   0.044 -34.169  1.00  0.00    -0.028 A 
HETATM   12  C   UNL     1      -7.334   0.241 -35.063  1.00  0.00     0.051 C 
HETATM   13  C   UNL     1      -5.483  -1.198 -34.116  1.00  0.00     0.074 A 
HETATM   14  C   UNL     1      -4.403  -1.368 -33.247  1.00  0.00     0.038 A 
HETATM   15  C   UNL     1      -3.962  -0.309 -32.444  1.00  0.00     0.018 A 
BRANCH  13  16
HETATM   16  O   UNL     1      -5.990  -2.179 -34.927  1.00  0.00    -0.350 OA
BRANCH  16  17
HETATM   17  C   UNL     1      -5.071  -3.131 -35.465  1.00  0.00     0.179 C 
BRANCH  17  18
HETATM   18  C   UNL     1      -5.536  -4.546 -35.097  1.00  0.00     0.002 C 
HETATM   19  C   UNL     1      -4.634  -5.173 -34.032  1.00  0.00     0.011 C 
HETATM   20  C   UNL     1      -6.986  -4.520 -34.616  1.00  0.00     0.011 C 
ENDBRANCH  17  18
ENDBRANCH  16  17
ENDBRANCH  13  16
ENDBRANCH   7   9
ENDBRANCH   6   7
BRANCH   1  21
HETATM   21  C   UNL     1      -4.341   5.075 -32.986  1.00  0.00    -0.028 A 
HETATM   22  C   UNL     1      -3.936   5.151 -34.334  1.00  0.00     0.012 A 
HETATM   23  C   UNL     1      -2.868   5.962 -34.712  1.00  0.00     0.040 A 
HETATM   24  C   UNL     1      -2.209   6.707 -33.746  1.00  0.00     0.099 A 
HETATM   25  C   UNL     1      -2.604   6.683 -32.405  1.00  0.00     0.102 A 
HETATM   26  C   UNL     1      -3.668   5.861 -32.029  1.00  0.00     0.049 A 
BRANCH  24  27
HETATM   27  O   UNL     1      -1.153   7.480 -34.142  1.00  0.00    -0.358 OA
HETATM   28  H   UNL     1      -0.358   6.937 -33.975  1.00  0.00     0.218 HD
ENDBRANCH  24  27
BRANCH  25  29
HETATM   29  O   UNL     1      -1.861   7.475 -31.570  1.00  0.00    -0.349 OA
BRANCH  29  30
HETATM   30  C   UNL     1      -1.169   6.820 -30.507  1.00  0.00     0.171 C 
HETATM   31  C   UNL     1       0.312   6.828 -30.840  1.00  0.00     0.034 C 
ENDBRANCH  29  30
ENDBRANCH  25  29
ENDBRANCH   1  21
BRANCH   5  32
HETATM   32  O   UNL     1      -5.695   2.949 -29.052  1.00  0.00    -0.355 OA
HETATM   33  H   UNL     1      -6.471   2.358 -28.976  1.00  0.00     0.218 HD
ENDBRANCH   5  32
BRANCH   2  34
HETATM   34  C   UNL     1      -7.542   5.511 -32.822  1.00  0.00     0.129 C 
BRANCH  34  35
HETATM   35  C   UNL     1      -8.894   4.800 -32.828  1.00  0.00     0.048 C 
BRANCH  35  36
HETATM   36  C   UNL     1      -8.945   3.677 -33.857  1.00  0.00     0.236 C 
BRANCH  36  37
HETATM   37  N   UNL     1     -10.387   3.352 -34.188  1.00  0.00    -0.067 N 
HETATM   38  H   UNL     1     -10.978   3.674 -33.412  1.00  0.00     0.280 HD
HETATM   39  C   UNL     1     -10.870   4.057 -35.460  1.00  0.00     0.261 C 
HETATM   40  C   UNL     1     -12.332   3.680 -35.726  1.00  0.00     0.195 C 
HETATM   41  O   UNL     1     -12.488   2.261 -35.837  1.00  0.00    -0.388 OA
HETATM   42  C   UNL     1     -12.091   1.584 -34.640  1.00  0.00     0.195 C 
HETATM   43  C   UNL     1     -10.615   1.848 -34.323  1.00  0.00     0.261 C 
ENDBRANCH  36  37
ENDBRANCH  35  36
ENDBRANCH  34  35
ENDBRANCH   2  34
TORSDOF 14
ENDMDL
MODEL 2
REMARK VINA RESULT:      -8.7      1.263      1.926
REMARK  14 active torsions:
REMARK  status: ('A' for Active; 'I' for Inactive)
REMARK    1  A    between atoms: C_2  and  O_3 
REMARK    2  A    between atoms: O_3  and  C_4 
REMARK    3  A    between atoms: C_5  and  O_6 
REMARK    4  A    between atoms: C_9  and  C_10 
REMARK    5  A    between atoms: N_11  and  C_12 
REMARK    6  A    between atoms: C_12  and  C_13 
REMARK    7  A    between atoms: C_13  and  C_14 
REMARK    8  A    between atoms: C_14  and  N_15 
REMARK    9  A    between atoms: C_24  and  O_25 
REMARK   10  A    between atoms: C_26  and  C_27 
REMARK   11  A    between atoms: C_27  and  C_28 
REMARK   12  A    between atoms: C_32  and  O_33 
REMARK   13  A    between atoms: O_33  and  C_34 
REMARK   14  A    between atoms: C_34  and  C_35 
ROOT
HETATM    1  C   UNL     1      -6.261   4.533 -32.165  1.00  0.00     0.161 C 
HETATM    2  N   UNL     1      -7.579   5.059 -31.817  1.00  0.00    -0.333 N 
HETATM    3  C   UNL     1      -8.091   4.416 -30.708  1.00  0.00     0.278 C 
HETATM    4  O   UNL     1      -9.152   4.620 -30.142  1.00  0.00    -0.265 OA
HETATM    5  C   UNL     1      -7.129   3.366 -30.312  1.00  0.00     0.146 C 
HETATM    6  C   UNL     1      -6.135   3.391 -31.205  1.00  0.00     0.059 C 
ENDROOT
BRANCH   6   7
HETATM    7  C   UNL     1      -5.017   2.439 -31.379  1.00  0.00     0.193 C 
HETATM    8  O   UNL     1      -3.932   2.688 -30.862  1.00  0.00    -0.287 OA
BRANCH   7   9
HETATM    9  C   UNL     1      -5.153   1.251 -32.264  1.00  0.00     0.015 A 
HETATM   10  C   UNL     1      -6.033   1.329 -33.352  1.00  0.00     0.025 A 
HETATM   11  C   UNL     1      -6.249   0.215 -34.183  1.00  0.00    -0.028 A 
HETATM   12  C   UNL     1      -7.209   0.319 -35.337  1.00  0.00     0.051 C 
HETATM   13  C   UNL     1      -5.570  -0.988 -33.922  1.00  0.00     0.074 A 
HETATM   14  C   UNL     1      -4.716  -1.071 -32.820  1.00  0.00     0.038 A 
HETATM   15  C   UNL     1      -4.520   0.037 -31.987  1.00  0.00     0.018 A 
BRANCH  13  16
HETATM   16  O   UNL     1      -5.834  -2.022 -34.782  1.00  0.00    -0.350 OA
BRANCH  16  17
HETATM   17  C   UNL     1      -4.772  -2.938 -35.057  1.00  0.00     0.179 C 
BRANCH  17  18
HETATM   18  C   UNL     1      -5.316  -4.372 -35.004  1.00  0.00     0.002 C 
HETATM   19  C   UNL     1      -4.605  -5.202 -33.932  1.00  0.00     0.011 C 
HETATM   20  C   UNL     1      -6.823  -4.359 -34.753  1.00  0.00     0.011 C 
ENDBRANCH  17  18
ENDBRANCH  16  17
ENDBRANCH  13  16
ENDBRANCH   7   9
ENDBRANCH   6   7
BRANCH   1  21
HETATM   21  C   UNL     1      -5.238   5.651 -32.020  1.00  0.00    -0.028 A 
HETATM   22  C   UNL     1      -5.323   6.596 -30.977  1.00  0.00     0.012 A 
HETATM   23  C   UNL     1      -4.430   7.664 -30.910  1.00  0.00     0.040 A 
HETATM   24  C   UNL     1      -3.445   7.784 -31.877  1.00  0.00     0.099 A 
HETATM   25  C   UNL     1      -3.309   6.849 -32.907  1.00  0.00     0.102 A 
HETATM   26  C   UNL     1      -4.212   5.786 -32.977  1.00  0.00     0.049 A 
BRANCH  24  27
HETATM   27  O   UNL     1      -2.594   8.852 -31.797  1.00  0.00    -0.358 OA
HETATM   28  H   UNL     1      -2.654   9.161 -30.872  1.00  0.00     0.218 HD
ENDBRANCH  24  27
BRANCH  25  29
HETATM   29  O   UNL     1      -2.286   7.098 -33.784  1.00  0.00    -0.349 OA
BRANCH  29  30
HETATM   30  C   UNL     1      -1.161   6.222 -33.728  1.00  0.00     0.171 C 
HETATM   31  C   UNL     1      -1.225   5.303 -34.935  1.00  0.00     0.034 C 
ENDBRANCH  29  30
ENDBRANCH  25  29
ENDBRANCH   1  21
BRANCH   5  32
HETATM   32  O   UNL     1      -7.340   2.503 -29.281  1.00  0.00    -0.355 OA
HETATM   33  H   UNL     1      -7.328   3.033 -28.459  1.00  0.00     0.218 HD
ENDBRANCH   5  32
BRANCH   2  34
HETATM   34  C   UNL     1      -8.373   5.776 -32.803  1.00  0.00     0.129 C 
BRANCH  34  35
HETATM   35  C   UNL     1      -8.647   5.010 -34.096  1.00  0.00     0.048 C 
BRANCH  35  36
HETATM   36  C   UNL     1     -10.139   4.844 -34.357  1.00  0.00     0.236 C 
BRANCH  36  37
HETATM   37  N   UNL     1     -10.465   3.377 -34.547  1.00  0.00    -0.067 N 
HETATM   38  H   UNL     1      -9.993   3.048 -35.397  1.00  0.00     0.280 HD
HETATM   39  C   UNL     1      -9.974   2.512 -33.380  1.00  0.00     0.261 C 
HETATM   40  C   UNL     1     -10.339   1.047 -33.646  1.00  0.00     0.195 C 
HETATM   41  O   UNL     1     -11.749   0.893 -33.839  1.00  0.00    -0.388 OA
HETATM   42  C   UNL     1     -12.222   1.652 -34.956  1.00  0.00     0.195 C 
HETATM   43  C   UNL     1     -11.961   3.149 -34.754  1.00  0.00     0.261 C 
ENDBRANCH  36  37
ENDBRANCH  35  36
ENDBRANCH  34  35
ENDBRANCH   2  34
TORSDOF 14
ENDMDL
MODEL 3
REMARK VINA RESULT:      -8.6      2.393      8.757
REMARK  14 active torsions:
REMARK  status: ('A' for Active; 'I' for Inactive)
REMARK    1  A    between atoms: C_2  and  O_3 
REMARK    2  A    between atoms: O_3  and  C_4 
REMARK    3  A    between atoms: C_5  and  O_6 
REMARK    4  A    between atoms: C_9  and  C_10 
REMARK    5  A    between atoms: N_11  and  C_12 
REMARK    6  A    between atoms: C_12  and  C_13 
REMARK    7  A    between atoms: C_13  and  C_14 
REMARK    8  A    between atoms: C_14  and  N_15 
REMARK    9  A    between atoms: C_24  and  O_25 
REMARK   10  A    between atoms: C_26  and  C_27 
REMARK   11  A    between atoms: C_27  and  C_28 
REMARK   12  A    between atoms: C_32  and  O_33 
REMARK   13  A    between atoms: O_33  and  C_34 
REMARK   14  A    between atoms: C_34  and  C_35 
ROOT
HETATM    1  C   UNL     1      -6.101   1.982 -32.521  1.00  0.00     0.161 C 
HETATM    2  N   UNL     1      -5.753   0.703 -31.906  1.00  0.00    -0.333 N 
HETATM    3  C   UNL     1      -4.544   0.784 -31.244  1.00  0.00     0.278 C 
HETATM    4  O   UNL     1      -3.972  -0.086 -30.610  1.00  0.00    -0.265 OA
HETATM    5  C   UNL     1      -4.002   2.142 -31.463  1.00  0.00     0.146 C 
HETATM    6  C   UNL     1      -4.861   2.781 -32.264  1.00  0.00     0.059 C 
ENDROOT
BRANCH   6   7
HETATM    7  C   UNL     1      -4.710   4.090 -32.933  1.00  0.00     0.193 C 
HETATM    8  O   UNL     1      -5.115   4.226 -34.084  1.00  0.00    -0.287 OA
BRANCH   7   9
HETATM    9  C   UNL     1      -3.971   5.204 -32.280  1.00  0.00     0.015 A 
HETATM   10  C   UNL     1      -2.789   5.660 -32.879  1.00  0.00     0.025 A 
HETATM   11  C   UNL     1      -2.016   6.665 -32.272  1.00  0.00    -0.028 A 
HETATM   12  C   UNL     1      -0.744   7.129 -32.928  1.00  0.00     0.051 C 
HETATM   13  C   UNL     1      -2.438   7.224 -31.052  1.00  0.00     0.074 A 
HETATM   14  C   UNL     1      -3.600   6.747 -30.443  1.00  0.00     0.038 A 
HETATM   15  C   UNL     1      -4.355   5.734 -31.046  1.00  0.00     0.018 A 
BRANCH  13  16
HETATM   16  O   UNL     1      -1.631   8.201 -30.531  1.00  0.00    -0.350 OA
BRANCH  16  17
HETATM   17  C   UNL     1      -1.151   8.018 -29.197  1.00  0.00     0.179 C 
BRANCH  17  18
HETATM   18  C   UNL     1       0.304   7.534 -29.246  1.00  0.00     0.002 C 
HETATM   19  C   UNL     1       1.153   8.200 -28.161  1.00  0.00     0.011 C 
HETATM   20  C   UNL     1       0.362   6.014 -29.108  1.00  0.00     0.011 C 
ENDBRANCH  17  18
ENDBRANCH  16  17
ENDBRANCH  13  16
ENDBRANCH   7   9
ENDBRANCH   6   7
BRANCH   1  21
HETATM   21  C   UNL     1      -7.380   2.499 -31.880  1.00  0.00    -0.028 A 
HETATM   22  C   UNL     1      -7.392   3.006 -30.564  1.00  0.00     0.012 A 
HETATM   23  C   UNL     1      -8.586   3.394 -29.961  1.00  0.00     0.040 A 
HETATM   24  C   UNL     1      -9.771   3.285 -30.673  1.00  0.00     0.099 A 
HETATM   25  C   UNL     1      -9.795   2.817 -31.991  1.00  0.00     0.102 A 
HETATM   26  C   UNL     1      -8.596   2.420 -32.588  1.00  0.00     0.049 A 
BRANCH  24  27
HETATM   27  O   UNL     1     -10.931   3.655 -30.050  1.00  0.00    -0.358 OA
HETATM   28  H   UNL     1     -10.764   4.555 -29.708  1.00  0.00     0.218 HD
ENDBRANCH  24  27
BRANCH  25  29
HETATM   29  O   UNL     1     -11.037   2.771 -32.565  1.00  0.00    -0.349 OA
BRANCH  29  30
HETATM   30  C   UNL     1     -11.138   2.122 -33.832  1.00  0.00     0.171 C 
HETATM   31  C   UNL     1     -12.299   1.146 -33.765  1.00  0.00     0.034 C 
ENDBRANCH  29  30
ENDBRANCH  25  29
ENDBRANCH   1  21
BRANCH   5  32
HETATM   32  O   UNL     1      -2.793   2.554 -30.991  1.00  0.00    -0.355 OA
HETATM   33  H   UNL     1      -2.711   3.503 -31.212  1.00  0.00     0.218 HD
ENDBRANCH   5  32
BRANCH   2  34
HETATM   34  C   UNL     1      -6.365  -0.532 -32.370  1.00  0.00     0.129 C 
BRANCH  34  35
HETATM   35  C   UNL     1      -6.151  -0.845 -33.850  1.00  0.00     0.048 C 
BRANCH  35  36
HETATM   36  C   UNL     1      -4.703  -1.213 -34.153  1.00  0.00     0.236 C 
BRANCH  36  37
HETATM   37  N   UNL     1      -4.623  -2.665 -34.577  1.00  0.00    -0.067 N 
HETATM   38  H   UNL     1      -4.085  -2.717 -35.451  1.00  0.00     0.280 HD
HETATM   39  C   UNL     1      -3.908  -3.539 -33.541  1.00  0.00     0.261 C 
HETATM   40  C   UNL     1      -3.865  -4.988 -34.042  1.00  0.00     0.195 C 
HETATM   41  O   UNL     1      -5.183  -5.481 -34.306  1.00  0.00    -0.388 OA
HETATM   42  C   UNL     1      -5.852  -4.710 -35.309  1.00  0.00     0.195 C 
HETATM   43  C   UNL     1      -6.003  -3.250 -34.870  1.00  0.00     0.261 C 
ENDBRANCH  36  37
ENDBRANCH  35  36
ENDBRANCH  34  35
ENDBRANCH   2  34
TORSDOF 14
ENDMDL
MODEL 4
REMARK VINA RESULT:      -8.6      1.946      7.520
REMARK  14 active torsions:
REMARK  status: ('A' for Active; 'I' for Inactive)
REMARK    1  A    between atoms: C_2  and  O_3 
REMARK    2  A    between atoms: O_3  and  C_4 
REMARK    3  A    between atoms: C_5  and  O_6 
REMARK    4  A    between atoms: C_9  and  C_10 
REMARK    5  A    between atoms: N_11  and  C_12 
REMARK    6  A    between atoms: C_12  and  C_13 
REMARK    7  A    between atoms: C_13  and  C_14 
REMARK    8  A    between atoms: C_14  and  N_15 
REMARK    9  A    between atoms: C_24  and  O_25 
REMARK   10  A    between atoms: C_26  and  C_27 
REMARK   11  A    between atoms: C_27  and  C_28 
REMARK   12  A    between atoms: C_32  and  O_33 
REMARK   13  A    between atoms: O_33  and  C_34 
REMARK   14  A    between atoms: C_34  and  C_35 
ROOT
HETATM    1  C   UNL     1      -6.190   3.990 -32.561  1.00  0.00     0.161 C 
HETATM    2  N   UNL     1      -5.291   5.098 -32.878  1.00  0.00    -0.333 N 
HETATM    3  C   UNL     1      -5.319   6.058 -31.886  1.00  0.00     0.278 C 
HETATM    4  O   UNL     1      -4.681   7.094 -31.822  1.00  0.00    -0.265 OA
HETATM    5  C   UNL     1      -6.318   5.636 -30.880  1.00  0.00     0.146 C 
HETATM    6  C   UNL     1      -6.865   4.501 -31.326  1.00  0.00     0.059 C 
ENDROOT
BRANCH   6   7
HETATM    7  C   UNL     1      -8.032   3.762 -30.800  1.00  0.00     0.193 C 
HETATM    8  O   UNL     1      -8.115   3.553 -29.593  1.00  0.00    -0.287 OA
BRANCH   7   9
HETATM    9  C   UNL     1      -9.041   3.168 -31.718  1.00  0.00     0.015 A 
HETATM   10  C   UNL     1      -9.112   1.772 -31.815  1.00  0.00     0.025 A 
HETATM   11  C   UNL     1     -10.001   1.158 -32.714  1.00  0.00    -0.028 A 
HETATM   12  C   UNL     1     -10.049  -0.343 -32.810  1.00  0.00     0.051 C 
HETATM   13  C   UNL     1     -10.832   1.954 -33.522  1.00  0.00     0.074 A 
HETATM   14  C   UNL     1     -10.739   3.345 -33.443  1.00  0.00     0.038 A 
HETATM   15  C   UNL     1      -9.839   3.949 -32.558  1.00  0.00     0.018 A 
BRANCH  13  16
HETATM   16  O   UNL     1     -11.672   1.277 -34.366  1.00  0.00    -0.350 OA
BRANCH  16  17
HETATM   17  C   UNL     1     -12.914   1.900 -34.701  1.00  0.00     0.179 C 
BRANCH  17  18
HETATM   18  C   UNL     1     -14.067   1.075 -34.112  1.00  0.00     0.002 C 
HETATM   19  C   UNL     1     -13.603  -0.324 -33.701  1.00  0.00     0.011 C 
HETATM   20  C   UNL     1     -14.684   1.803 -32.920  1.00  0.00     0.011 C 
ENDBRANCH  17  18
ENDBRANCH  16  17
ENDBRANCH  13  16
ENDBRANCH   7   9
ENDBRANCH   6   7
BRANCH   1  21
HETATM   21  C   UNL     1      -5.362   2.723 -32.402  1.00  0.00    -0.028 A 
HETATM   22  C   UNL     1      -4.209   2.693 -31.592  1.00  0.00     0.012 A 
HETATM   23  C   UNL     1      -3.414   1.551 -31.526  1.00  0.00     0.040 A 
HETATM   24  C   UNL     1      -3.774   0.433 -32.262  1.00  0.00     0.099 A 
HETATM   25  C   UNL     1      -4.928   0.413 -33.051  1.00  0.00     0.102 A 
HETATM   26  C   UNL     1      -5.717   1.564 -33.122  1.00  0.00     0.049 A 
BRANCH  24  27
HETATM   27  O   UNL     1      -2.965  -0.668 -32.193  1.00  0.00    -0.358 OA
HETATM   28  H   UNL     1      -3.534  -1.385 -31.851  1.00  0.00     0.218 HD
ENDBRANCH  24  27
BRANCH  25  29
HETATM   29  O   UNL     1      -5.155  -0.763 -33.714  1.00  0.00    -0.349 OA
BRANCH  29  30
HETATM   30  C   UNL     1      -6.485  -1.277 -33.679  1.00  0.00     0.171 C 
HETATM   31  C   UNL     1      -6.522  -2.536 -34.527  1.00  0.00     0.034 C 
ENDBRANCH  29  30
ENDBRANCH  25  29
ENDBRANCH   1  21
BRANCH   5  32
HETATM   32  O   UNL     1      -6.640   6.377 -29.785  1.00  0.00    -0.355 OA
HETATM   33  H   UNL     1      -7.381   5.918 -29.339  1.00  0.00     0.218 HD
ENDBRANCH   5  32
BRANCH   2  34
HETATM   34  C   UNL     1      -4.857   5.331 -34.247  1.00  0.00     0.129 C 
BRANCH  34  35
HETATM   35  C   UNL     1      -3.398   4.983 -34.532  1.00  0.00     0.048 C 
BRANCH  35  36
HETATM   36  C   UNL     1      -2.475   6.178 -34.331  1.00  0.00     0.236 C 
BRANCH  36  37
HETATM   37  N   UNL     1      -2.014   6.232 -32.889  1.00  0.00    -0.067 N 
HETATM   38  H   UNL     1      -2.837   6.371 -32.290  1.00  0.00     0.280 HD
HETATM   39  C   UNL     1      -1.332   4.933 -32.443  1.00  0.00     0.261 C 
HETATM   40  C   UNL     1      -0.898   5.064 -30.978  1.00  0.00     0.195 C 
HETATM   41  O   UNL     1      -0.028   6.187 -30.797  1.00  0.00    -0.388 OA
HETATM   42  C   UNL     1      -0.661   7.418 -31.158  1.00  0.00     0.195 C 
HETATM   43  C   UNL     1      -1.077   7.410 -32.633  1.00  0.00     0.261 C 
ENDBRANCH  36  37
ENDBRANCH  35  36
ENDBRANCH  34  35
ENDBRANCH   2  34
TORSDOF 14
ENDMDL
MODEL 5
REMARK VINA RESULT:      -8.6      2.532      5.645
REMARK  14 active torsions:
REMARK  status: ('A' for Active; 'I' for Inactive)
REMARK    1  A    between atoms: C_2  and  O_3 
REMARK    2  A    between atoms: O_3  and  C_4 
REMARK    3  A    between atoms: C_5  and  O_6 
REMARK    4  A    between atoms: C_9  and  C_10 
REMARK    5  A    between atoms: N_11  and  C_12 
REMARK    6  A    between atoms: C_12  and  C_13 
REMARK    7  A    between atoms: C_13  and  C_14 
REMARK    8  A    between atoms: C_14  and  N_15 
REMARK    9  A    between atoms: C_24  and  O_25 
REMARK   10  A    between atoms: C_26  and  C_27 
REMARK   11  A    between atoms: C_27  and  C_28 
REMARK   12  A    between atoms: C_32  and  O_33 
REMARK   13  A    between atoms: O_33  and  C_34 
REMARK   14  A    between atoms: C_34  and  C_35 
ROOT
HETATM    1  C   UNL     1      -6.169   4.968 -31.986  1.00  0.00     0.161 C 
HETATM    2  N   UNL     1      -5.863   5.609 -30.709  1.00  0.00    -0.333 N 
HETATM    3  C   UNL     1      -5.955   4.708 -29.668  1.00  0.00     0.278 C 
HETATM    4  O   UNL     1      -5.747   4.902 -28.482  1.00  0.00    -0.265 OA
HETATM    5  C   UNL     1      -6.403   3.415 -30.230  1.00  0.00     0.146 C 
HETATM    6  C   UNL     1      -6.603   3.607 -31.537  1.00  0.00     0.059 C 
ENDROOT
BRANCH   6   7
HETATM    7  C   UNL     1      -7.222   2.699 -32.526  1.00  0.00     0.193 C 
HETATM    8  O   UNL     1      -8.273   3.028 -33.067  1.00  0.00    -0.287 OA
BRANCH   7   9
HETATM    9  C   UNL     1      -6.656   1.347 -32.785  1.00  0.00     0.015 A 
HETATM   10  C   UNL     1      -5.267   1.180 -32.703  1.00  0.00     0.025 A 
HETATM   11  C   UNL     1      -4.673  -0.058 -33.001  1.00  0.00    -0.028 A 
HETATM   12  C   UNL     1      -3.178  -0.209 -32.920  1.00  0.00     0.051 C 
HETATM   13  C   UNL     1      -5.483  -1.144 -33.380  1.00  0.00     0.074 A 
HETATM   14  C   UNL     1      -6.864  -0.967 -33.488  1.00  0.00     0.038 A 
HETATM   15  C   UNL     1      -7.446   0.275 -33.206  1.00  0.00     0.018 A 
BRANCH  13  16
HETATM   16  O   UNL     1      -4.825  -2.316 -33.648  1.00  0.00    -0.350 OA
BRANCH  16  17
HETATM   17  C   UNL     1      -4.868  -2.804 -34.990  1.00  0.00     0.179 C 
BRANCH  17  18
HETATM   18  C   UNL     1      -5.255  -4.289 -34.975  1.00  0.00     0.002 C 
HETATM   19  C   UNL     1      -4.510  -5.051 -33.876  1.00  0.00     0.011 C 
HETATM   20  C   UNL     1      -6.764  -4.443 -34.798  1.00  0.00     0.011 C 
ENDBRANCH  17  18
ENDBRANCH  16  17
ENDBRANCH  13  16
ENDBRANCH   7   9
ENDBRANCH   6   7
BRANCH   1  21
HETATM   21  C   UNL     1      -4.930   5.023 -32.868  1.00  0.00    -0.028 A 
HETATM   22  C   UNL     1      -5.027   5.164 -34.267  1.00  0.00     0.012 A 
HETATM   23  C   UNL     1      -3.887   5.124 -35.067  1.00  0.00     0.040 A 
HETATM   24  C   UNL     1      -2.647   4.953 -34.472  1.00  0.00     0.099 A 
HETATM   25  C   UNL     1      -2.508   4.842 -33.085  1.00  0.00     0.102 A 
HETATM   26  C   UNL     1      -3.654   4.872 -32.287  1.00  0.00     0.049 A 
BRANCH  24  27
HETATM   27  O   UNL     1      -1.548   4.899 -35.283  1.00  0.00    -0.358 OA
HETATM   28  H   UNL     1      -1.043   4.118 -34.982  1.00  0.00     0.218 HD
ENDBRANCH  24  27
BRANCH  25  29
HETATM   29  O   UNL     1      -1.222   4.683 -32.644  1.00  0.00    -0.349 OA
BRANCH  29  30
HETATM   30  C   UNL     1      -0.658   5.759 -31.896  1.00  0.00     0.171 C 
HETATM   31  C   UNL     1       0.495   5.206 -31.077  1.00  0.00     0.034 C 
ENDBRANCH  29  30
ENDBRANCH  25  29
ENDBRANCH   1  21
BRANCH   5  32
HETATM   32  O   UNL     1      -6.648   2.311 -29.473  1.00  0.00    -0.355 OA
HETATM   33  H   UNL     1      -6.951   1.609 -30.083  1.00  0.00     0.218 HD
ENDBRANCH   5  32
BRANCH   2  34
HETATM   34  C   UNL     1      -5.951   7.054 -30.567  1.00  0.00     0.129 C 
BRANCH  34  35
HETATM   35  C   UNL     1      -4.621   7.763 -30.318  1.00  0.00     0.048 C 
BRANCH  35  36
HETATM   36  C   UNL     1      -4.566   8.404 -28.937  1.00  0.00     0.236 C 
BRANCH  36  37
HETATM   37  N   UNL     1      -3.159   8.303 -28.382  1.00  0.00    -0.067 N 
HETATM   38  H   UNL     1      -2.945   9.176 -27.884  1.00  0.00     0.280 HD
HETATM   39  C   UNL     1      -3.004   7.151 -27.384  1.00  0.00     0.261 C 
HETATM   40  C   UNL     1      -1.561   7.115 -26.868  1.00  0.00     0.195 C 
HETATM   41  O   UNL     1      -0.630   6.986 -27.949  1.00  0.00    -0.388 OA
HETATM   42  C   UNL     1      -0.721   8.079 -28.867  1.00  0.00     0.195 C 
HETATM   43  C   UNL     1      -2.119   8.159 -29.491  1.00  0.00     0.261 C 
ENDBRANCH  36  37
ENDBRANCH  35  36
ENDBRANCH  34  35
ENDBRANCH   2  34
TORSDOF 14
ENDMDL
MODEL 6
REMARK VINA RESULT:      -8.5      3.025      7.075
REMARK  14 active torsions:
REMARK  status: ('A' for Active; 'I' for Inactive)
REMARK    1  A    between atoms: C_2  and  O_3 
REMARK    2  A    between atoms: O_3  and  C_4 
REMARK    3  A    between atoms: C_5  and  O_6 
REMARK    4  A    between atoms: C_9  and  C_10 
REMARK    5  A    between atoms: N_11  and  C_12 
REMARK    6  A    between atoms: C_12  and  C_13 
REMARK    7  A    between atoms: C_13  and  C_14 
REMARK    8  A    between atoms: C_14  and  N_15 
REMARK    9  A    between atoms: C_24  and  O_25 
REMARK   10  A    between atoms: C_26  and  C_27 
REMARK   11  A    between atoms: C_27  and  C_28 
REMARK   12  A    between atoms: C_32  and  O_33 
REMARK   13  A    between atoms: O_33  and  C_34 
REMARK   14  A    between atoms: C_34  and  C_35 
ROOT
HETATM    1  C   UNL     1      -3.410   5.256 -31.962  1.00  0.00     0.161 C 
HETATM    2  N   UNL     1      -2.119   5.759 -32.425  1.00  0.00    -0.333 N 
HETATM    3  C   UNL     1      -2.124   5.953 -33.791  1.00  0.00     0.278 C 
HETATM    4  O   UNL     1      -1.224   6.380 -34.496  1.00  0.00    -0.265 OA
HETATM    5  C   UNL     1      -3.437   5.508 -34.304  1.00  0.00     0.146 C 
HETATM    6  C   UNL     1      -4.124   5.033 -33.259  1.00  0.00     0.059 C 
ENDROOT
BRANCH   6   7
HETATM    7  C   UNL     1      -5.409   4.305 -33.245  1.00  0.00     0.193 C 
HETATM    8  O   UNL     1      -6.450   4.928 -33.060  1.00  0.00    -0.287 OA
BRANCH   7   9
HETATM    9  C   UNL     1      -5.450   2.820 -33.332  1.00  0.00     0.015 A 
HETATM   10  C   UNL     1      -6.365   2.230 -34.213  1.00  0.00     0.025 A 
HETATM   11  C   UNL     1      -6.492   0.831 -34.288  1.00  0.00    -0.028 A 
HETATM   12  C   UNL     1      -7.493   0.221 -35.232  1.00  0.00     0.051 C 
HETATM   13  C   UNL     1      -5.686   0.016 -33.474  1.00  0.00     0.074 A 
HETATM   14  C   UNL     1      -4.795   0.608 -32.576  1.00  0.00     0.038 A 
HETATM   15  C   UNL     1      -4.687   2.001 -32.495  1.00  0.00     0.018 A 
BRANCH  13  16
HETATM   16  O   UNL     1      -5.869  -1.335 -33.612  1.00  0.00    -0.350 OA
BRANCH  16  17
HETATM   17  C   UNL     1      -4.744  -2.113 -34.026  1.00  0.00     0.179 C 
BRANCH  17  18
HETATM   18  C   UNL     1      -5.239  -3.339 -34.806  1.00  0.00     0.002 C 
HETATM   19  C   UNL     1      -4.601  -4.629 -34.285  1.00  0.00     0.011 C 
HETATM   20  C   UNL     1      -6.762  -3.434 -34.735  1.00  0.00     0.011 C 
ENDBRANCH  17  18
ENDBRANCH  16  17
ENDBRANCH  13  16
ENDBRANCH   7   9
ENDBRANCH   6   7
BRANCH   1  21
HETATM   21  C   UNL     1      -4.025   6.284 -31.022  1.00  0.00    -0.028 A 
HETATM   22  C   UNL     1      -3.805   7.665 -31.197  1.00  0.00     0.012 A 
HETATM   23  C   UNL     1      -4.302   8.587 -30.279  1.00  0.00     0.040 A 
HETATM   24  C   UNL     1      -5.027   8.132 -29.188  1.00  0.00     0.099 A 
HETATM   25  C   UNL     1      -5.293   6.773 -28.999  1.00  0.00     0.102 A 
HETATM   26  C   UNL     1      -4.784   5.851 -29.917  1.00  0.00     0.049 A 
BRANCH  24  27
HETATM   27  O   UNL     1      -5.487   9.057 -28.292  1.00  0.00    -0.358 OA
HETATM   28  H   UNL     1      -6.133   8.579 -27.735  1.00  0.00     0.218 HD
ENDBRANCH  24  27
BRANCH  25  29
HETATM   29  O   UNL     1      -6.025   6.477 -27.880  1.00  0.00    -0.349 OA
BRANCH  29  30
HETATM   30  C   UNL     1      -7.196   5.683 -28.066  1.00  0.00     0.171 C 
HETATM   31  C   UNL     1      -8.384   6.622 -28.179  1.00  0.00     0.034 C 
ENDBRANCH  29  30
ENDBRANCH  25  29
ENDBRANCH   1  21
BRANCH   5  32
HETATM   32  O   UNL     1      -3.770   5.512 -35.624  1.00  0.00    -0.355 OA
HETATM   33  H   UNL     1      -2.944   5.356 -36.125  1.00  0.00     0.218 HD
ENDBRANCH   5  32
BRANCH   2  34
HETATM   34  C   UNL     1      -0.923   5.584 -31.615  1.00  0.00     0.129 C 
BRANCH  34  35
HETATM   35  C   UNL     1      -0.203   6.877 -31.234  1.00  0.00     0.048 C 
BRANCH  35  36
HETATM   36  C   UNL     1       0.489   6.769 -29.881  1.00  0.00     0.236 C 
BRANCH  36  37
HETATM   37  N   UNL     1      -0.525   6.958 -28.771  1.00  0.00    -0.067 N 
HETATM   38  H   UNL     1      -1.410   6.527 -29.064  1.00  0.00     0.280 HD
HETATM   39  C   UNL     1      -0.094   6.286 -27.463  1.00  0.00     0.261 C 
HETATM   40  C   UNL     1      -1.169   6.520 -26.394  1.00  0.00     0.195 C 
HETATM   41  O   UNL     1      -1.405   7.919 -26.198  1.00  0.00    -0.388 OA
HETATM   42  C   UNL     1      -1.859   8.558 -27.395  1.00  0.00     0.195 C 
HETATM   43  C   UNL     1      -0.817   8.435 -28.512  1.00  0.00     0.261 C 
ENDBRANCH  36  37
ENDBRANCH  35  36
ENDBRANCH  34  35
ENDBRANCH   2  34
TORSDOF 14
ENDMDL
MODEL 7
REMARK VINA RESULT:      -8.4      2.366      7.989
REMARK  14 active torsions:
REMARK  status: ('A' for Active; 'I' for Inactive)
REMARK    1  A    between atoms: C_2  and  O_3 
REMARK    2  A    between atoms: O_3  and  C_4 
REMARK    3  A    between atoms: C_5  and  O_6 
REMARK    4  A    between atoms: C_9  and  C_10 
REMARK    5  A    between atoms: N_11  and  C_12 
REMARK    6  A    between atoms: C_12  and  C_13 
REMARK    7  A    between atoms: C_13  and  C_14 
REMARK    8  A    between atoms: C_14  and  N_15 
REMARK    9  A    between atoms: C_24  and  O_25 
REMARK   10  A    between atoms: C_26  and  C_27 
REMARK   11  A    between atoms: C_27  and  C_28 
REMARK   12  A    between atoms: C_32  and  O_33 
REMARK   13  A    between atoms: O_33  and  C_34 
REMARK   14  A    between atoms: C_34  and  C_35 
ROOT
HETATM    1  C   UNL     1      -4.523   3.645 -31.696  1.00  0.00     0.161 C 
HETATM    2  N   UNL     1      -5.964   3.854 -31.578  1.00  0.00    -0.333 N 
HETATM    3  C   UNL     1      -6.446   4.590 -32.642  1.00  0.00     0.278 C 
HETATM    4  O   UNL     1      -7.597   4.926 -32.867  1.00  0.00    -0.265 OA
HETATM    5  C   UNL     1      -5.294   4.962 -33.491  1.00  0.00     0.146 C 
HETATM    6  C   UNL     1      -4.198   4.489 -32.890  1.00  0.00     0.059 C 
ENDROOT
BRANCH   6   7
HETATM    7  C   UNL     1      -2.778   4.735 -33.217  1.00  0.00     0.193 C 
HETATM    8  O   UNL     1      -2.297   4.224 -34.225  1.00  0.00    -0.287 OA
BRANCH   7   9
HETATM    9  C   UNL     1      -1.896   5.491 -32.287  1.00  0.00     0.015 A 
HETATM   10  C   UNL     1      -0.719   4.878 -31.840  1.00  0.00     0.025 A 
HETATM   11  C   UNL     1       0.118   5.519 -30.910  1.00  0.00    -0.028 A 
HETATM   12  C   UNL     1       1.370   4.834 -30.434  1.00  0.00     0.051 C 
HETATM   13  C   UNL     1      -0.228   6.794 -30.428  1.00  0.00     0.074 A 
HETATM   14  C   UNL     1      -1.417   7.391 -30.855  1.00  0.00     0.038 A 
HETATM   15  C   UNL     1      -2.253   6.738 -31.767  1.00  0.00     0.018 A 
BRANCH  13  16
HETATM   16  O   UNL     1       0.644   7.351 -29.530  1.00  0.00    -0.350 OA
BRANCH  16  17
HETATM   17  C   UNL     1       0.162   7.590 -28.206  1.00  0.00     0.179 C 
BRANCH  17  18
HETATM   18  C   UNL     1       1.127   8.541 -27.482  1.00  0.00     0.002 C 
HETATM   19  C   UNL     1       0.412   9.805 -27.001  1.00  0.00     0.011 C 
HETATM   20  C   UNL     1       1.793   7.827 -26.308  1.00  0.00     0.011 C 
ENDBRANCH  17  18
ENDBRANCH  16  17
ENDBRANCH  13  16
ENDBRANCH   7   9
ENDBRANCH   6   7
BRANCH   1  21
HETATM   21  C   UNL     1      -4.257   2.153 -31.833  1.00  0.00    -0.028 A 
HETATM   22  C   UNL     1      -3.304   1.498 -31.027  1.00  0.00     0.012 A 
HETATM   23  C   UNL     1      -3.009   0.151 -31.225  1.00  0.00     0.040 A 
HETATM   24  C   UNL     1      -3.673  -0.548 -32.221  1.00  0.00     0.099 A 
HETATM   25  C   UNL     1      -4.648   0.059 -33.019  1.00  0.00     0.102 A 
HETATM   26  C   UNL     1      -4.932   1.413 -32.824  1.00  0.00     0.049 A 
BRANCH  24  27
HETATM   27  O   UNL     1      -3.351  -1.864 -32.406  1.00  0.00    -0.358 OA
HETATM   28  H   UNL     1      -3.982  -2.193 -33.076  1.00  0.00     0.218 HD
ENDBRANCH  24  27
BRANCH  25  29
HETATM   29  O   UNL     1      -5.219  -0.759 -33.956  1.00  0.00    -0.349 OA
BRANCH  29  30
HETATM   30  C   UNL     1      -6.643  -0.855 -33.947  1.00  0.00     0.171 C 
HETATM   31  C   UNL     1      -7.161  -0.247 -35.237  1.00  0.00     0.034 C 
ENDBRANCH  29  30
ENDBRANCH  25  29
ENDBRANCH   1  21
BRANCH   5  32
HETATM   32  O   UNL     1      -5.400   5.736 -34.605  1.00  0.00    -0.355 OA
HETATM   33  H   UNL     1      -4.493   5.867 -34.948  1.00  0.00     0.218 HD
ENDBRANCH   5  32
BRANCH   2  34
HETATM   34  C   UNL     1      -6.629   3.721 -30.291  1.00  0.00     0.129 C 
BRANCH  34  35
HETATM   35  C   UNL     1      -7.694   2.628 -30.222  1.00  0.00     0.048 C 
BRANCH  35  36
HETATM   36  C   UNL     1      -9.098   3.185 -30.427  1.00  0.00     0.236 C 
BRANCH  36  37
HETATM   37  N   UNL     1      -9.891   2.254 -31.322  1.00  0.00    -0.067 N 
HETATM   38  H   UNL     1     -10.628   1.814 -30.758  1.00  0.00     0.280 HD
HETATM   39  C   UNL     1     -10.573   2.994 -32.478  1.00  0.00     0.261 C 
HETATM   40  C   UNL     1     -11.354   1.989 -33.333  1.00  0.00     0.195 C 
HETATM   41  O   UNL     1     -10.496   0.952 -33.823  1.00  0.00    -0.388 OA
HETATM   42  C   UNL     1      -9.888   0.214 -32.759  1.00  0.00     0.195 C 
HETATM   43  C   UNL     1      -9.026   1.126 -31.880  1.00  0.00     0.261 C 
ENDBRANCH  36  37
ENDBRANCH  35  36
ENDBRANCH  34  35
ENDBRANCH   2  34
TORSDOF 14
ENDMDL
MODEL 8
REMARK VINA RESULT:      -8.4      1.996      8.449
REMARK  14 active torsions:
REMARK  status: ('A' for Active; 'I' for Inactive)
REMARK    1  A    between atoms: C_2  and  O_3 
REMARK    2  A    between atoms: O_3  and  C_4 
REMARK    3  A    between atoms: C_5  and  O_6 
REMARK    4  A    between atoms: C_9  and  C_10 
REMARK    5  A    between atoms: N_11  and  C_12 
REMARK    6  A    between atoms: C_12  and  C_13 
REMARK    7  A    between atoms: C_13  and  C_14 
REMARK    8  A    between atoms: C_14  and  N_15 
REMARK    9  A    between atoms: C_24  and  O_25 
REMARK   10  A    between atoms: C_26  and  C_27 
REMARK   11  A    between atoms: C_27  and  C_28 
REMARK   12  A    between atoms: C_32  and  O_33 
REMARK   13  A    between atoms: O_33  and  C_34 
REMARK   14  A    between atoms: C_34  and  C_35 
ROOT
HETATM    1  C   UNL     1      -6.326   1.926 -32.510  1.00  0.00     0.161 C 
HETATM    2  N   UNL     1      -5.360   2.853 -31.925  1.00  0.00    -0.333 N 
HETATM    3  C   UNL     1      -5.794   3.311 -30.697  1.00  0.00     0.278 C 
HETATM    4  O   UNL     1      -5.227   4.076 -29.935  1.00  0.00    -0.265 OA
HETATM    5  C   UNL     1      -7.133   2.736 -30.450  1.00  0.00     0.146 C 
HETATM    6  C   UNL     1      -7.456   2.020 -31.532  1.00  0.00     0.059 C 
ENDROOT
BRANCH   6   7
HETATM    7  C   UNL     1      -8.748   1.392 -31.879  1.00  0.00     0.193 C 
HETATM    8  O   UNL     1      -8.966   0.235 -31.529  1.00  0.00    -0.287 OA
BRANCH   7   9
HETATM    9  C   UNL     1      -9.733   2.094 -32.745  1.00  0.00     0.015 A 
HETATM   10  C   UNL     1     -10.821   1.364 -33.242  1.00  0.00     0.025 A 
HETATM   11  C   UNL     1     -11.747   1.959 -34.117  1.00  0.00    -0.028 A 
HETATM   12  C   UNL     1     -12.899   1.151 -34.649  1.00  0.00     0.051 C 
HETATM   13  C   UNL     1     -11.582   3.305 -34.492  1.00  0.00     0.074 A 
HETATM   14  C   UNL     1     -10.482   4.021 -34.017  1.00  0.00     0.038 A 
HETATM   15  C   UNL     1      -9.554   3.416 -33.161  1.00  0.00     0.018 A 
BRANCH  13  16
HETATM   16  O   UNL     1     -12.531   3.809 -35.342  1.00  0.00    -0.350 OA
BRANCH  16  17
HETATM   17  C   UNL     1     -12.455   5.199 -35.665  1.00  0.00     0.179 C 
BRANCH  17  18
HETATM   18  C   UNL     1     -13.551   5.955 -34.901  1.00  0.00     0.002 C 
HETATM   19  C   UNL     1     -12.977   6.711 -33.701  1.00  0.00     0.011 C 
HETATM   20  C   UNL     1     -14.282   6.917 -35.835  1.00  0.00     0.011 C 
ENDBRANCH  17  18
ENDBRANCH  16  17
ENDBRANCH  13  16
ENDBRANCH   7   9
ENDBRANCH   6   7
BRANCH   1  21
HETATM   21  C   UNL     1      -5.667   0.560 -32.648  1.00  0.00    -0.028 A 
HETATM   22  C   UNL     1      -4.694   0.116 -31.730  1.00  0.00     0.012 A 
HETATM   23  C   UNL     1      -4.038  -1.098 -31.920  1.00  0.00     0.040 A 
HETATM   24  C   UNL     1      -4.358  -1.875 -33.023  1.00  0.00     0.099 A 
HETATM   25  C   UNL     1      -5.340  -1.483 -33.937  1.00  0.00     0.102 A 
HETATM   26  C   UNL     1      -5.988  -0.260 -33.748  1.00  0.00     0.049 A 
BRANCH  24  27
HETATM   27  O   UNL     1      -3.685  -3.053 -33.195  1.00  0.00    -0.358 OA
HETATM   28  H   UNL     1      -3.025  -2.874 -33.894  1.00  0.00     0.218 HD
ENDBRANCH  24  27
BRANCH  25  29
HETATM   29  O   UNL     1      -5.549  -2.356 -34.972  1.00  0.00    -0.349 OA
BRANCH  29  30
HETATM   30  C   UNL     1      -6.750  -3.125 -34.934  1.00  0.00     0.171 C 
HETATM   31  C   UNL     1      -6.365  -4.593 -34.968  1.00  0.00     0.034 C 
ENDBRANCH  29  30
ENDBRANCH  25  29
ENDBRANCH   1  21
BRANCH   5  32
HETATM   32  O   UNL     1      -7.881   3.019 -29.349  1.00  0.00    -0.355 OA
HETATM   33  H   UNL     1      -8.353   3.856 -29.533  1.00  0.00     0.218 HD
ENDBRANCH   5  32
BRANCH   2  34
HETATM   34  C   UNL     1      -4.379   3.525 -32.763  1.00  0.00     0.129 C 
BRANCH  34  35
HETATM   35  C   UNL     1      -2.922   3.174 -32.463  1.00  0.00     0.048 C 
BRANCH  35  36
HETATM   36  C   UNL     1      -2.240   4.241 -31.615  1.00  0.00     0.236 C 
BRANCH  36  37
HETATM   37  N   UNL     1      -2.480   5.608 -32.223  1.00  0.00    -0.067 N 
HETATM   38  H   UNL     1      -3.404   5.604 -32.673  1.00  0.00     0.280 HD
HETATM   39  C   UNL     1      -2.483   6.724 -31.172  1.00  0.00     0.261 C 
HETATM   40  C   UNL     1      -2.732   8.070 -31.862  1.00  0.00     0.195 C 
HETATM   41  O   UNL     1      -1.751   8.322 -32.874  1.00  0.00    -0.388 OA
HETATM   42  C   UNL     1      -1.765   7.319 -33.894  1.00  0.00     0.195 C 
HETATM   43  C   UNL     1      -1.458   5.935 -33.310  1.00  0.00     0.261 C 
ENDBRANCH  36  37
ENDBRANCH  35  36
ENDBRANCH  34  35
ENDBRANCH   2  34
TORSDOF 14
ENDMDL
MODEL 9
REMARK VINA RESULT:      -8.3      2.352      6.999
REMARK  14 active torsions:
REMARK  status: ('A' for Active; 'I' for Inactive)
REMARK    1  A    between atoms: C_2  and  O_3 
REMARK    2  A    between atoms: O_3  and  C_4 
REMARK    3  A    between atoms: C_5  and  O_6 
REMARK    4  A    between atoms: C_9  and  C_10 
REMARK    5  A    between atoms: N_11  and  C_12 
REMARK    6  A    between atoms: C_12  and  C_13 
REMARK    7  A    between atoms: C_13  and  C_14 
REMARK    8  A    between atoms: C_14  and  N_15 
REMARK    9  A    between atoms: C_24  and  O_25 
REMARK   10  A    between atoms: C_26  and  C_27 
REMARK   11  A    between atoms: C_27  and  C_28 
REMARK   12  A    between atoms: C_32  and  O_33 
REMARK   13  A    between atoms: O_33  and  C_34 
REMARK   14  A    between atoms: C_34  and  C_35 
ROOT
HETATM    1  C   UNL     1      -6.054   4.012 -30.835  1.00  0.00     0.161 C 
HETATM    2  N   UNL     1      -5.220   5.209 -30.918  1.00  0.00    -0.333 N 
HETATM    3  C   UNL     1      -3.906   4.880 -31.186  1.00  0.00     0.278 C 
HETATM    4  O   UNL     1      -2.957   5.630 -31.338  1.00  0.00    -0.265 OA
HETATM    5  C   UNL     1      -3.811   3.404 -31.224  1.00  0.00     0.146 C 
HETATM    6  C   UNL     1      -5.026   2.927 -30.937  1.00  0.00     0.059 C 
ENDROOT
BRANCH   6   7
HETATM    7  C   UNL     1      -5.437   1.534 -30.666  1.00  0.00     0.193 C 
HETATM    8  O   UNL     1      -5.884   1.244 -29.560  1.00  0.00    -0.287 OA
BRANCH   7   9
HETATM    9  C   UNL     1      -5.209   0.459 -31.669  1.00  0.00     0.015 A 
HETATM   10  C   UNL     1      -4.323  -0.577 -31.344  1.00  0.00     0.025 A 
HETATM   11  C   UNL     1      -4.020  -1.584 -32.277  1.00  0.00    -0.028 A 
HETATM   12  C   UNL     1      -3.055  -2.679 -31.909  1.00  0.00     0.051 C 
HETATM   13  C   UNL     1      -4.616  -1.553 -33.550  1.00  0.00     0.074 A 
HETATM   14  C   UNL     1      -5.476  -0.504 -33.881  1.00  0.00     0.038 A 
HETATM   15  C   UNL     1      -5.760   0.504 -32.952  1.00  0.00     0.018 A 
BRANCH  13  16
HETATM   16  O   UNL     1      -4.271  -2.574 -34.397  1.00  0.00    -0.350 OA
BRANCH  16  17
HETATM   17  C   UNL     1      -5.214  -2.942 -35.405  1.00  0.00     0.179 C 
BRANCH  17  18
HETATM   18  C   UNL     1      -5.751  -4.348 -35.104  1.00  0.00     0.002 C 
HETATM   19  C   UNL     1      -4.781  -5.142 -34.227  1.00  0.00     0.011 C 
HETATM   20  C   UNL     1      -7.122  -4.260 -34.436  1.00  0.00     0.011 C 
ENDBRANCH  17  18
ENDBRANCH  16  17
ENDBRANCH  13  16
ENDBRANCH   7   9
ENDBRANCH   6   7
BRANCH   1  21
HETATM   21  C   UNL     1      -7.091   4.063 -31.948  1.00  0.00    -0.028 A 
HETATM   22  C   UNL     1      -7.100   5.104 -32.899  1.00  0.00     0.012 A 
HETATM   23  C   UNL     1      -8.108   5.184 -33.857  1.00  0.00     0.040 A 
HETATM   24  C   UNL     1      -9.103   4.220 -33.875  1.00  0.00     0.099 A 
HETATM   25  C   UNL     1      -9.109   3.154 -32.969  1.00  0.00     0.102 A 
HETATM   26  C   UNL     1      -8.103   3.084 -32.004  1.00  0.00     0.049 A 
BRANCH  24  27
HETATM   27  O   UNL     1     -10.090   4.333 -34.815  1.00  0.00    -0.358 OA
HETATM   28  H   UNL     1     -10.917   4.093 -34.352  1.00  0.00     0.218 HD
ENDBRANCH  24  27
BRANCH  25  29
HETATM   29  O   UNL     1     -10.153   2.280 -33.113  1.00  0.00    -0.349 OA
BRANCH  29  30
HETATM   30  C   UNL     1      -9.876   1.049 -33.781  1.00  0.00     0.171 C 
HETATM   31  C   UNL     1      -9.935  -0.064 -32.750  1.00  0.00     0.034 C 
ENDBRANCH  29  30
ENDBRANCH  25  29
ENDBRANCH   1  21
BRANCH   5  32
HETATM   32  O   UNL     1      -2.643   2.731 -31.416  1.00  0.00    -0.355 OA
HETATM   33  H   UNL     1      -2.205   3.138 -32.191  1.00  0.00     0.218 HD
ENDBRANCH   5  32
BRANCH   2  34
HETATM   34  C   UNL     1      -5.657   6.458 -30.315  1.00  0.00     0.129 C 
BRANCH  34  35
HETATM   35  C   UNL     1      -5.350   6.601 -28.825  1.00  0.00     0.048 C 
BRANCH  35  36
HETATM   36  C   UNL     1      -4.207   7.576 -28.568  1.00  0.00     0.236 C 
BRANCH  36  37
HETATM   37  N   UNL     1      -3.049   6.847 -27.919  1.00  0.00    -0.067 N 
HETATM   38  H   UNL     1      -3.110   5.853 -28.171  1.00  0.00     0.280 HD
HETATM   39  C   UNL     1      -1.688   7.363 -28.401  1.00  0.00     0.261 C 
HETATM   40  C   UNL     1      -0.571   6.578 -27.703  1.00  0.00     0.195 C 
HETATM   41  O   UNL     1      -0.682   6.678 -26.279  1.00  0.00    -0.388 OA
HETATM   42  C   UNL     1      -1.925   6.154 -25.801  1.00  0.00     0.195 C 
HETATM   43  C   UNL     1      -3.110   6.923 -26.395  1.00  0.00     0.261 C 
ENDBRANCH  36  37
ENDBRANCH  35  36
ENDBRANCH  34  35
ENDBRANCH   2  34
TORSDOF 14
ENDMDL
MODEL 10
REMARK VINA RESULT:      -8.2      2.033      3.159
REMARK  14 active torsions:
REMARK  status: ('A' for Active; 'I' for Inactive)
REMARK    1  A    between atoms: C_2  and  O_3 
REMARK    2  A    between atoms: O_3  and  C_4 
REMARK    3  A    between atoms: C_5  and  O_6 
REMARK    4  A    between atoms: C_9  and  C_10 
REMARK    5  A    between atoms: N_11  and  C_12 
REMARK    6  A    between atoms: C_12  and  C_13 
REMARK    7  A    between atoms: C_13  and  C_14 
REMARK    8  A    between atoms: C_14  and  N_15 
REMARK    9  A    between atoms: C_24  and  O_25 
REMARK   10  A    between atoms: C_26  and  C_27 
REMARK   11  A    between atoms: C_27  and  C_28 
REMARK   12  A    between atoms: C_32  and  O_33 
REMARK   13  A    between atoms: O_33  and  C_34 
REMARK   14  A    between atoms: C_34  and  C_35 
ROOT
HETATM    1  C   UNL     1      -8.316   4.304 -32.942  1.00  0.00     0.161 C 
HETATM    2  N   UNL     1      -9.319   5.286 -33.348  1.00  0.00    -0.333 N 
HETATM    3  C   UNL     1     -10.078   5.694 -32.269  1.00  0.00     0.278 C 
HETATM    4  O   UNL     1     -10.982   6.511 -32.250  1.00  0.00    -0.265 OA
HETATM    5  C   UNL     1      -9.633   4.923 -31.089  1.00  0.00     0.146 C 
HETATM    6  C   UNL     1      -8.689   4.075 -31.509  1.00  0.00     0.059 C 
ENDROOT
BRANCH   6   7
HETATM    7  C   UNL     1      -8.046   2.963 -30.779  1.00  0.00     0.193 C 
HETATM    8  O   UNL     1      -7.867   3.064 -29.569  1.00  0.00    -0.287 OA
BRANCH   7   9
HETATM    9  C   UNL     1      -7.508   1.780 -31.504  1.00  0.00     0.015 A 
HETATM   10  C   UNL     1      -6.119   1.664 -31.649  1.00  0.00     0.025 A 
HETATM   11  C   UNL     1      -5.559   0.601 -32.380  1.00  0.00    -0.028 A 
HETATM   12  C   UNL     1      -4.065   0.505 -32.533  1.00  0.00     0.051 C 
HETATM   13  C   UNL     1      -6.402  -0.359 -32.967  1.00  0.00     0.074 A 
HETATM   14  C   UNL     1      -7.786  -0.224 -32.845  1.00  0.00     0.038 A 
HETATM   15  C   UNL     1      -8.337   0.846 -32.131  1.00  0.00     0.018 A 
BRANCH  13  16
HETATM   16  O   UNL     1      -5.775  -1.363 -33.657  1.00  0.00    -0.350 OA
BRANCH  16  17
HETATM   17  C   UNL     1      -6.599  -2.280 -34.379  1.00  0.00     0.179 C 
BRANCH  17  18
HETATM   18  C   UNL     1      -5.707  -3.298 -35.103  1.00  0.00     0.002 C 
HETATM   19  C   UNL     1      -4.416  -3.564 -34.326  1.00  0.00     0.011 C 
HETATM   20  C   UNL     1      -6.468  -4.602 -35.332  1.00  0.00     0.011 C 
ENDBRANCH  17  18
ENDBRANCH  16  17
ENDBRANCH  13  16
ENDBRANCH   7   9
ENDBRANCH   6   7
BRANCH   1  21
HETATM   21  C   UNL     1      -6.933   4.890 -33.192  1.00  0.00    -0.028 A 
HETATM   22  C   UNL     1      -6.064   4.338 -34.155  1.00  0.00     0.012 A 
HETATM   23  C   UNL     1      -4.770   4.830 -34.310  1.00  0.00     0.040 A 
HETATM   24  C   UNL     1      -4.344   5.880 -33.511  1.00  0.00     0.099 A 
HETATM   25  C   UNL     1      -5.189   6.474 -32.569  1.00  0.00     0.102 A 
HETATM   26  C   UNL     1      -6.482   5.971 -32.409  1.00  0.00     0.049 A 
BRANCH  24  27
HETATM   27  O   UNL     1      -3.063   6.331 -33.672  1.00  0.00    -0.358 OA
HETATM   28  H   UNL     1      -3.085   7.272 -33.409  1.00  0.00     0.218 HD
ENDBRANCH  24  27
BRANCH  25  29
HETATM   29  O   UNL     1      -4.629   7.503 -31.859  1.00  0.00    -0.349 OA
BRANCH  29  30
HETATM   30  C   UNL     1      -4.706   7.421 -30.436  1.00  0.00     0.171 C 
HETATM   31  C   UNL     1      -3.616   6.476 -29.964  1.00  0.00     0.034 C 
ENDBRANCH  29  30
ENDBRANCH  25  29
ENDBRANCH   1  21
BRANCH   5  32
HETATM   32  O   UNL     1     -10.204   5.036 -29.858  1.00  0.00    -0.355 OA
HETATM   33  H   UNL     1      -9.849   5.853 -29.454  1.00  0.00     0.218 HD
ENDBRANCH   5  32
BRANCH   2  34
HETATM   34  C   UNL     1      -9.728   5.393 -34.740  1.00  0.00     0.129 C 
BRANCH  34  35
HETATM   35  C   UNL     1     -10.667   4.290 -35.226  1.00  0.00     0.048 C 
BRANCH  35  36
HETATM   36  C   UNL     1     -12.105   4.778 -35.353  1.00  0.00     0.236 C 
BRANCH  36  37
HETATM   37  N   UNL     1     -13.048   3.751 -34.760  1.00  0.00    -0.067 N 
HETATM   38  H   UNL     1     -13.996   3.946 -35.103  1.00  0.00     0.280 HD
HETATM   39  C   UNL     1     -12.692   2.319 -35.177  1.00  0.00     0.261 C 
HETATM   40  C   UNL     1     -13.688   1.342 -34.542  1.00  0.00     0.195 C 
HETATM   41  O   UNL     1     -13.700   1.472 -33.116  1.00  0.00    -0.388 OA
HETATM   42  C   UNL     1     -14.081   2.788 -32.702  1.00  0.00     0.195 C 
HETATM   43  C   UNL     1     -13.100   3.837 -33.236  1.00  0.00     0.261 C 
ENDBRANCH  36  37
ENDBRANCH  35  36
ENDBRANCH  34  35
ENDBRANCH   2  34
TORSDOF 14
ENDMDL
