MODEL 1
REMARK VINA RESULT:      -8.5      0.000      0.000
REMARK  6 active torsions:
REMARK  status: ('A' for Active; 'I' for Inactive)
REMARK    1  A    between atoms: C_2  and  O_3 
REMARK    2  A    between atoms: O_3  and  C_4 
REMARK    3  A    between atoms: C_7  and  C_8 
REMARK       I    between atoms: N_11  and  C_12 
REMARK       I    between atoms: C_12  and  N_13 
REMARK    4  A    between atoms: N_13  and  C_14 
REMARK    5  A    between atoms: C_14  and  C_15 
REMARK    6  A    between atoms: C_15  and  C_16 
ROOT
HETATM    1  C   UNL     1      -5.019   1.801 -32.399  1.00  0.00    -0.049 C 
HETATM    2  C   UNL     1      -5.879   3.038 -32.304  1.00  0.00     0.059 C 
HETATM    3  C   UNL     1      -5.265   4.084 -31.371  1.00  0.00     0.132 C 
HETATM    4  N   UNL     1      -3.845   4.273 -31.643  1.00  0.00    -0.331 N 
HETATM    5  C   UNL     1      -3.360   5.564 -31.764  1.00  0.00     0.318 C 
HETATM    6  N   UNL     1      -1.998   5.667 -31.900  1.00  0.00    -0.338 N 
HETATM    7  O   UNL     1      -4.090   6.552 -31.784  1.00  0.00    -0.247 OA
HETATM    8  C   UNL     1      -3.008   3.081 -31.551  1.00  0.00     0.155 C 
HETATM    9  C   UNL     1      -3.728   1.846 -32.013  1.00  0.00     0.001 C 
HETATM   10  H   UNL     1      -1.473   5.013 -31.329  1.00  0.00     0.164 HD
ENDROOT
BRANCH   6  11
HETATM   11  C   UNL     1      -1.346   6.974 -31.952  1.00  0.00     0.087 C 
HETATM   12  C   UNL     1      -1.450   7.551 -33.363  1.00  0.00     0.032 C 
BRANCH  11  13
HETATM   13  C   UNL     1       0.109   6.890 -31.447  1.00  0.00     0.085 C 
BRANCH  13  14
HETATM   14  C   UNL     1       0.241   6.652 -29.970  1.00  0.00     0.058 A 
HETATM   15  N   UNL     1      -0.050   5.460 -29.427  1.00  0.00    -0.179 NA
HETATM   16  N   UNL     1       0.182   5.637 -28.114  1.00  0.00    -0.282 N 
HETATM   17  H   UNL     1       0.020   4.856 -27.487  1.00  0.00     0.189 HD
HETATM   18  C   UNL     1       0.621   6.892 -27.798  1.00  0.00     0.026 A 
HETATM   19  C   UNL     1       0.940   7.304 -26.414  1.00  0.00     0.070 C 
HETATM   20  C   UNL     1       0.663   7.579 -28.989  1.00  0.00     0.055 A 
ENDBRANCH  13  14
ENDBRANCH  11  13
ENDBRANCH   6  11
BRANCH   1  21
HETATM   21  C   UNL     1      -5.614   0.552 -32.920  1.00  0.00    -0.030 A 
HETATM   22  C   UNL     1      -6.996   0.416 -33.102  1.00  0.00     0.014 A 
HETATM   23  C   UNL     1      -7.546  -0.762 -33.630  1.00  0.00     0.037 A 
HETATM   24  C   UNL     1      -6.719  -1.826 -33.984  1.00  0.00     0.068 A 
HETATM   25  C   UNL     1      -5.342  -1.704 -33.799  1.00  0.00     0.037 A 
HETATM   26  C   UNL     1      -4.794  -0.527 -33.280  1.00  0.00     0.014 A 
BRANCH  24  27
HETATM   27  O   UNL     1      -7.121  -3.023 -34.507  1.00  0.00    -0.352 OA
BRANCH  27  28
HETATM   28  C   UNL     1      -6.157  -4.074 -34.539  1.00  0.00     0.171 C 
HETATM   29  C   UNL     1      -6.364  -4.857 -35.823  1.00  0.00     0.034 C 
ENDBRANCH  27  28
ENDBRANCH  24  27
ENDBRANCH   1  21
TORSDOF 6
ENDMDL
MODEL 2
REMARK VINA RESULT:      -8.0      2.869     10.000
REMARK  6 active torsions:
REMARK  status: ('A' for Active; 'I' for Inactive)
REMARK    1  A    between atoms: C_2  and  O_3 
REMARK    2  A    between atoms: O_3  and  C_4 
REMARK    3  A    between atoms: C_7  and  C_8 
REMARK       I    between atoms: N_11  and  C_12 
REMARK       I    between atoms: C_12  and  N_13 
REMARK    4  A    between atoms: N_13  and  C_14 
REMARK    5  A    between atoms: C_14  and  C_15 
REMARK    6  A    between atoms: C_15  and  C_16 
ROOT
HETATM    1  C   UNL     1      -2.693   5.183 -31.716  1.00  0.00    -0.049 C 
HETATM    2  C   UNL     1      -3.760   5.955 -32.455  1.00  0.00     0.059 C 
HETATM    3  C   UNL     1      -4.375   5.129 -33.588  1.00  0.00     0.132 C 
HETATM    4  N   UNL     1      -4.707   3.781 -33.144  1.00  0.00    -0.331 N 
HETATM    5  C   UNL     1      -5.958   3.273 -33.451  1.00  0.00     0.318 C 
HETATM    6  N   UNL     1      -6.156   1.960 -33.107  1.00  0.00    -0.338 N 
HETATM    7  O   UNL     1      -6.847   3.950 -33.964  1.00  0.00    -0.247 OA
HETATM    8  C   UNL     1      -3.608   2.994 -32.595  1.00  0.00     0.155 C 
HETATM    9  C   UNL     1      -2.630   3.842 -31.832  1.00  0.00     0.001 C 
HETATM   10  H   UNL     1      -5.350   1.363 -33.261  1.00  0.00     0.164 HD
ENDROOT
BRANCH   6  11
HETATM   11  C   UNL     1      -7.401   1.274 -33.450  1.00  0.00     0.087 C 
HETATM   12  C   UNL     1      -7.890   0.455 -32.256  1.00  0.00     0.032 C 
BRANCH  11  13
HETATM   13  C   UNL     1      -7.235   0.426 -34.728  1.00  0.00     0.085 C 
BRANCH  13  14
HETATM   14  C   UNL     1      -6.410  -0.815 -34.548  1.00  0.00     0.058 A 
HETATM   15  N   UNL     1      -5.181  -0.764 -34.011  1.00  0.00    -0.179 NA
HETATM   16  N   UNL     1      -4.770  -2.044 -34.020  1.00  0.00    -0.282 N 
HETATM   17  H   UNL     1      -3.846  -2.255 -33.659  1.00  0.00     0.189 HD
HETATM   18  C   UNL     1      -5.692  -2.913 -34.532  1.00  0.00     0.026 A 
HETATM   19  C   UNL     1      -5.450  -4.369 -34.634  1.00  0.00     0.070 C 
HETATM   20  C   UNL     1      -6.770  -2.139 -34.891  1.00  0.00     0.055 A 
ENDBRANCH  13  14
ENDBRANCH  11  13
ENDBRANCH   6  11
BRANCH   1  21
HETATM   21  C   UNL     1      -1.731   5.921 -30.870  1.00  0.00    -0.030 A 
HETATM   22  C   UNL     1      -2.084   7.109 -30.219  1.00  0.00     0.014 A 
HETATM   23  C   UNL     1      -1.172   7.781 -29.391  1.00  0.00     0.037 A 
HETATM   24  C   UNL     1       0.111   7.274 -29.203  1.00  0.00     0.068 A 
HETATM   25  C   UNL     1       0.476   6.096 -29.853  1.00  0.00     0.037 A 
HETATM   26  C   UNL     1      -0.435   5.422 -30.672  1.00  0.00     0.014 A 
BRANCH  24  27
HETATM   27  O   UNL     1       1.092   7.825 -28.426  1.00  0.00    -0.352 OA
BRANCH  27  28
HETATM   28  C   UNL     1       1.178   7.377 -27.075  1.00  0.00     0.171 C 
HETATM   29  C   UNL     1       1.955   8.418 -26.288  1.00  0.00     0.034 C 
ENDBRANCH  27  28
ENDBRANCH  24  27
ENDBRANCH   1  21
TORSDOF 6
ENDMDL
MODEL 3
REMARK VINA RESULT:      -7.6      2.971      9.751
REMARK  6 active torsions:
REMARK  status: ('A' for Active; 'I' for Inactive)
REMARK    1  A    between atoms: C_2  and  O_3 
REMARK    2  A    between atoms: O_3  and  C_4 
REMARK    3  A    between atoms: C_7  and  C_8 
REMARK       I    between atoms: N_11  and  C_12 
REMARK       I    between atoms: C_12  and  N_13 
REMARK    4  A    between atoms: N_13  and  C_14 
REMARK    5  A    between atoms: C_14  and  C_15 
REMARK    6  A    between atoms: C_15  and  C_16 
ROOT
HETATM    1  C   UNL     1      -2.911   4.976 -32.039  1.00  0.00    -0.049 C 
HETATM    2  C   UNL     1      -3.747   5.738 -33.040  1.00  0.00     0.059 C 
HETATM    3  C   UNL     1      -4.482   4.796 -33.997  1.00  0.00     0.132 C 
HETATM    4  N   UNL     1      -5.126   3.703 -33.278  1.00  0.00    -0.331 N 
HETATM    5  C   UNL     1      -6.445   3.402 -33.574  1.00  0.00     0.318 C 
HETATM    6  N   UNL     1      -6.945   2.289 -32.947  1.00  0.00    -0.338 N 
HETATM    7  O   UNL     1      -7.137   4.095 -34.316  1.00  0.00    -0.247 OA
HETATM    8  C   UNL     1      -4.254   2.872 -32.454  1.00  0.00     0.155 C 
HETATM    9  C   UNL     1      -3.145   3.666 -31.825  1.00  0.00     0.001 C 
HETATM   10  H   UNL     1      -6.287   1.521 -32.875  1.00  0.00     0.164 HD
ENDROOT
BRANCH   6  11
HETATM   11  C   UNL     1      -8.297   1.811 -33.234  1.00  0.00     0.087 C 
HETATM   12  C   UNL     1      -9.321   2.668 -32.494  1.00  0.00     0.032 C 
BRANCH  11  13
HETATM   13  C   UNL     1      -8.433   0.307 -32.914  1.00  0.00     0.085 C 
BRANCH  13  14
HETATM   14  C   UNL     1      -7.191  -0.497 -33.167  1.00  0.00     0.058 A 
HETATM   15  N   UNL     1      -6.139  -0.437 -32.335  1.00  0.00    -0.179 NA
HETATM   16  N   UNL     1      -5.242  -1.273 -32.886  1.00  0.00    -0.282 N 
HETATM   17  H   UNL     1      -4.345  -1.388 -32.426  1.00  0.00     0.189 HD
HETATM   18  C   UNL     1      -5.683  -1.874 -34.031  1.00  0.00     0.026 A 
HETATM   19  C   UNL     1      -4.860  -2.834 -34.800  1.00  0.00     0.070 C 
HETATM   20  C   UNL     1      -6.949  -1.383 -34.243  1.00  0.00     0.055 A 
ENDBRANCH  13  14
ENDBRANCH  11  13
ENDBRANCH   6  11
BRANCH   1  21
HETATM   21  C   UNL     1      -1.845   5.691 -31.305  1.00  0.00    -0.030 A 
HETATM   22  C   UNL     1      -0.519   5.698 -31.756  1.00  0.00     0.014 A 
HETATM   23  C   UNL     1       0.477   6.408 -31.069  1.00  0.00     0.037 A 
HETATM   24  C   UNL     1       0.161   7.122 -29.915  1.00  0.00     0.068 A 
HETATM   25  C   UNL     1      -1.155   7.114 -29.452  1.00  0.00     0.037 A 
HETATM   26  C   UNL     1      -2.148   6.413 -30.142  1.00  0.00     0.014 A 
BRANCH  24  27
HETATM   27  O   UNL     1       1.030   7.853 -29.154  1.00  0.00    -0.352 OA
BRANCH  27  28
HETATM   28  C   UNL     1       0.885   7.763 -27.738  1.00  0.00     0.171 C 
HETATM   29  C   UNL     1       1.806   8.793 -27.110  1.00  0.00     0.034 C 
ENDBRANCH  27  28
ENDBRANCH  24  27
ENDBRANCH   1  21
TORSDOF 6
ENDMDL
MODEL 4
REMARK VINA RESULT:      -7.5      2.153      2.824
REMARK  6 active torsions:
REMARK  status: ('A' for Active; 'I' for Inactive)
REMARK    1  A    between atoms: C_2  and  O_3 
REMARK    2  A    between atoms: O_3  and  C_4 
REMARK    3  A    between atoms: C_7  and  C_8 
REMARK       I    between atoms: N_11  and  C_12 
REMARK       I    between atoms: C_12  and  N_13 
REMARK    4  A    between atoms: N_13  and  C_14 
REMARK    5  A    between atoms: C_14  and  C_15 
REMARK    6  A    between atoms: C_15  and  C_16 
ROOT
HETATM    1  C   UNL     1      -5.450   2.514 -32.166  1.00  0.00    -0.049 C 
HETATM    2  C   UNL     1      -6.320   2.834 -30.974  1.00  0.00     0.059 C 
HETATM    3  C   UNL     1      -5.638   3.825 -30.026  1.00  0.00     0.132 C 
HETATM    4  N   UNL     1      -5.059   4.947 -30.756  1.00  0.00    -0.331 N 
HETATM    5  C   UNL     1      -5.305   6.230 -30.299  1.00  0.00     0.318 C 
HETATM    6  N   UNL     1      -4.632   7.225 -30.962  1.00  0.00    -0.338 N 
HETATM    7  O   UNL     1      -6.095   6.476 -29.390  1.00  0.00    -0.247 OA
HETATM    8  C   UNL     1      -4.083   4.609 -31.787  1.00  0.00     0.155 C 
HETATM    9  C   UNL     1      -4.420   3.322 -32.485  1.00  0.00     0.001 C 
HETATM   10  H   UNL     1      -3.679   6.986 -31.215  1.00  0.00     0.164 HD
ENDROOT
BRANCH   6  11
HETATM   11  C   UNL     1      -4.735   8.618 -30.528  1.00  0.00     0.087 C 
HETATM   12  C   UNL     1      -5.933   9.285 -31.202  1.00  0.00     0.032 C 
BRANCH  11  13
HETATM   13  C   UNL     1      -3.413   9.375 -30.774  1.00  0.00     0.085 C 
BRANCH  13  14
HETATM   14  C   UNL     1      -2.278   8.510 -31.239  1.00  0.00     0.058 A 
HETATM   15  N   UNL     1      -2.017   8.344 -32.545  1.00  0.00    -0.179 NA
HETATM   16  N   UNL     1      -0.957   7.518 -32.562  1.00  0.00    -0.282 N 
HETATM   17  H   UNL     1      -0.577   7.239 -33.460  1.00  0.00     0.189 HD
HETATM   18  C   UNL     1      -0.522   7.158 -31.317  1.00  0.00     0.026 A 
HETATM   19  C   UNL     1       0.633   6.258 -31.101  1.00  0.00     0.070 C 
HETATM   20  C   UNL     1      -1.369   7.785 -30.434  1.00  0.00     0.055 A 
ENDBRANCH  13  14
ENDBRANCH  11  13
ENDBRANCH   6  11
BRANCH   1  21
HETATM   21  C   UNL     1      -5.752   1.310 -32.970  1.00  0.00    -0.030 A 
HETATM   22  C   UNL     1      -6.632   1.353 -34.058  1.00  0.00     0.014 A 
HETATM   23  C   UNL     1      -6.884   0.212 -34.834  1.00  0.00     0.037 A 
HETATM   24  C   UNL     1      -6.256  -0.995 -34.531  1.00  0.00     0.068 A 
HETATM   25  C   UNL     1      -5.384  -1.051 -33.445  1.00  0.00     0.037 A 
HETATM   26  C   UNL     1      -5.128   0.089 -32.677  1.00  0.00     0.014 A 
BRANCH  24  27
HETATM   27  O   UNL     1      -6.410  -2.176 -35.202  1.00  0.00    -0.352 OA
BRANCH  27  28
HETATM   28  C   UNL     1      -5.659  -3.292 -34.730  1.00  0.00     0.171 C 
HETATM   29  C   UNL     1      -6.235  -4.544 -35.367  1.00  0.00     0.034 C 
ENDBRANCH  27  28
ENDBRANCH  24  27
ENDBRANCH   1  21
TORSDOF 6
ENDMDL
MODEL 5
REMARK VINA RESULT:      -7.3      3.178      9.864
REMARK  6 active torsions:
REMARK  status: ('A' for Active; 'I' for Inactive)
REMARK    1  A    between atoms: C_2  and  O_3 
REMARK    2  A    between atoms: O_3  and  C_4 
REMARK    3  A    between atoms: C_7  and  C_8 
REMARK       I    between atoms: N_11  and  C_12 
REMARK       I    between atoms: C_12  and  N_13 
REMARK    4  A    between atoms: N_13  and  C_14 
REMARK    5  A    between atoms: C_14  and  C_15 
REMARK    6  A    between atoms: C_15  and  C_16 
ROOT
HETATM    1  C   UNL     1      -3.424   5.373 -31.843  1.00  0.00    -0.049 C 
HETATM    2  C   UNL     1      -4.103   6.114 -32.969  1.00  0.00     0.059 C 
HETATM    3  C   UNL     1      -4.922   5.172 -33.855  1.00  0.00     0.132 C 
HETATM    4  N   UNL     1      -5.741   4.268 -33.056  1.00  0.00    -0.331 N 
HETATM    5  C   UNL     1      -7.075   4.112 -33.392  1.00  0.00     0.318 C 
HETATM    6  N   UNL     1      -7.751   3.158 -32.674  1.00  0.00    -0.338 N 
HETATM    7  O   UNL     1      -7.633   4.798 -34.247  1.00  0.00    -0.247 OA
HETATM    8  C   UNL     1      -5.028   3.432 -32.095  1.00  0.00     0.155 C 
HETATM    9  C   UNL     1      -3.846   4.141 -31.497  1.00  0.00     0.001 C 
HETATM   10  H   UNL     1      -7.210   2.323 -32.479  1.00  0.00     0.164 HD
ENDROOT
BRANCH   6  11
HETATM   11  C   UNL     1      -9.143   2.833 -32.983  1.00  0.00     0.087 C 
HETATM   12  C   UNL     1     -10.074   3.550 -32.007  1.00  0.00     0.032 C 
BRANCH  11  13
HETATM   13  C   UNL     1      -9.364   1.306 -33.008  1.00  0.00     0.085 C 
BRANCH  13  14
HETATM   14  C   UNL     1      -8.347   0.544 -33.807  1.00  0.00     0.058 A 
HETATM   15  N   UNL     1      -7.865   1.024 -34.963  1.00  0.00    -0.179 NA
HETATM   16  N   UNL     1      -7.002   0.078 -35.373  1.00  0.00    -0.282 N 
HETATM   17  H   UNL     1      -6.510   0.222 -36.249  1.00  0.00     0.189 HD
HETATM   18  C   UNL     1      -6.905  -0.984 -34.519  1.00  0.00     0.026 A 
HETATM   19  C   UNL     1      -6.013  -2.137 -34.772  1.00  0.00     0.070 C 
HETATM   20  C   UNL     1      -7.776  -0.711 -33.490  1.00  0.00     0.055 A 
ENDBRANCH  13  14
ENDBRANCH  11  13
ENDBRANCH   6  11
BRANCH   1  21
HETATM   21  C   UNL     1      -2.301   6.021 -31.133  1.00  0.00    -0.030 A 
HETATM   22  C   UNL     1      -2.402   7.324 -30.630  1.00  0.00     0.014 A 
HETATM   23  C   UNL     1      -1.341   7.915 -29.928  1.00  0.00     0.037 A 
HETATM   24  C   UNL     1      -0.158   7.210 -29.720  1.00  0.00     0.068 A 
HETATM   25  C   UNL     1      -0.043   5.915 -30.224  1.00  0.00     0.037 A 
HETATM   26  C   UNL     1      -1.104   5.324 -30.916  1.00  0.00     0.014 A 
BRANCH  24  27
HETATM   27  O   UNL     1       0.948   7.664 -29.056  1.00  0.00    -0.352 OA
BRANCH  27  28
HETATM   28  C   UNL     1       0.730   8.322 -27.809  1.00  0.00     0.171 C 
HETATM   29  C   UNL     1       1.537   7.591 -26.750  1.00  0.00     0.034 C 
ENDBRANCH  27  28
ENDBRANCH  24  27
ENDBRANCH   1  21
TORSDOF 6
ENDMDL
MODEL 6
REMARK VINA RESULT:      -7.3      3.536      4.116
REMARK  6 active torsions:
REMARK  status: ('A' for Active; 'I' for Inactive)
REMARK    1  A    between atoms: C_2  and  O_3 
REMARK    2  A    between atoms: O_3  and  C_4 
REMARK    3  A    between atoms: C_7  and  C_8 
REMARK       I    between atoms: N_11  and  C_12 
REMARK       I    between atoms: C_12  and  N_13 
REMARK    4  A    between atoms: N_13  and  C_14 
REMARK    5  A    between atoms: C_14  and  C_15 
REMARK    6  A    between atoms: C_15  and  C_16 
ROOT
HETATM    1  C   UNL     1      -6.896   1.307 -31.854  1.00  0.00    -0.049 C 
HETATM    2  C   UNL     1      -8.300   1.844 -31.993  1.00  0.00     0.059 C 
HETATM    3  C   UNL     1      -8.677   2.755 -30.823  1.00  0.00     0.132 C 
HETATM    4  N   UNL     1      -7.617   3.714 -30.532  1.00  0.00    -0.331 N 
HETATM    5  C   UNL     1      -7.957   5.046 -30.367  1.00  0.00     0.318 C 
HETATM    6  N   UNL     1      -6.929   5.867 -29.978  1.00  0.00    -0.338 N 
HETATM    7  O   UNL     1      -9.087   5.478 -30.582  1.00  0.00    -0.247 OA
HETATM    8  C   UNL     1      -6.306   3.151 -30.225  1.00  0.00     0.155 C 
HETATM    9  C   UNL     1      -6.027   1.903 -31.013  1.00  0.00     0.001 C 
HETATM   10  H   UNL     1      -6.296   5.451 -29.303  1.00  0.00     0.164 HD
ENDROOT
BRANCH   6  11
HETATM   11  C   UNL     1      -7.168   7.280 -29.686  1.00  0.00     0.087 C 
HETATM   12  C   UNL     1      -6.264   8.151 -30.555  1.00  0.00     0.032 C 
BRANCH  11  13
HETATM   13  C   UNL     1      -7.007   7.570 -28.179  1.00  0.00     0.085 C 
BRANCH  13  14
HETATM   14  C   UNL     1      -5.778   6.972 -27.558  1.00  0.00     0.058 A 
HETATM   15  N   UNL     1      -5.717   5.668 -27.247  1.00  0.00    -0.179 NA
HETATM   16  N   UNL     1      -4.489   5.517 -26.721  1.00  0.00    -0.282 N 
HETATM   17  H   UNL     1      -4.213   4.595 -26.400  1.00  0.00     0.189 HD
HETATM   18  C   UNL     1      -3.758   6.671 -26.693  1.00  0.00     0.026 A 
HETATM   19  C   UNL     1      -2.379   6.733 -26.159  1.00  0.00     0.070 C 
HETATM   20  C   UNL     1      -4.575   7.639 -27.227  1.00  0.00     0.055 A 
ENDBRANCH  13  14
ENDBRANCH  11  13
ENDBRANCH   6  11
BRANCH   1  21
HETATM   21  C   UNL     1      -6.496   0.128 -32.652  1.00  0.00    -0.030 A 
HETATM   22  C   UNL     1      -7.380  -0.489 -33.545  1.00  0.00     0.014 A 
HETATM   23  C   UNL     1      -6.978  -1.586 -34.322  1.00  0.00     0.037 A 
HETATM   24  C   UNL     1      -5.682  -2.084 -34.216  1.00  0.00     0.068 A 
HETATM   25  C   UNL     1      -4.796  -1.483 -33.323  1.00  0.00     0.037 A 
HETATM   26  C   UNL     1      -5.195  -0.385 -32.555  1.00  0.00     0.014 A 
BRANCH  24  27
HETATM   27  O   UNL     1      -5.163  -3.141 -34.911  1.00  0.00    -0.352 OA
BRANCH  27  28
HETATM   28  C   UNL     1      -4.086  -3.851 -34.303  1.00  0.00     0.171 C 
HETATM   29  C   UNL     1      -4.526  -5.291 -34.112  1.00  0.00     0.034 C 
ENDBRANCH  27  28
ENDBRANCH  24  27
ENDBRANCH   1  21
TORSDOF 6
ENDMDL
MODEL 7
REMARK VINA RESULT:      -7.2      2.229      3.299
REMARK  6 active torsions:
REMARK  status: ('A' for Active; 'I' for Inactive)
REMARK    1  A    between atoms: C_2  and  O_3 
REMARK    2  A    between atoms: O_3  and  C_4 
REMARK    3  A    between atoms: C_7  and  C_8 
REMARK       I    between atoms: N_11  and  C_12 
REMARK       I    between atoms: C_12  and  N_13 
REMARK    4  A    between atoms: N_13  and  C_14 
REMARK    5  A    between atoms: C_14  and  C_15 
REMARK    6  A    between atoms: C_15  and  C_16 
ROOT
HETATM    1  C   UNL     1      -3.764   3.336 -32.229  1.00  0.00    -0.049 C 
HETATM    2  C   UNL     1      -2.575   3.720 -33.077  1.00  0.00     0.059 C 
HETATM    3  C   UNL     1      -2.236   5.206 -32.937  1.00  0.00     0.132 C 
HETATM    4  N   UNL     1      -2.224   5.619 -31.538  1.00  0.00    -0.331 N 
HETATM    5  C   UNL     1      -1.152   6.364 -31.077  1.00  0.00     0.318 C 
HETATM    6  N   UNL     1      -1.267   6.818 -29.788  1.00  0.00    -0.338 N 
HETATM    7  O   UNL     1      -0.149   6.581 -31.754  1.00  0.00    -0.247 OA
HETATM    8  C   UNL     1      -3.457   5.395 -30.790  1.00  0.00     0.155 C 
HETATM    9  C   UNL     1      -4.160   4.139 -31.221  1.00  0.00     0.001 C 
HETATM   10  H   UNL     1      -2.201   7.123 -29.536  1.00  0.00     0.164 HD
ENDROOT
BRANCH   6  11
HETATM   11  C   UNL     1      -0.246   7.687 -29.204  1.00  0.00     0.087 C 
HETATM   12  C   UNL     1       0.658   6.877 -28.276  1.00  0.00     0.032 C 
BRANCH  11  13
HETATM   13  C   UNL     1      -0.886   8.904 -28.504  1.00  0.00     0.085 C 
BRANCH  13  14
HETATM   14  C   UNL     1      -1.722   8.562 -27.305  1.00  0.00     0.058 A 
HETATM   15  N   UNL     1      -2.806   7.778 -27.411  1.00  0.00    -0.179 NA
HETATM   16  N   UNL     1      -3.280   7.708 -26.155  1.00  0.00    -0.282 N 
HETATM   17  H   UNL     1      -4.118   7.163 -25.986  1.00  0.00     0.189 HD
HETATM   18  C   UNL     1      -2.535   8.408 -25.247  1.00  0.00     0.026 A 
HETATM   19  C   UNL     1      -2.873   8.466 -23.808  1.00  0.00     0.070 C 
HETATM   20  C   UNL     1      -1.515   8.981 -25.970  1.00  0.00     0.055 A 
ENDBRANCH  13  14
ENDBRANCH  11  13
ENDBRANCH   6  11
BRANCH   1  21
HETATM   21  C   UNL     1      -4.475   2.073 -32.521  1.00  0.00    -0.030 A 
HETATM   22  C   UNL     1      -3.909   0.826 -32.229  1.00  0.00     0.014 A 
HETATM   23  C   UNL     1      -4.609  -0.365 -32.480  1.00  0.00     0.037 A 
HETATM   24  C   UNL     1      -5.888  -0.325 -33.028  1.00  0.00     0.068 A 
HETATM   25  C   UNL     1      -6.458   0.912 -33.331  1.00  0.00     0.037 A 
HETATM   26  C   UNL     1      -5.763   2.098 -33.074  1.00  0.00     0.014 A 
BRANCH  24  27
HETATM   27  O   UNL     1      -6.676  -1.403 -33.320  1.00  0.00    -0.352 OA
BRANCH  27  28
HETATM   28  C   UNL     1      -6.765  -1.790 -34.690  1.00  0.00     0.171 C 
HETATM   29  C   UNL     1      -6.549  -3.291 -34.765  1.00  0.00     0.034 C 
ENDBRANCH  27  28
ENDBRANCH  24  27
ENDBRANCH   1  21
TORSDOF 6
ENDMDL
MODEL 8
REMARK VINA RESULT:      -7.2      3.082     10.384
REMARK  6 active torsions:
REMARK  status: ('A' for Active; 'I' for Inactive)
REMARK    1  A    between atoms: C_2  and  O_3 
REMARK    2  A    between atoms: O_3  and  C_4 
REMARK    3  A    between atoms: C_7  and  C_8 
REMARK       I    between atoms: N_11  and  C_12 
REMARK       I    between atoms: C_12  and  N_13 
REMARK    4  A    between atoms: N_13  and  C_14 
REMARK    5  A    between atoms: C_14  and  C_15 
REMARK    6  A    between atoms: C_15  and  C_16 
ROOT
HETATM    1  C   UNL     1      -2.613   5.488 -31.004  1.00  0.00    -0.049 C 
HETATM    2  C   UNL     1      -4.067   5.714 -30.663  1.00  0.00     0.059 C 
HETATM    3  C   UNL     1      -4.995   5.152 -31.743  1.00  0.00     0.132 C 
HETATM    4  N   UNL     1      -4.599   3.805 -32.137  1.00  0.00    -0.331 N 
HETATM    5  C   UNL     1      -5.573   2.824 -32.212  1.00  0.00     0.318 C 
HETATM    6  N   UNL     1      -5.149   1.615 -32.704  1.00  0.00    -0.338 N 
HETATM    7  O   UNL     1      -6.730   3.001 -31.835  1.00  0.00    -0.247 OA
HETATM    8  C   UNL     1      -3.234   3.654 -32.633  1.00  0.00     0.155 C 
HETATM    9  C   UNL     1      -2.273   4.570 -31.931  1.00  0.00     0.001 C 
HETATM   10  H   UNL     1      -4.487   1.687 -33.469  1.00  0.00     0.164 HD
ENDROOT
BRANCH   6  11
HETATM   11  C   UNL     1      -6.092   0.518 -32.914  1.00  0.00     0.087 C 
HETATM   12  C   UNL     1      -5.331  -0.781 -33.172  1.00  0.00     0.032 C 
BRANCH  11  13
HETATM   13  C   UNL     1      -7.095   0.856 -34.038  1.00  0.00     0.085 C 
BRANCH  13  14
HETATM   14  C   UNL     1      -8.537   0.729 -33.643  1.00  0.00     0.058 A 
HETATM   15  N   UNL     1      -8.897   0.129 -32.497  1.00  0.00    -0.179 NA
HETATM   16  N   UNL     1     -10.239   0.206 -32.498  1.00  0.00    -0.282 N 
HETATM   17  H   UNL     1     -10.745  -0.197 -31.716  1.00  0.00     0.189 HD
HETATM   18  C   UNL     1     -10.752   0.841 -33.594  1.00  0.00     0.026 A 
HETATM   19  C   UNL     1     -12.204   1.040 -33.798  1.00  0.00     0.070 C 
HETATM   20  C   UNL     1      -9.666   1.188 -34.362  1.00  0.00     0.055 A 
ENDBRANCH  13  14
ENDBRANCH  11  13
ENDBRANCH   6  11
BRANCH   1  21
HETATM   21  C   UNL     1      -1.582   6.284 -30.306  1.00  0.00    -0.030 A 
HETATM   22  C   UNL     1      -1.900   7.114 -29.223  1.00  0.00     0.014 A 
HETATM   23  C   UNL     1      -0.906   7.838 -28.547  1.00  0.00     0.037 A 
HETATM   24  C   UNL     1       0.425   7.743 -28.946  1.00  0.00     0.068 A 
HETATM   25  C   UNL     1       0.752   6.927 -30.028  1.00  0.00     0.037 A 
HETATM   26  C   UNL     1      -0.237   6.200 -30.696  1.00  0.00     0.014 A 
BRANCH  24  27
HETATM   27  O   UNL     1       1.486   8.390 -28.377  1.00  0.00    -0.352 OA
BRANCH  27  28
HETATM   28  C   UNL     1       1.241   9.095 -27.162  1.00  0.00     0.171 C 
HETATM   29  C   UNL     1       2.016   8.401 -26.057  1.00  0.00     0.034 C 
ENDBRANCH  27  28
ENDBRANCH  24  27
ENDBRANCH   1  21
TORSDOF 6
ENDMDL
MODEL 9
REMARK VINA RESULT:      -7.2      2.812      3.766
REMARK  6 active torsions:
REMARK  status: ('A' for Active; 'I' for Inactive)
REMARK    1  A    between atoms: C_2  and  O_3 
REMARK    2  A    between atoms: O_3  and  C_4 
REMARK    3  A    between atoms: C_7  and  C_8 
REMARK       I    between atoms: N_11  and  C_12 
REMARK       I    between atoms: C_12  and  N_13 
REMARK    4  A    between atoms: N_13  and  C_14 
REMARK    5  A    between atoms: C_14  and  C_15 
REMARK    6  A    between atoms: C_15  and  C_16 
ROOT
HETATM    1  C   UNL     1      -5.479   4.109 -33.187  1.00  0.00    -0.049 C 
HETATM    2  C   UNL     1      -4.654   4.736 -34.285  1.00  0.00     0.059 C 
HETATM    3  C   UNL     1      -3.725   5.826 -33.744  1.00  0.00     0.132 C 
HETATM    4  N   UNL     1      -3.022   5.380 -32.547  1.00  0.00    -0.331 N 
HETATM    5  C   UNL     1      -1.655   5.585 -32.468  1.00  0.00     0.318 C 
HETATM    6  N   UNL     1      -1.082   5.250 -31.267  1.00  0.00    -0.338 N 
HETATM    7  O   UNL     1      -0.987   6.004 -33.411  1.00  0.00    -0.247 OA
HETATM    8  C   UNL     1      -3.858   4.945 -31.433  1.00  0.00     0.155 C 
HETATM    9  C   UNL     1      -5.108   4.256 -31.899  1.00  0.00     0.001 C 
HETATM   10  H   UNL     1      -1.645   5.486 -30.457  1.00  0.00     0.164 HD
ENDROOT
BRANCH   6  11
HETATM   11  C   UNL     1       0.338   5.495 -31.020  1.00  0.00     0.087 C 
HETATM   12  C   UNL     1       0.836   4.581 -29.901  1.00  0.00     0.032 C 
BRANCH  11  13
HETATM   13  C   UNL     1       0.603   6.988 -30.734  1.00  0.00     0.085 C 
BRANCH  13  14
HETATM   14  C   UNL     1       0.118   7.460 -29.394  1.00  0.00     0.058 A 
HETATM   15  N   UNL     1      -1.178   7.388 -29.056  1.00  0.00    -0.179 NA
HETATM   16  N   UNL     1      -1.218   7.898 -27.812  1.00  0.00    -0.282 N 
HETATM   17  H   UNL     1      -2.116   7.953 -27.343  1.00  0.00     0.189 HD
HETATM   18  C   UNL     1       0.004   8.283 -27.337  1.00  0.00     0.026 A 
HETATM   19  C   UNL     1       0.193   8.867 -25.991  1.00  0.00     0.070 C 
HETATM   20  C   UNL     1       0.895   8.015 -28.350  1.00  0.00     0.055 A 
ENDBRANCH  13  14
ENDBRANCH  11  13
ENDBRANCH   6  11
BRANCH   1  21
HETATM   21  C   UNL     1      -6.687   3.337 -33.549  1.00  0.00    -0.030 A 
HETATM   22  C   UNL     1      -6.600   2.073 -34.146  1.00  0.00     0.014 A 
HETATM   23  C   UNL     1      -7.753   1.335 -34.454  1.00  0.00     0.037 A 
HETATM   24  C   UNL     1      -9.015   1.853 -34.168  1.00  0.00     0.068 A 
HETATM   25  C   UNL     1      -9.113   3.115 -33.582  1.00  0.00     0.037 A 
HETATM   26  C   UNL     1      -7.963   3.846 -33.269  1.00  0.00     0.014 A 
BRANCH  24  27
HETATM   27  O   UNL     1     -10.213   1.243 -34.414  1.00  0.00    -0.352 OA
BRANCH  27  28
HETATM   28  C   UNL     1     -11.377   2.067 -34.390  1.00  0.00     0.171 C 
HETATM   29  C   UNL     1     -12.449   1.382 -35.219  1.00  0.00     0.034 C 
ENDBRANCH  27  28
ENDBRANCH  24  27
ENDBRANCH   1  21
TORSDOF 6
ENDMDL
MODEL 10
REMARK VINA RESULT:      -7.1      1.927      2.395
REMARK  6 active torsions:
REMARK  status: ('A' for Active; 'I' for Inactive)
REMARK    1  A    between atoms: C_2  and  O_3 
REMARK    2  A    between atoms: O_3  and  C_4 
REMARK    3  A    between atoms: C_7  and  C_8 
REMARK       I    between atoms: N_11  and  C_12 
REMARK       I    between atoms: C_12  and  N_13 
REMARK    4  A    between atoms: N_13  and  C_14 
REMARK    5  A    between atoms: C_14  and  C_15 
REMARK    6  A    between atoms: C_15  and  C_16 
ROOT
HETATM    1  C   UNL     1      -4.850   1.448 -32.081  1.00  0.00    -0.049 C 
HETATM    2  C   UNL     1      -5.945   1.703 -31.073  1.00  0.00     0.059 C 
HETATM    3  C   UNL     1      -5.501   2.694 -29.993  1.00  0.00     0.132 C 
HETATM    4  N   UNL     1      -4.840   3.856 -30.576  1.00  0.00    -0.331 N 
HETATM    5  C   UNL     1      -5.223   5.117 -30.152  1.00  0.00     0.318 C 
HETATM    6  N   UNL     1      -4.477   6.153 -30.653  1.00  0.00    -0.338 N 
HETATM    7  O   UNL     1      -6.182   5.308 -29.407  1.00  0.00    -0.247 OA
HETATM    8  C   UNL     1      -3.671   3.582 -31.406  1.00  0.00     0.155 C 
HETATM    9  C   UNL     1      -3.813   2.303 -32.179  1.00  0.00     0.001 C 
HETATM   10  H   UNL     1      -3.484   5.957 -30.722  1.00  0.00     0.164 HD
ENDROOT
BRANCH   6  11
HETATM   11  C   UNL     1      -4.721   7.529 -30.222  1.00  0.00     0.087 C 
HETATM   12  C   UNL     1      -5.653   8.227 -31.210  1.00  0.00     0.032 C 
BRANCH  11  13
HETATM   13  C   UNL     1      -3.393   8.289 -30.014  1.00  0.00     0.085 C 
BRANCH  13  14
HETATM   14  C   UNL     1      -2.349   7.520 -29.259  1.00  0.00     0.058 A 
HETATM   15  N   UNL     1      -1.583   6.601 -29.867  1.00  0.00    -0.179 NA
HETATM   16  N   UNL     1      -0.791   6.137 -28.884  1.00  0.00    -0.282 N 
HETATM   17  H   UNL     1      -0.118   5.413 -29.110  1.00  0.00     0.189 HD
HETATM   18  C   UNL     1      -1.012   6.732 -27.674  1.00  0.00     0.026 A 
HETATM   19  C   UNL     1      -0.252   6.377 -26.455  1.00  0.00     0.070 C 
HETATM   20  C   UNL     1      -2.028   7.634 -27.886  1.00  0.00     0.055 A 
ENDBRANCH  13  14
ENDBRANCH  11  13
ENDBRANCH   6  11
BRANCH   1  21
HETATM   21  C   UNL     1      -4.940   0.255 -32.950  1.00  0.00    -0.030 A 
HETATM   22  C   UNL     1      -4.014  -0.791 -32.862  1.00  0.00     0.014 A 
HETATM   23  C   UNL     1      -4.130  -1.933 -33.669  1.00  0.00     0.037 A 
HETATM   24  C   UNL     1      -5.177  -2.045 -34.579  1.00  0.00     0.068 A 
HETATM   25  C   UNL     1      -6.101  -1.005 -34.682  1.00  0.00     0.037 A 
HETATM   26  C   UNL     1      -5.989   0.129 -33.872  1.00  0.00     0.014 A 
BRANCH  24  27
HETATM   27  O   UNL     1      -5.407  -3.098 -35.421  1.00  0.00    -0.352 OA
BRANCH  27  28
HETATM   28  C   UNL     1      -5.649  -4.368 -34.819  1.00  0.00     0.171 C 
HETATM   29  C   UNL     1      -7.127  -4.450 -34.483  1.00  0.00     0.034 C 
ENDBRANCH  27  28
ENDBRANCH  24  27
ENDBRANCH   1  21
TORSDOF 6
ENDMDL
