MODEL 1
REMARK VINA RESULT:      -9.8      0.000      0.000
REMARK  5 active torsions:
REMARK  status: ('A' for Active; 'I' for Inactive)
REMARK    1  A    between atoms: C_4  and  C_5 
REMARK    2  A    between atoms: N_7  and  C_8 
REMARK    3  A    between atoms: C_8  and  C_9 
REMARK    4  A    between atoms: C_9  and  N_10 
REMARK       I    between atoms: N_10  and  C_11 
REMARK    5  A    between atoms: C_11  and  C_12 
ROOT
HETATM    1  N   UNL     1      -8.218   0.579 -33.619  1.00  0.00    -0.359 N 
HETATM    2  C   UNL     1      -7.063  -0.028 -34.066  1.00  0.00     0.230 C 
HETATM    3  O   UNL     1      -6.559   0.235 -35.159  1.00  0.00    -0.272 OA
HETATM    4  H   UNL     1      -8.660   0.204 -32.788  1.00  0.00     0.162 HD
ENDROOT
BRANCH   1   5
HETATM    5  C   UNL     1      -9.019   1.452 -34.464  1.00  0.00     0.144 C 
BRANCH   5   6
HETATM    6  C   UNL     1      -9.269   2.852 -33.896  1.00  0.00     0.174 C 
BRANCH   6   7
HETATM    7  N   UNL     1      -8.209   3.250 -32.972  1.00  0.00    -0.233 N 
HETATM    8  N   UNL     1      -6.987   3.535 -33.543  1.00  0.00    -0.169 NA
HETATM    9  C   UNL     1      -6.028   3.943 -32.769  1.00  0.00     0.087 A 
HETATM   10  C   UNL     1      -6.160   4.081 -31.302  1.00  0.00     0.040 A 
HETATM   11  C   UNL     1      -7.363   3.846 -30.778  1.00  0.00     0.078 A 
HETATM   12  C   UNL     1      -8.502   3.453 -31.632  1.00  0.00     0.263 A 
HETATM   13  O   UNL     1      -9.611   3.319 -31.120  1.00  0.00    -0.267 OA
BRANCH   9  14
HETATM   14  C   UNL     1      -4.703   4.275 -33.370  1.00  0.00    -0.006 A 
HETATM   15  C   UNL     1      -3.496   3.937 -32.743  1.00  0.00     0.014 A 
HETATM   16  C   UNL     1      -2.277   4.277 -33.336  1.00  0.00     0.001 A 
HETATM   17  C   UNL     1      -2.256   4.962 -34.550  1.00  0.00     0.000 A 
HETATM   18  C   UNL     1      -3.453   5.317 -35.171  1.00  0.00     0.001 A 
HETATM   19  C   UNL     1      -4.672   4.979 -34.582  1.00  0.00     0.014 A 
ENDBRANCH   9  14
ENDBRANCH   6   7
ENDBRANCH   5   6
ENDBRANCH   1   5
BRANCH   2  20
HETATM   20  C   UNL     1      -6.462  -1.113 -33.153  1.00  0.00     0.149 C 
HETATM   21  C   UNL     1      -5.278  -0.560 -32.393  1.00  0.00    -0.007 A 
HETATM   22  C   UNL     1      -3.998  -1.068 -32.619  1.00  0.00     0.083 A 
HETATM   23  C   UNL     1      -5.444   0.483 -31.465  1.00  0.00     0.011 A 
HETATM   24  C   UNL     1      -2.897  -0.538 -31.944  1.00  0.00     0.038 A 
HETATM   25  O   UNL     1      -3.734  -2.093 -33.494  1.00  0.00    -0.310 OA
HETATM   26  C   UNL     1      -3.069   0.500 -31.028  1.00  0.00     0.003 A 
HETATM   27  C   UNL     1      -4.344   1.009 -30.787  1.00  0.00     0.001 A 
HETATM   28  C   UNL     1      -4.793  -2.795 -34.016  1.00  0.00     0.083 A 
HETATM   29  C   UNL     1      -6.125  -2.394 -33.885  1.00  0.00    -0.007 A 
HETATM   30  C   UNL     1      -4.470  -3.961 -34.714  1.00  0.00     0.038 A 
HETATM   31  C   UNL     1      -7.135  -3.187 -34.453  1.00  0.00     0.011 A 
HETATM   32  C   UNL     1      -6.811  -4.354 -35.145  1.00  0.00     0.001 A 
HETATM   33  C   UNL     1      -5.480  -4.741 -35.277  1.00  0.00     0.003 A 
ENDBRANCH   2  20
TORSDOF 5
ENDMDL
MODEL 2
REMARK VINA RESULT:      -9.6      2.058      6.014
REMARK  5 active torsions:
REMARK  status: ('A' for Active; 'I' for Inactive)
REMARK    1  A    between atoms: C_4  and  C_5 
REMARK    2  A    between atoms: N_7  and  C_8 
REMARK    3  A    between atoms: C_8  and  C_9 
REMARK    4  A    between atoms: C_9  and  N_10 
REMARK       I    between atoms: N_10  and  C_11 
REMARK    5  A    between atoms: C_11  and  C_12 
ROOT
HETATM    1  N   UNL     1      -7.390  -1.296 -33.821  1.00  0.00    -0.359 N 
HETATM    2  C   UNL     1      -8.023  -0.071 -33.800  1.00  0.00     0.230 C 
HETATM    3  O   UNL     1      -7.942   0.730 -34.732  1.00  0.00    -0.272 OA
HETATM    4  H   UNL     1      -7.371  -1.834 -32.962  1.00  0.00     0.162 HD
ENDROOT
BRANCH   1   5
HETATM    5  C   UNL     1      -6.451  -1.673 -34.865  1.00  0.00     0.144 C 
BRANCH   5   6
HETATM    6  C   UNL     1      -5.286  -2.553 -34.403  1.00  0.00     0.174 C 
BRANCH   6   7
HETATM    7  N   UNL     1      -4.401  -1.830 -33.492  1.00  0.00    -0.233 N 
HETATM    8  N   UNL     1      -4.585  -0.465 -33.428  1.00  0.00    -0.169 NA
HETATM    9  C   UNL     1      -3.857   0.213 -32.594  1.00  0.00     0.087 A 
HETATM   10  C   UNL     1      -2.812  -0.388 -31.738  1.00  0.00     0.040 A 
HETATM   11  C   UNL     1      -2.684  -1.715 -31.782  1.00  0.00     0.078 A 
HETATM   12  C   UNL     1      -3.543  -2.534 -32.660  1.00  0.00     0.263 A 
HETATM   13  O   UNL     1      -3.444  -3.758 -32.616  1.00  0.00    -0.267 OA
BRANCH   9  14
HETATM   14  C   UNL     1      -4.055   1.690 -32.496  1.00  0.00    -0.006 A 
HETATM   15  C   UNL     1      -3.254   2.494 -31.674  1.00  0.00     0.014 A 
HETATM   16  C   UNL     1      -3.482   3.872 -31.604  1.00  0.00     0.001 A 
HETATM   17  C   UNL     1      -4.512   4.450 -32.343  1.00  0.00     0.000 A 
HETATM   18  C   UNL     1      -5.324   3.653 -33.150  1.00  0.00     0.001 A 
HETATM   19  C   UNL     1      -5.100   2.277 -33.223  1.00  0.00     0.014 A 
ENDBRANCH   9  14
ENDBRANCH   6   7
ENDBRANCH   5   6
ENDBRANCH   1   5
BRANCH   2  20
HETATM   20  C   UNL     1      -8.790   0.282 -32.511  1.00  0.00     0.149 C 
HETATM   21  C   UNL     1      -9.987   1.145 -32.836  1.00  0.00    -0.007 A 
HETATM   22  C   UNL     1     -10.054   2.460 -32.370  1.00  0.00     0.083 A 
HETATM   23  C   UNL     1     -11.040   0.647 -33.622  1.00  0.00     0.011 A 
HETATM   24  C   UNL     1     -11.142   3.272 -32.696  1.00  0.00     0.038 A 
HETATM   25  O   UNL     1      -9.084   3.035 -31.586  1.00  0.00    -0.310 OA
HETATM   26  C   UNL     1     -12.181   2.771 -33.481  1.00  0.00     0.003 A 
HETATM   27  C   UNL     1     -12.130   1.457 -33.942  1.00  0.00     0.001 A 
HETATM   28  C   UNL     1      -8.108   2.227 -31.056  1.00  0.00     0.083 A 
HETATM   29  C   UNL     1      -7.913   0.898 -31.442  1.00  0.00    -0.007 A 
HETATM   30  C   UNL     1      -7.286   2.812 -30.090  1.00  0.00     0.038 A 
HETATM   31  C   UNL     1      -6.888   0.155 -30.834  1.00  0.00     0.011 A 
HETATM   32  C   UNL     1      -6.071   0.739 -29.866  1.00  0.00     0.001 A 
HETATM   33  C   UNL     1      -6.269   2.067 -29.495  1.00  0.00     0.003 A 
ENDBRANCH   2  20
TORSDOF 5
ENDMDL
MODEL 3
REMARK VINA RESULT:      -9.1      3.183      7.981
REMARK  5 active torsions:
REMARK  status: ('A' for Active; 'I' for Inactive)
REMARK    1  A    between atoms: C_4  and  C_5 
REMARK    2  A    between atoms: N_7  and  C_8 
REMARK    3  A    between atoms: C_8  and  C_9 
REMARK    4  A    between atoms: C_9  and  N_10 
REMARK       I    between atoms: N_10  and  C_11 
REMARK    5  A    between atoms: C_11  and  C_12 
ROOT
HETATM    1  N   UNL     1      -3.434   3.551 -31.300  1.00  0.00    -0.359 N 
HETATM    2  C   UNL     1      -2.984   4.265 -32.391  1.00  0.00     0.230 C 
HETATM    3  O   UNL     1      -2.618   3.720 -33.432  1.00  0.00    -0.272 OA
HETATM    4  H   UNL     1      -3.568   4.052 -30.429  1.00  0.00     0.162 HD
ENDROOT
BRANCH   1   5
HETATM    5  C   UNL     1      -3.361   2.100 -31.232  1.00  0.00     0.144 C 
BRANCH   5   6
HETATM    6  C   UNL     1      -4.702   1.393 -31.019  1.00  0.00     0.174 C 
BRANCH   6   7
HETATM    7  N   UNL     1      -5.310   1.009 -32.292  1.00  0.00    -0.233 N 
HETATM    8  N   UNL     1      -5.192  -0.319 -32.641  1.00  0.00    -0.169 NA
HETATM    9  C   UNL     1      -5.761  -0.718 -33.737  1.00  0.00     0.087 A 
HETATM   10  C   UNL     1      -6.494   0.180 -34.656  1.00  0.00     0.040 A 
HETATM   11  C   UNL     1      -6.636   1.449 -34.275  1.00  0.00     0.078 A 
HETATM   12  C   UNL     1      -6.070   1.929 -32.999  1.00  0.00     0.263 A 
HETATM   13  O   UNL     1      -6.287   3.087 -32.649  1.00  0.00    -0.267 OA
BRANCH   9  14
HETATM   14  C   UNL     1      -5.660  -2.157 -34.123  1.00  0.00    -0.006 A 
HETATM   15  C   UNL     1      -6.749  -2.863 -34.651  1.00  0.00     0.014 A 
HETATM   16  C   UNL     1      -6.614  -4.213 -34.988  1.00  0.00     0.001 A 
HETATM   17  C   UNL     1      -5.398  -4.865 -34.791  1.00  0.00     0.000 A 
HETATM   18  C   UNL     1      -4.315  -4.173 -34.250  1.00  0.00     0.001 A 
HETATM   19  C   UNL     1      -4.446  -2.825 -33.913  1.00  0.00     0.014 A 
ENDBRANCH   9  14
ENDBRANCH   6   7
ENDBRANCH   5   6
ENDBRANCH   1   5
BRANCH   2  20
HETATM   20  C   UNL     1      -2.894   5.794 -32.219  1.00  0.00     0.149 C 
HETATM   21  C   UNL     1      -1.740   6.151 -31.311  1.00  0.00    -0.007 A 
HETATM   22  C   UNL     1      -1.978   6.755 -30.075  1.00  0.00     0.083 A 
HETATM   23  C   UNL     1      -0.416   5.865 -31.685  1.00  0.00     0.011 A 
HETATM   24  C   UNL     1      -0.918   7.056 -29.218  1.00  0.00     0.038 A 
HETATM   25  O   UNL     1      -3.233   7.085 -29.623  1.00  0.00    -0.310 OA
HETATM   26  C   UNL     1       0.393   6.765 -29.596  1.00  0.00     0.003 A 
HETATM   27  C   UNL     1       0.644   6.171 -30.831  1.00  0.00     0.001 A 
HETATM   28  C   UNL     1      -4.284   7.017 -30.505  1.00  0.00     0.083 A 
HETATM   29  C   UNL     1      -4.194   6.424 -31.767  1.00  0.00    -0.007 A 
HETATM   30  C   UNL     1      -5.487   7.575 -30.068  1.00  0.00     0.038 A 
HETATM   31  C   UNL     1      -5.329   6.409 -32.595  1.00  0.00     0.011 A 
HETATM   32  C   UNL     1      -6.529   6.973 -32.159  1.00  0.00     0.001 A 
HETATM   33  C   UNL     1      -6.609   7.554 -30.896  1.00  0.00     0.003 A 
ENDBRANCH   2  20
TORSDOF 5
ENDMDL
MODEL 4
REMARK VINA RESULT:      -9.1      1.359      1.723
REMARK  5 active torsions:
REMARK  status: ('A' for Active; 'I' for Inactive)
REMARK    1  A    between atoms: C_4  and  C_5 
REMARK    2  A    between atoms: N_7  and  C_8 
REMARK    3  A    between atoms: C_8  and  C_9 
REMARK    4  A    between atoms: C_9  and  N_10 
REMARK       I    between atoms: N_10  and  C_11 
REMARK    5  A    between atoms: C_11  and  C_12 
ROOT
HETATM    1  N   UNL     1      -8.952   0.836 -33.665  1.00  0.00    -0.359 N 
HETATM    2  C   UNL     1      -7.658   0.565 -34.060  1.00  0.00     0.230 C 
HETATM    3  O   UNL     1      -7.196   0.964 -35.129  1.00  0.00    -0.272 OA
HETATM    4  H   UNL     1      -9.312   0.348 -32.853  1.00  0.00     0.162 HD
ENDROOT
BRANCH   1   5
HETATM    5  C   UNL     1      -9.919   1.473 -34.545  1.00  0.00     0.144 C 
BRANCH   5   6
HETATM    6  C   UNL     1     -10.823   2.510 -33.872  1.00  0.00     0.174 C 
BRANCH   6   7
HETATM    7  N   UNL     1     -10.075   3.334 -32.925  1.00  0.00    -0.233 N 
HETATM    8  N   UNL     1      -8.798   3.684 -33.306  1.00  0.00    -0.169 NA
HETATM    9  C   UNL     1      -8.113   4.458 -32.521  1.00  0.00     0.087 A 
HETATM   10  C   UNL     1      -8.610   4.954 -31.219  1.00  0.00     0.040 A 
HETATM   11  C   UNL     1      -9.865   4.643 -30.893  1.00  0.00     0.078 A 
HETATM   12  C   UNL     1     -10.705   3.827 -31.791  1.00  0.00     0.263 A 
HETATM   13  O   UNL     1     -11.879   3.625 -31.489  1.00  0.00    -0.267 OA
BRANCH   9  14
HETATM   14  C   UNL     1      -6.734   4.863 -32.926  1.00  0.00    -0.006 A 
HETATM   15  C   UNL     1      -6.015   5.847 -32.233  1.00  0.00     0.014 A 
HETATM   16  C   UNL     1      -4.731   6.204 -32.654  1.00  0.00     0.001 A 
HETATM   17  C   UNL     1      -4.164   5.591 -33.769  1.00  0.00     0.000 A 
HETATM   18  C   UNL     1      -4.880   4.623 -34.474  1.00  0.00     0.001 A 
HETATM   19  C   UNL     1      -6.163   4.264 -34.057  1.00  0.00     0.014 A 
ENDBRANCH   9  14
ENDBRANCH   6   7
ENDBRANCH   5   6
ENDBRANCH   1   5
BRANCH   2  20
HETATM   20  C   UNL     1      -6.829  -0.331 -33.119  1.00  0.00     0.149 C 
HETATM   21  C   UNL     1      -5.705   0.465 -32.496  1.00  0.00    -0.007 A 
HETATM   22  C   UNL     1      -4.376   0.148 -32.783  1.00  0.00     0.083 A 
HETATM   23  C   UNL     1      -5.978   1.542 -31.636  1.00  0.00     0.011 A 
HETATM   24  C   UNL     1      -3.336   0.902 -32.237  1.00  0.00     0.038 A 
HETATM   25  O   UNL     1      -4.005  -0.892 -33.600  1.00  0.00    -0.310 OA
HETATM   26  C   UNL     1      -3.615   1.972 -31.388  1.00  0.00     0.003 A 
HETATM   27  C   UNL     1      -4.938   2.291 -31.086  1.00  0.00     0.001 A 
HETATM   28  C   UNL     1      -4.966  -1.795 -33.985  1.00  0.00     0.083 A 
HETATM   29  C   UNL     1      -6.335  -1.600 -33.780  1.00  0.00    -0.007 A 
HETATM   30  C   UNL     1      -4.503  -2.949 -34.620  1.00  0.00     0.038 A 
HETATM   31  C   UNL     1      -7.236  -2.588 -34.209  1.00  0.00     0.011 A 
HETATM   32  C   UNL     1      -6.771  -3.743 -34.838  1.00  0.00     0.001 A 
HETATM   33  C   UNL     1      -5.405  -3.924 -35.045  1.00  0.00     0.003 A 
ENDBRANCH   2  20
TORSDOF 5
ENDMDL
MODEL 5
REMARK VINA RESULT:      -9.0      2.365      5.237
REMARK  5 active torsions:
REMARK  status: ('A' for Active; 'I' for Inactive)
REMARK    1  A    between atoms: C_4  and  C_5 
REMARK    2  A    between atoms: N_7  and  C_8 
REMARK    3  A    between atoms: C_8  and  C_9 
REMARK    4  A    between atoms: C_9  and  N_10 
REMARK       I    between atoms: N_10  and  C_11 
REMARK    5  A    between atoms: C_11  and  C_12 
ROOT
HETATM    1  N   UNL     1      -9.634   1.056 -34.570  1.00  0.00    -0.359 N 
HETATM    2  C   UNL     1      -8.563   0.803 -33.739  1.00  0.00     0.230 C 
HETATM    3  O   UNL     1      -8.705   0.397 -32.584  1.00  0.00    -0.272 OA
HETATM    4  H   UNL     1      -9.452   1.534 -35.445  1.00  0.00     0.162 HD
ENDROOT
BRANCH   1   5
HETATM    5  C   UNL     1     -11.011   1.020 -34.104  1.00  0.00     0.144 C 
BRANCH   5   6
HETATM    6  C   UNL     1     -11.763   2.351 -34.200  1.00  0.00     0.174 C 
BRANCH   6   7
HETATM    7  N   UNL     1     -11.840   3.015 -32.900  1.00  0.00    -0.233 N 
HETATM    8  N   UNL     1     -10.636   3.254 -32.272  1.00  0.00    -0.169 NA
HETATM    9  C   UNL     1     -10.649   3.888 -31.139  1.00  0.00     0.087 A 
HETATM   10  C   UNL     1     -11.887   4.333 -30.463  1.00  0.00     0.040 A 
HETATM   11  C   UNL     1     -13.035   4.134 -31.110  1.00  0.00     0.078 A 
HETATM   12  C   UNL     1     -13.059   3.485 -32.436  1.00  0.00     0.263 A 
HETATM   13  O   UNL     1     -14.129   3.388 -33.031  1.00  0.00    -0.267 OA
BRANCH   9  14
HETATM   14  C   UNL     1      -9.355   4.172 -30.453  1.00  0.00    -0.006 A 
HETATM   15  C   UNL     1      -9.010   5.459 -30.019  1.00  0.00     0.014 A 
HETATM   16  C   UNL     1      -7.781   5.683 -29.391  1.00  0.00     0.001 A 
HETATM   17  C   UNL     1      -6.890   4.629 -29.202  1.00  0.00     0.000 A 
HETATM   18  C   UNL     1      -7.219   3.348 -29.647  1.00  0.00     0.001 A 
HETATM   19  C   UNL     1      -8.444   3.121 -30.274  1.00  0.00     0.014 A 
ENDBRANCH   9  14
ENDBRANCH   6   7
ENDBRANCH   5   6
ENDBRANCH   1   5
BRANCH   2  20
HETATM   20  C   UNL     1      -7.166   1.121 -34.305  1.00  0.00     0.149 C 
HETATM   21  C   UNL     1      -6.272  -0.093 -34.202  1.00  0.00    -0.007 A 
HETATM   22  C   UNL     1      -5.145  -0.068 -33.378  1.00  0.00     0.083 A 
HETATM   23  C   UNL     1      -6.568  -1.267 -34.916  1.00  0.00     0.011 A 
HETATM   24  C   UNL     1      -4.335  -1.199 -33.254  1.00  0.00     0.038 A 
HETATM   25  O   UNL     1      -4.764   1.032 -32.650  1.00  0.00    -0.310 OA
HETATM   26  C   UNL     1      -4.639  -2.361 -33.963  1.00  0.00     0.003 A 
HETATM   27  C   UNL     1      -5.755  -2.394 -34.796  1.00  0.00     0.001 A 
HETATM   28  C   UNL     1      -5.388   2.229 -32.900  1.00  0.00     0.083 A 
HETATM   29  C   UNL     1      -6.535   2.351 -33.689  1.00  0.00    -0.007 A 
HETATM   30  C   UNL     1      -4.816   3.355 -32.304  1.00  0.00     0.038 A 
HETATM   31  C   UNL     1      -7.095   3.624 -33.886  1.00  0.00     0.011 A 
HETATM   32  C   UNL     1      -6.518   4.749 -33.295  1.00  0.00     0.001 A 
HETATM   33  C   UNL     1      -5.380   4.614 -32.503  1.00  0.00     0.003 A 
ENDBRANCH   2  20
TORSDOF 5
ENDMDL
MODEL 6
REMARK VINA RESULT:      -9.0      3.217      5.396
REMARK  5 active torsions:
REMARK  status: ('A' for Active; 'I' for Inactive)
REMARK    1  A    between atoms: C_4  and  C_5 
REMARK    2  A    between atoms: N_7  and  C_8 
REMARK    3  A    between atoms: C_8  and  C_9 
REMARK    4  A    between atoms: C_9  and  N_10 
REMARK       I    between atoms: N_10  and  C_11 
REMARK    5  A    between atoms: C_11  and  C_12 
ROOT
HETATM    1  N   UNL     1      -4.961   1.936 -32.733  1.00  0.00    -0.359 N 
HETATM    2  C   UNL     1      -4.972   0.997 -31.722  1.00  0.00     0.230 C 
HETATM    3  O   UNL     1      -4.186   1.039 -30.775  1.00  0.00    -0.272 OA
HETATM    4  H   UNL     1      -5.526   1.752 -33.555  1.00  0.00     0.162 HD
ENDROOT
BRANCH   1   5
HETATM    5  C   UNL     1      -3.925   2.949 -32.848  1.00  0.00     0.144 C 
BRANCH   5   6
HETATM    6  C   UNL     1      -4.426   4.396 -32.808  1.00  0.00     0.174 C 
BRANCH   6   7
HETATM    7  N   UNL     1      -3.317   5.346 -32.876  1.00  0.00    -0.233 N 
HETATM    8  N   UNL     1      -2.575   5.491 -31.724  1.00  0.00    -0.169 NA
HETATM    9  C   UNL     1      -1.549   6.285 -31.750  1.00  0.00     0.087 A 
HETATM   10  C   UNL     1      -1.153   7.076 -32.936  1.00  0.00     0.040 A 
HETATM   11  C   UNL     1      -1.855   6.884 -34.053  1.00  0.00     0.078 A 
HETATM   12  C   UNL     1      -2.985   5.933 -34.088  1.00  0.00     0.263 A 
HETATM   13  O   UNL     1      -3.558   5.730 -35.155  1.00  0.00    -0.267 OA
BRANCH   9  14
HETATM   14  C   UNL     1      -0.722   6.442 -30.518  1.00  0.00    -0.006 A 
HETATM   15  C   UNL     1       0.006   5.377 -29.970  1.00  0.00     0.014 A 
HETATM   16  C   UNL     1       0.757   5.564 -28.807  1.00  0.00     0.001 A 
HETATM   17  C   UNL     1       0.779   6.809 -28.181  1.00  0.00     0.000 A 
HETATM   18  C   UNL     1       0.044   7.870 -28.711  1.00  0.00     0.001 A 
HETATM   19  C   UNL     1      -0.708   7.686 -29.872  1.00  0.00     0.014 A 
ENDBRANCH   9  14
ENDBRANCH   6   7
ENDBRANCH   5   6
ENDBRANCH   1   5
BRANCH   2  20
HETATM   20  C   UNL     1      -5.980  -0.158 -31.871  1.00  0.00     0.149 C 
HETATM   21  C   UNL     1      -5.435  -1.208 -32.812  1.00  0.00    -0.007 A 
HETATM   22  C   UNL     1      -6.073  -1.461 -34.028  1.00  0.00     0.083 A 
HETATM   23  C   UNL     1      -4.274  -1.931 -32.488  1.00  0.00     0.011 A 
HETATM   24  C   UNL     1      -5.554  -2.406 -34.915  1.00  0.00     0.038 A 
HETATM   25  O   UNL     1      -7.217  -0.818 -34.431  1.00  0.00    -0.310 OA
HETATM   26  C   UNL     1      -4.399  -3.116 -34.588  1.00  0.00     0.003 A 
HETATM   27  C   UNL     1      -3.760  -2.879 -33.372  1.00  0.00     0.001 A 
HETATM   28  C   UNL     1      -7.889  -0.046 -33.515  1.00  0.00     0.083 A 
HETATM   29  C   UNL     1      -7.366   0.302 -32.266  1.00  0.00    -0.007 A 
HETATM   30  C   UNL     1      -9.156   0.398 -33.900  1.00  0.00     0.038 A 
HETATM   31  C   UNL     1      -8.138   1.094 -31.400  1.00  0.00     0.011 A 
HETATM   32  C   UNL     1      -9.405   1.532 -31.785  1.00  0.00     0.001 A 
HETATM   33  C   UNL     1      -9.914   1.186 -33.034  1.00  0.00     0.003 A 
ENDBRANCH   2  20
TORSDOF 5
ENDMDL
MODEL 7
REMARK VINA RESULT:      -9.0      2.144      4.737
REMARK  5 active torsions:
REMARK  status: ('A' for Active; 'I' for Inactive)
REMARK    1  A    between atoms: C_4  and  C_5 
REMARK    2  A    between atoms: N_7  and  C_8 
REMARK    3  A    between atoms: C_8  and  C_9 
REMARK    4  A    between atoms: C_9  and  N_10 
REMARK       I    between atoms: N_10  and  C_11 
REMARK    5  A    between atoms: C_11  and  C_12 
ROOT
HETATM    1  N   UNL     1      -9.036  -0.079 -33.459  1.00  0.00    -0.359 N 
HETATM    2  C   UNL     1      -7.817  -0.009 -32.818  1.00  0.00     0.230 C 
HETATM    3  O   UNL     1      -7.716   0.019 -31.591  1.00  0.00    -0.272 OA
HETATM    4  H   UNL     1      -9.053   0.060 -34.463  1.00  0.00     0.162 HD
ENDROOT
BRANCH   1   5
HETATM    5  C   UNL     1     -10.300   0.039 -32.749  1.00  0.00     0.144 C 
BRANCH   5   6
HETATM    6  C   UNL     1     -11.453   0.624 -33.569  1.00  0.00     0.174 C 
BRANCH   6   7
HETATM    7  N   UNL     1     -11.175   2.002 -33.972  1.00  0.00    -0.233 N 
HETATM    8  N   UNL     1     -10.227   2.669 -33.226  1.00  0.00    -0.169 NA
HETATM    9  C   UNL     1      -9.909   3.877 -33.578  1.00  0.00     0.087 A 
HETATM   10  C   UNL     1     -10.535   4.595 -34.710  1.00  0.00     0.040 A 
HETATM   11  C   UNL     1     -11.414   3.914 -35.446  1.00  0.00     0.078 A 
HETATM   12  C   UNL     1     -11.750   2.512 -35.127  1.00  0.00     0.263 A 
HETATM   13  O   UNL     1     -12.507   1.897 -35.873  1.00  0.00    -0.267 OA
BRANCH   9  14
HETATM   14  C   UNL     1      -8.871   4.610 -32.794  1.00  0.00    -0.006 A 
HETATM   15  C   UNL     1      -8.062   5.598 -33.372  1.00  0.00     0.014 A 
HETATM   16  C   UNL     1      -7.094   6.250 -32.604  1.00  0.00     0.001 A 
HETATM   17  C   UNL     1      -6.922   5.915 -31.262  1.00  0.00     0.000 A 
HETATM   18  C   UNL     1      -7.712   4.921 -30.684  1.00  0.00     0.001 A 
HETATM   19  C   UNL     1      -8.679   4.267 -31.448  1.00  0.00     0.014 A 
ENDBRANCH   9  14
ENDBRANCH   6   7
ENDBRANCH   5   6
ENDBRANCH   1   5
BRANCH   2  20
HETATM   20  C   UNL     1      -6.574   0.102 -33.722  1.00  0.00     0.149 C 
HETATM   21  C   UNL     1      -6.005  -1.271 -33.999  1.00  0.00    -0.007 A 
HETATM   22  C   UNL     1      -4.737  -1.615 -33.530  1.00  0.00     0.083 A 
HETATM   23  C   UNL     1      -6.749  -2.225 -34.715  1.00  0.00     0.011 A 
HETATM   24  C   UNL     1      -4.221  -2.893 -33.755  1.00  0.00     0.038 A 
HETATM   25  O   UNL     1      -3.928  -0.752 -32.832  1.00  0.00    -0.310 OA
HETATM   26  C   UNL     1      -4.967  -3.836 -34.462  1.00  0.00     0.003 A 
HETATM   27  C   UNL     1      -6.231  -3.500 -34.944  1.00  0.00     0.001 A 
HETATM   28  C   UNL     1      -4.285   0.573 -32.772  1.00  0.00     0.083 A 
HETATM   29  C   UNL     1      -5.528   1.057 -33.188  1.00  0.00    -0.007 A 
HETATM   30  C   UNL     1      -3.324   1.444 -32.252  1.00  0.00     0.038 A 
HETATM   31  C   UNL     1      -5.792   2.433 -33.089  1.00  0.00     0.011 A 
HETATM   32  C   UNL     1      -4.829   3.302 -32.575  1.00  0.00     0.001 A 
HETATM   33  C   UNL     1      -3.596   2.808 -32.155  1.00  0.00     0.003 A 
ENDBRANCH   2  20
TORSDOF 5
ENDMDL
MODEL 8
REMARK VINA RESULT:      -9.0      2.915      7.448
REMARK  5 active torsions:
REMARK  status: ('A' for Active; 'I' for Inactive)
REMARK    1  A    between atoms: C_4  and  C_5 
REMARK    2  A    between atoms: N_7  and  C_8 
REMARK    3  A    between atoms: C_8  and  C_9 
REMARK    4  A    between atoms: C_9  and  N_10 
REMARK       I    between atoms: N_10  and  C_11 
REMARK    5  A    between atoms: C_11  and  C_12 
ROOT
HETATM    1  N   UNL     1      -9.852   1.357 -32.316  1.00  0.00    -0.359 N 
HETATM    2  C   UNL     1      -9.954   1.398 -33.691  1.00  0.00     0.230 C 
HETATM    3  O   UNL     1      -9.198   0.763 -34.428  1.00  0.00    -0.272 OA
HETATM    4  H   UNL     1     -10.399   2.021 -31.780  1.00  0.00     0.162 HD
ENDROOT
BRANCH   1   5
HETATM    5  C   UNL     1      -8.752   0.695 -31.633  1.00  0.00     0.144 C 
BRANCH   5   6
HETATM    6  C   UNL     1      -7.534   1.581 -31.357  1.00  0.00     0.174 C 
BRANCH   6   7
HETATM    7  N   UNL     1      -6.309   0.984 -31.886  1.00  0.00    -0.233 N 
HETATM    8  N   UNL     1      -6.454  -0.235 -32.513  1.00  0.00    -0.169 NA
HETATM    9  C   UNL     1      -5.403  -0.780 -33.045  1.00  0.00     0.087 A 
HETATM   10  C   UNL     1      -4.049  -0.187 -32.981  1.00  0.00     0.040 A 
HETATM   11  C   UNL     1      -3.941   1.014 -32.412  1.00  0.00     0.078 A 
HETATM   12  C   UNL     1      -5.124   1.704 -31.861  1.00  0.00     0.263 A 
HETATM   13  O   UNL     1      -4.994   2.841 -31.413  1.00  0.00    -0.267 OA
BRANCH   9  14
HETATM   14  C   UNL     1      -5.543  -2.092 -33.744  1.00  0.00    -0.006 A 
HETATM   15  C   UNL     1      -6.753  -2.503 -34.317  1.00  0.00     0.014 A 
HETATM   16  C   UNL     1      -6.843  -3.745 -34.952  1.00  0.00     0.001 A 
HETATM   17  C   UNL     1      -5.732  -4.583 -35.010  1.00  0.00     0.000 A 
HETATM   18  C   UNL     1      -4.528  -4.188 -34.427  1.00  0.00     0.001 A 
HETATM   19  C   UNL     1      -4.435  -2.949 -33.792  1.00  0.00     0.014 A 
ENDBRANCH   9  14
ENDBRANCH   6   7
ENDBRANCH   5   6
ENDBRANCH   1   5
BRANCH   2  20
HETATM   20  C   UNL     1     -11.026   2.340 -34.270  1.00  0.00     0.149 C 
HETATM   21  C   UNL     1     -10.711   3.774 -33.910  1.00  0.00    -0.007 A 
HETATM   22  C   UNL     1     -11.569   4.494 -33.076  1.00  0.00     0.083 A 
HETATM   23  C   UNL     1      -9.547   4.397 -34.391  1.00  0.00     0.011 A 
HETATM   24  C   UNL     1     -11.265   5.807 -32.713  1.00  0.00     0.038 A 
HETATM   25  O   UNL     1     -12.735   3.980 -32.565  1.00  0.00    -0.310 OA
HETATM   26  C   UNL     1     -10.105   6.417 -33.192  1.00  0.00     0.003 A 
HETATM   27  C   UNL     1      -9.246   5.711 -34.033  1.00  0.00     0.001 A 
HETATM   28  C   UNL     1     -13.194   2.783 -33.059  1.00  0.00     0.083 A 
HETATM   29  C   UNL     1     -12.437   1.950 -33.888  1.00  0.00    -0.007 A 
HETATM   30  C   UNL     1     -14.487   2.418 -32.678  1.00  0.00     0.038 A 
HETATM   31  C   UNL     1     -13.001   0.747 -34.343  1.00  0.00     0.011 A 
HETATM   32  C   UNL     1     -14.295   0.386 -33.965  1.00  0.00     0.001 A 
HETATM   33  C   UNL     1     -15.037   1.220 -33.132  1.00  0.00     0.003 A 
ENDBRANCH   2  20
TORSDOF 5
ENDMDL
MODEL 9
REMARK VINA RESULT:      -9.0      2.453      7.128
REMARK  5 active torsions:
REMARK  status: ('A' for Active; 'I' for Inactive)
REMARK    1  A    between atoms: C_4  and  C_5 
REMARK    2  A    between atoms: N_7  and  C_8 
REMARK    3  A    between atoms: C_8  and  C_9 
REMARK    4  A    between atoms: C_9  and  N_10 
REMARK       I    between atoms: N_10  and  C_11 
REMARK    5  A    between atoms: C_11  and  C_12 
ROOT
HETATM    1  N   UNL     1      -3.443   1.450 -32.486  1.00  0.00    -0.359 N 
HETATM    2  C   UNL     1      -3.627   2.716 -31.971  1.00  0.00     0.230 C 
HETATM    3  O   UNL     1      -3.747   2.927 -30.763  1.00  0.00    -0.272 OA
HETATM    4  H   UNL     1      -3.510   1.333 -33.491  1.00  0.00     0.162 HD
ENDROOT
BRANCH   1   5
HETATM    5  C   UNL     1      -3.538   0.252 -31.667  1.00  0.00     0.144 C 
BRANCH   5   6
HETATM    6  C   UNL     1      -3.502  -1.068 -32.442  1.00  0.00     0.174 C 
BRANCH   6   7
HETATM    7  N   UNL     1      -4.797  -1.362 -33.053  1.00  0.00    -0.233 N 
HETATM    8  N   UNL     1      -5.820  -0.491 -32.747  1.00  0.00    -0.169 NA
HETATM    9  C   UNL     1      -6.976  -0.681 -33.307  1.00  0.00     0.087 A 
HETATM   10  C   UNL     1      -7.269  -1.805 -34.224  1.00  0.00     0.040 A 
HETATM   11  C   UNL     1      -6.253  -2.606 -34.543  1.00  0.00     0.078 A 
HETATM   12  C   UNL     1      -4.903  -2.382 -33.988  1.00  0.00     0.263 A 
HETATM   13  O   UNL     1      -3.978  -3.097 -34.365  1.00  0.00    -0.267 OA
BRANCH   9  14
HETATM   14  C   UNL     1      -8.092   0.262 -33.003  1.00  0.00    -0.006 A 
HETATM   15  C   UNL     1      -9.137   0.494 -33.907  1.00  0.00     0.014 A 
HETATM   16  C   UNL     1     -10.156   1.395 -33.587  1.00  0.00     0.001 A 
HETATM   17  C   UNL     1     -10.133   2.075 -32.370  1.00  0.00     0.000 A 
HETATM   18  C   UNL     1      -9.087   1.862 -31.472  1.00  0.00     0.001 A 
HETATM   19  C   UNL     1      -8.067   0.963 -31.789  1.00  0.00     0.014 A 
ENDBRANCH   9  14
ENDBRANCH   6   7
ENDBRANCH   5   6
ENDBRANCH   1   5
BRANCH   2  20
HETATM   20  C   UNL     1      -3.746   3.862 -32.995  1.00  0.00     0.149 C 
HETATM   21  C   UNL     1      -2.853   5.014 -32.596  1.00  0.00    -0.007 A 
HETATM   22  C   UNL     1      -3.409   6.245 -32.243  1.00  0.00     0.083 A 
HETATM   23  C   UNL     1      -1.457   4.860 -32.556  1.00  0.00     0.011 A 
HETATM   24  C   UNL     1      -2.589   7.302 -31.842  1.00  0.00     0.038 A 
HETATM   25  O   UNL     1      -4.758   6.499 -32.261  1.00  0.00    -0.310 OA
HETATM   26  C   UNL     1      -1.204   7.140 -31.801  1.00  0.00     0.003 A 
HETATM   27  C   UNL     1      -0.638   5.918 -32.161  1.00  0.00     0.001 A 
HETATM   28  C   UNL     1      -5.589   5.579 -32.852  1.00  0.00     0.083 A 
HETATM   29  C   UNL     1      -5.174   4.302 -33.239  1.00  0.00    -0.007 A 
HETATM   30  C   UNL     1      -6.911   5.983 -33.048  1.00  0.00     0.038 A 
HETATM   31  C   UNL     1      -6.102   3.436 -33.840  1.00  0.00     0.011 A 
HETATM   32  C   UNL     1      -7.422   3.844 -34.039  1.00  0.00     0.001 A 
HETATM   33  C   UNL     1      -7.827   5.116 -33.643  1.00  0.00     0.003 A 
ENDBRANCH   2  20
TORSDOF 5
ENDMDL
MODEL 10
REMARK VINA RESULT:      -8.7      2.314      5.570
REMARK  5 active torsions:
REMARK  status: ('A' for Active; 'I' for Inactive)
REMARK    1  A    between atoms: C_4  and  C_5 
REMARK    2  A    between atoms: N_7  and  C_8 
REMARK    3  A    between atoms: C_8  and  C_9 
REMARK    4  A    between atoms: C_9  and  N_10 
REMARK       I    between atoms: N_10  and  C_11 
REMARK    5  A    between atoms: C_11  and  C_12 
ROOT
HETATM    1  N   UNL     1      -7.302   5.409 -32.647  1.00  0.00    -0.359 N 
HETATM    2  C   UNL     1      -6.077   4.862 -32.966  1.00  0.00     0.230 C 
HETATM    3  O   UNL     1      -5.786   4.515 -34.112  1.00  0.00    -0.272 OA
HETATM    4  H   UNL     1      -7.528   5.524 -31.666  1.00  0.00     0.162 HD
ENDROOT
BRANCH   1   5
HETATM    5  C   UNL     1      -8.402   5.470 -33.597  1.00  0.00     0.144 C 
BRANCH   5   6
HETATM    6  C   UNL     1      -9.770   5.080 -33.031  1.00  0.00     0.174 C 
BRANCH   6   7
HETATM    7  N   UNL     1     -10.060   3.667 -33.264  1.00  0.00    -0.233 N 
HETATM    8  N   UNL     1      -8.965   2.845 -33.424  1.00  0.00    -0.169 NA
HETATM    9  C   UNL     1      -9.171   1.573 -33.582  1.00  0.00     0.087 A 
HETATM   10  C   UNL     1     -10.516   0.960 -33.641  1.00  0.00     0.040 A 
HETATM   11  C   UNL     1     -11.558   1.766 -33.436  1.00  0.00     0.078 A 
HETATM   12  C   UNL     1     -11.366   3.207 -33.177  1.00  0.00     0.263 A 
HETATM   13  O   UNL     1     -12.346   3.901 -32.919  1.00  0.00    -0.267 OA
BRANCH   9  14
HETATM   14  C   UNL     1      -7.998   0.663 -33.739  1.00  0.00    -0.006 A 
HETATM   15  C   UNL     1      -6.715   1.147 -34.030  1.00  0.00     0.014 A 
HETATM   16  C   UNL     1      -5.647   0.259 -34.181  1.00  0.00     0.001 A 
HETATM   17  C   UNL     1      -5.854  -1.113 -34.050  1.00  0.00     0.000 A 
HETATM   18  C   UNL     1      -7.131  -1.604 -33.777  1.00  0.00     0.001 A 
HETATM   19  C   UNL     1      -8.200  -0.720 -33.626  1.00  0.00     0.014 A 
ENDBRANCH   9  14
ENDBRANCH   6   7
ENDBRANCH   5   6
ENDBRANCH   1   5
BRANCH   2  20
HETATM   20  C   UNL     1      -5.101   4.639 -31.795  1.00  0.00     0.149 C 
HETATM   21  C   UNL     1      -3.752   5.240 -32.117  1.00  0.00    -0.007 A 
HETATM   22  C   UNL     1      -2.631   4.420 -32.256  1.00  0.00     0.083 A 
HETATM   23  C   UNL     1      -3.608   6.627 -32.300  1.00  0.00     0.011 A 
HETATM   24  C   UNL     1      -1.390   4.968 -32.587  1.00  0.00     0.038 A 
HETATM   25  O   UNL     1      -2.664   3.058 -32.086  1.00  0.00    -0.310 OA
HETATM   26  C   UNL     1      -1.257   6.344 -32.771  1.00  0.00     0.003 A 
HETATM   27  C   UNL     1      -2.367   7.174 -32.625  1.00  0.00     0.001 A 
HETATM   28  C   UNL     1      -3.796   2.494 -31.549  1.00  0.00     0.083 A 
HETATM   29  C   UNL     1      -4.995   3.190 -31.371  1.00  0.00    -0.007 A 
HETATM   30  C   UNL     1      -3.698   1.149 -31.187  1.00  0.00     0.038 A 
HETATM   31  C   UNL     1      -6.094   2.521 -30.808  1.00  0.00     0.011 A 
HETATM   32  C   UNL     1      -5.992   1.179 -30.441  1.00  0.00     0.001 A 
HETATM   33  C   UNL     1      -4.795   0.492 -30.631  1.00  0.00     0.003 A 
ENDBRANCH   2  20
TORSDOF 5
ENDMDL
