MODEL 1
REMARK VINA RESULT:      -9.6      0.000      0.000
REMARK  5 active torsions:
REMARK  status: ('A' for Active; 'I' for Inactive)
REMARK    1  A    between atoms: O_2  and  C_3 
REMARK    2  A    between atoms: C_6  and  N_7 
REMARK    3  A    between atoms: C_11  and  C_12 
REMARK    4  A    between atoms: C_12  and  N_13 
REMARK       I    between atoms: N_13  and  C_14 
REMARK    5  A    between atoms: C_14  and  C_15 
ROOT
HETATM    1  N   UNL     1      -4.866   3.403 -33.256  1.00  0.00    -0.360 N 
HETATM    2  C   UNL     1      -5.405   3.159 -32.006  1.00  0.00     0.230 C 
HETATM    3  O   UNL     1      -5.378   3.994 -31.102  1.00  0.00    -0.272 OA
HETATM    4  H   UNL     1      -4.800   2.627 -33.907  1.00  0.00     0.162 HD
ENDROOT
BRANCH   1   5
HETATM    5  C   UNL     1      -4.172   4.635 -33.570  1.00  0.00     0.129 C 
BRANCH   5   6
HETATM    6  C   UNL     1      -2.653   4.444 -33.705  1.00  0.00     0.031 C 
HETATM    7  C   UNL     1      -2.038   5.526 -34.583  1.00  0.00     0.111 C 
HETATM    8  C   UNL     1      -1.673   6.618 -33.607  1.00  0.00     0.224 C 
HETATM    9  N   UNL     1      -1.616   6.048 -32.326  1.00  0.00    -0.318 N 
HETATM   10  O   UNL     1      -1.433   7.762 -33.961  1.00  0.00    -0.273 OA
HETATM   11  C   UNL     1      -1.927   4.635 -32.381  1.00  0.00     0.139 C 
BRANCH   9  12
HETATM   12  C   UNL     1      -1.193   6.694 -31.131  1.00  0.00     0.037 A 
HETATM   13  C   UNL     1      -2.103   7.288 -30.247  1.00  0.00     0.032 A 
HETATM   14  C   UNL     1      -1.677   7.917 -29.066  1.00  0.00     0.039 A 
HETATM   15  C   UNL     1      -0.326   7.965 -28.742  1.00  0.00     0.068 A 
HETATM   16  C   UNL     1       0.593   7.388 -29.616  1.00  0.00     0.039 A 
HETATM   17  C   UNL     1       0.167   6.760 -30.794  1.00  0.00     0.032 A 
BRANCH  15  18
HETATM   18  O   UNL     1       0.218   8.537 -27.628  1.00  0.00    -0.356 OA
HETATM   19  C   UNL     1       1.631   8.708 -27.622  1.00  0.00     0.210 C 
ENDBRANCH  15  18
ENDBRANCH   9  12
ENDBRANCH   5   6
ENDBRANCH   1   5
BRANCH   2  20
HETATM   20  C   UNL     1      -6.035   1.773 -31.806  1.00  0.00     0.149 C 
HETATM   21  C   UNL     1      -5.010   0.681 -32.004  1.00  0.00    -0.007 A 
HETATM   22  C   UNL     1      -5.156  -0.240 -33.044  1.00  0.00     0.083 A 
HETATM   23  C   UNL     1      -3.897   0.579 -31.154  1.00  0.00     0.011 A 
HETATM   24  C   UNL     1      -4.201  -1.240 -33.241  1.00  0.00     0.038 A 
HETATM   25  O   UNL     1      -6.209  -0.230 -33.925  1.00  0.00    -0.310 OA
HETATM   26  C   UNL     1      -3.097  -1.332 -32.394  1.00  0.00     0.003 A 
HETATM   27  C   UNL     1      -2.946  -0.422 -31.350  1.00  0.00     0.001 A 
HETATM   28  C   UNL     1      -7.266   0.612 -33.676  1.00  0.00     0.083 A 
HETATM   29  C   UNL     1      -7.260   1.585 -32.674  1.00  0.00    -0.007 A 
HETATM   30  C   UNL     1      -8.383   0.454 -34.498  1.00  0.00     0.038 A 
HETATM   31  C   UNL     1      -8.395   2.391 -32.497  1.00  0.00     0.011 A 
HETATM   32  C   UNL     1      -9.512   2.229 -33.318  1.00  0.00     0.001 A 
HETATM   33  C   UNL     1      -9.506   1.261 -34.320  1.00  0.00     0.003 A 
ENDBRANCH   2  20
TORSDOF 5
ENDMDL
MODEL 2
REMARK VINA RESULT:      -9.3      1.732      2.588
REMARK  5 active torsions:
REMARK  status: ('A' for Active; 'I' for Inactive)
REMARK    1  A    between atoms: O_2  and  C_3 
REMARK    2  A    between atoms: C_6  and  N_7 
REMARK    3  A    between atoms: C_11  and  C_12 
REMARK    4  A    between atoms: C_12  and  N_13 
REMARK       I    between atoms: N_13  and  C_14 
REMARK    5  A    between atoms: C_14  and  C_15 
ROOT
HETATM    1  N   UNL     1      -4.097   2.489 -32.499  1.00  0.00    -0.360 N 
HETATM    2  C   UNL     1      -3.964   1.397 -31.662  1.00  0.00     0.230 C 
HETATM    3  O   UNL     1      -2.888   1.086 -31.150  1.00  0.00    -0.272 OA
HETATM    4  H   UNL     1      -4.977   2.608 -32.992  1.00  0.00     0.162 HD
ENDROOT
BRANCH   1   5
HETATM    5  C   UNL     1      -2.966   3.307 -32.886  1.00  0.00     0.129 C 
BRANCH   5   6
HETATM    6  C   UNL     1      -3.336   4.790 -33.055  1.00  0.00     0.031 C 
HETATM    7  C   UNL     1      -4.489   5.177 -32.138  1.00  0.00     0.111 C 
HETATM    8  C   UNL     1      -3.806   5.636 -30.873  1.00  0.00     0.224 C 
HETATM    9  N   UNL     1      -2.475   5.947 -31.193  1.00  0.00    -0.318 N 
HETATM   10  O   UNL     1      -4.396   5.741 -29.809  1.00  0.00    -0.273 OA
HETATM   11  C   UNL     1      -2.220   5.719 -32.600  1.00  0.00     0.139 C 
BRANCH   9  12
HETATM   12  C   UNL     1      -1.511   6.529 -30.323  1.00  0.00     0.037 A 
HETATM   13  C   UNL     1      -1.687   7.803 -29.769  1.00  0.00     0.032 A 
HETATM   14  C   UNL     1      -0.734   8.367 -28.905  1.00  0.00     0.039 A 
HETATM   15  C   UNL     1       0.420   7.664 -28.575  1.00  0.00     0.068 A 
HETATM   16  C   UNL     1       0.614   6.400 -29.126  1.00  0.00     0.039 A 
HETATM   17  C   UNL     1      -0.337   5.839 -29.987  1.00  0.00     0.032 A 
BRANCH  15  18
HETATM   18  O   UNL     1       1.418   8.093 -27.746  1.00  0.00    -0.356 OA
HETATM   19  C   UNL     1       1.366   7.641 -26.398  1.00  0.00     0.210 C 
ENDBRANCH  15  18
ENDBRANCH   9  12
ENDBRANCH   5   6
ENDBRANCH   1   5
BRANCH   2  20
HETATM   20  C   UNL     1      -5.242   0.582 -31.413  1.00  0.00     0.149 C 
HETATM   21  C   UNL     1      -5.509  -0.366 -32.558  1.00  0.00    -0.007 A 
HETATM   22  C   UNL     1      -6.660  -0.222 -33.336  1.00  0.00     0.083 A 
HETATM   23  C   UNL     1      -4.604  -1.397 -32.861  1.00  0.00     0.011 A 
HETATM   24  C   UNL     1      -6.901  -1.086 -34.407  1.00  0.00     0.038 A 
HETATM   25  O   UNL     1      -7.606   0.748 -33.119  1.00  0.00    -0.310 OA
HETATM   26  C   UNL     1      -5.996  -2.105 -34.704  1.00  0.00     0.003 A 
HETATM   27  C   UNL     1      -4.848  -2.261 -33.929  1.00  0.00     0.001 A 
HETATM   28  C   UNL     1      -7.517   1.510 -31.979  1.00  0.00     0.083 A 
HETATM   29  C   UNL     1      -6.425   1.475 -31.110  1.00  0.00    -0.007 A 
HETATM   30  C   UNL     1      -8.599   2.354 -31.720  1.00  0.00     0.038 A 
HETATM   31  C   UNL     1      -6.434   2.290 -29.967  1.00  0.00     0.011 A 
HETATM   32  C   UNL     1      -7.518   3.130 -29.707  1.00  0.00     0.001 A 
HETATM   33  C   UNL     1      -8.600   3.164 -30.585  1.00  0.00     0.003 A 
ENDBRANCH   2  20
TORSDOF 5
ENDMDL
MODEL 3
REMARK VINA RESULT:      -9.2      2.858      7.768
REMARK  5 active torsions:
REMARK  status: ('A' for Active; 'I' for Inactive)
REMARK    1  A    between atoms: O_2  and  C_3 
REMARK    2  A    between atoms: C_6  and  N_7 
REMARK    3  A    between atoms: C_11  and  C_12 
REMARK    4  A    between atoms: C_12  and  N_13 
REMARK       I    between atoms: N_13  and  C_14 
REMARK    5  A    between atoms: C_14  and  C_15 
ROOT
HETATM    1  N   UNL     1      -7.195   5.131 -30.749  1.00  0.00    -0.360 N 
HETATM    2  C   UNL     1      -6.082   4.812 -31.504  1.00  0.00     0.230 C 
HETATM    3  O   UNL     1      -6.076   4.881 -32.733  1.00  0.00    -0.272 OA
HETATM    4  H   UNL     1      -7.175   4.922 -29.756  1.00  0.00     0.162 HD
ENDROOT
BRANCH   1   5
HETATM    5  C   UNL     1      -8.457   5.506 -31.356  1.00  0.00     0.129 C 
BRANCH   5   6
HETATM    6  C   UNL     1      -9.518   4.399 -31.254  1.00  0.00     0.031 C 
HETATM    7  C   UNL     1     -10.394   4.361 -32.500  1.00  0.00     0.111 C 
HETATM    8  C   UNL     1      -9.679   3.398 -33.415  1.00  0.00     0.224 C 
HETATM    9  N   UNL     1      -8.814   2.621 -32.629  1.00  0.00    -0.318 N 
HETATM   10  O   UNL     1      -9.910   3.335 -34.613  1.00  0.00    -0.273 OA
HETATM   11  C   UNL     1      -8.901   3.008 -31.236  1.00  0.00     0.139 C 
BRANCH   9  12
HETATM   12  C   UNL     1      -8.038   1.512 -33.069  1.00  0.00     0.037 A 
HETATM   13  C   UNL     1      -6.772   1.676 -33.646  1.00  0.00     0.032 A 
HETATM   14  C   UNL     1      -6.009   0.577 -34.071  1.00  0.00     0.039 A 
HETATM   15  C   UNL     1      -6.499  -0.717 -33.926  1.00  0.00     0.068 A 
HETATM   16  C   UNL     1      -7.761  -0.896 -33.364  1.00  0.00     0.039 A 
HETATM   17  C   UNL     1      -8.520   0.202 -32.940  1.00  0.00     0.032 A 
BRANCH  15  18
HETATM   18  O   UNL     1      -5.860  -1.868 -34.290  1.00  0.00    -0.356 OA
HETATM   19  C   UNL     1      -4.492  -1.985 -33.916  1.00  0.00     0.210 C 
ENDBRANCH  15  18
ENDBRANCH   9  12
ENDBRANCH   5   6
ENDBRANCH   1   5
BRANCH   2  20
HETATM   20  C   UNL     1      -4.846   4.353 -30.715  1.00  0.00     0.149 C 
HETATM   21  C   UNL     1      -3.602   5.056 -31.205  1.00  0.00    -0.007 A 
HETATM   22  C   UNL     1      -2.564   4.323 -31.784  1.00  0.00     0.083 A 
HETATM   23  C   UNL     1      -3.473   6.450 -31.091  1.00  0.00     0.011 A 
HETATM   24  C   UNL     1      -1.419   4.971 -32.255  1.00  0.00     0.038 A 
HETATM   25  O   UNL     1      -2.590   2.959 -31.936  1.00  0.00    -0.310 OA
HETATM   26  C   UNL     1      -1.301   6.356 -32.142  1.00  0.00     0.003 A 
HETATM   27  C   UNL     1      -2.328   7.095 -31.559  1.00  0.00     0.001 A 
HETATM   28  C   UNL     1      -3.602   2.250 -31.336  1.00  0.00     0.083 A 
HETATM   29  C   UNL     1      -4.705   2.847 -30.722  1.00  0.00    -0.007 A 
HETATM   30  C   UNL     1      -3.482   0.859 -31.371  1.00  0.00     0.038 A 
HETATM   31  C   UNL     1      -5.683   2.032 -30.130  1.00  0.00     0.011 A 
HETATM   32  C   UNL     1      -5.558   0.643 -30.163  1.00  0.00     0.001 A 
HETATM   33  C   UNL     1      -4.459   0.055 -30.785  1.00  0.00     0.003 A 
ENDBRANCH   2  20
TORSDOF 5
ENDMDL
MODEL 4
REMARK VINA RESULT:      -9.0      2.226      8.585
REMARK  5 active torsions:
REMARK  status: ('A' for Active; 'I' for Inactive)
REMARK    1  A    between atoms: O_2  and  C_3 
REMARK    2  A    between atoms: C_6  and  N_7 
REMARK    3  A    between atoms: C_11  and  C_12 
REMARK    4  A    between atoms: C_12  and  N_13 
REMARK       I    between atoms: N_13  and  C_14 
REMARK    5  A    between atoms: C_14  and  C_15 
ROOT
HETATM    1  N   UNL     1      -6.242   4.333 -30.735  1.00  0.00    -0.360 N 
HETATM    2  C   UNL     1      -4.881   4.374 -30.971  1.00  0.00     0.230 C 
HETATM    3  O   UNL     1      -4.166   3.375 -30.887  1.00  0.00    -0.272 OA
HETATM    4  H   UNL     1      -6.745   5.213 -30.687  1.00  0.00     0.162 HD
ENDROOT
BRANCH   1   5
HETATM    5  C   UNL     1      -6.915   3.123 -30.307  1.00  0.00     0.129 C 
BRANCH   5   6
HETATM    6  C   UNL     1      -8.007   2.672 -31.289  1.00  0.00     0.031 C 
HETATM    7  C   UNL     1      -7.849   3.358 -32.640  1.00  0.00     0.111 C 
HETATM    8  C   UNL     1      -6.958   2.421 -33.419  1.00  0.00     0.224 C 
HETATM    9  N   UNL     1      -7.015   1.162 -32.800  1.00  0.00    -0.318 N 
HETATM   10  O   UNL     1      -6.367   2.765 -34.430  1.00  0.00    -0.273 OA
HETATM   11  C   UNL     1      -7.889   1.197 -31.647  1.00  0.00     0.139 C 
BRANCH   9  12
HETATM   12  C   UNL     1      -6.420  -0.040 -33.275  1.00  0.00     0.037 A 
HETATM   13  C   UNL     1      -5.131  -0.432 -32.890  1.00  0.00     0.032 A 
HETATM   14  C   UNL     1      -4.554  -1.624 -33.356  1.00  0.00     0.039 A 
HETATM   15  C   UNL     1      -5.257  -2.454 -34.222  1.00  0.00     0.068 A 
HETATM   16  C   UNL     1      -6.536  -2.073 -34.623  1.00  0.00     0.039 A 
HETATM   17  C   UNL     1      -7.110  -0.884 -34.156  1.00  0.00     0.032 A 
BRANCH  15  18
HETATM   18  O   UNL     1      -4.817  -3.637 -34.743  1.00  0.00    -0.356 OA
HETATM   19  C   UNL     1      -3.855  -4.353 -33.977  1.00  0.00     0.210 C 
ENDBRANCH  15  18
ENDBRANCH   9  12
ENDBRANCH   5   6
ENDBRANCH   1   5
BRANCH   2  20
HETATM   20  C   UNL     1      -4.305   5.750 -31.338  1.00  0.00     0.149 C 
HETATM   21  C   UNL     1      -3.447   5.663 -32.579  1.00  0.00    -0.007 A 
HETATM   22  C   UNL     1      -2.083   5.954 -32.512  1.00  0.00     0.083 A 
HETATM   23  C   UNL     1      -4.005   5.284 -33.811  1.00  0.00     0.011 A 
HETATM   24  C   UNL     1      -1.283   5.857 -33.653  1.00  0.00     0.038 A 
HETATM   25  O   UNL     1      -1.444   6.337 -31.359  1.00  0.00    -0.310 OA
HETATM   26  C   UNL     1      -1.844   5.477 -34.872  1.00  0.00     0.003 A 
HETATM   27  C   UNL     1      -3.206   5.192 -34.950  1.00  0.00     0.001 A 
HETATM   28  C   UNL     1      -2.203   6.622 -30.250  1.00  0.00     0.083 A 
HETATM   29  C   UNL     1      -3.577   6.380 -30.171  1.00  0.00    -0.007 A 
HETATM   30  C   UNL     1      -1.521   7.177 -29.165  1.00  0.00     0.038 A 
HETATM   31  C   UNL     1      -4.263   6.714 -28.993  1.00  0.00     0.011 A 
HETATM   32  C   UNL     1      -3.580   7.272 -27.912  1.00  0.00     0.001 A 
HETATM   33  C   UNL     1      -2.208   7.502 -27.996  1.00  0.00     0.003 A 
ENDBRANCH   2  20
TORSDOF 5
ENDMDL
MODEL 5
REMARK VINA RESULT:      -8.9      2.026      3.890
REMARK  5 active torsions:
REMARK  status: ('A' for Active; 'I' for Inactive)
REMARK    1  A    between atoms: O_2  and  C_3 
REMARK    2  A    between atoms: C_6  and  N_7 
REMARK    3  A    between atoms: C_11  and  C_12 
REMARK    4  A    between atoms: C_12  and  N_13 
REMARK       I    between atoms: N_13  and  C_14 
REMARK    5  A    between atoms: C_14  and  C_15 
ROOT
HETATM    1  N   UNL     1      -4.880   4.435 -33.111  1.00  0.00    -0.360 N 
HETATM    2  C   UNL     1      -6.261   4.480 -33.152  1.00  0.00     0.230 C 
HETATM    3  O   UNL     1      -6.881   4.805 -34.164  1.00  0.00    -0.272 OA
HETATM    4  H   UNL     1      -4.433   4.293 -32.210  1.00  0.00     0.162 HD
ENDROOT
BRANCH   1   5
HETATM    5  C   UNL     1      -4.061   4.830 -34.240  1.00  0.00     0.129 C 
BRANCH   5   6
HETATM    6  C   UNL     1      -2.589   4.419 -34.078  1.00  0.00     0.031 C 
HETATM    7  C   UNL     1      -1.662   5.414 -34.764  1.00  0.00     0.111 C 
HETATM    8  C   UNL     1      -1.353   6.423 -33.684  1.00  0.00     0.224 C 
HETATM    9  N   UNL     1      -1.640   5.827 -32.447  1.00  0.00    -0.318 N 
HETATM   10  O   UNL     1      -0.888   7.525 -33.929  1.00  0.00    -0.273 OA
HETATM   11  C   UNL     1      -2.129   4.477 -32.629  1.00  0.00     0.139 C 
BRANCH   9  12
HETATM   12  C   UNL     1      -1.382   6.382 -31.162  1.00  0.00     0.037 A 
HETATM   13  C   UNL     1      -2.415   6.694 -30.268  1.00  0.00     0.032 A 
HETATM   14  C   UNL     1      -2.152   7.234 -28.999  1.00  0.00     0.039 A 
HETATM   15  C   UNL     1      -0.843   7.475 -28.595  1.00  0.00     0.068 A 
HETATM   16  C   UNL     1       0.194   7.180 -29.476  1.00  0.00     0.039 A 
HETATM   17  C   UNL     1      -0.070   6.641 -30.741  1.00  0.00     0.032 A 
BRANCH  15  18
HETATM   18  O   UNL     1      -0.451   7.989 -27.392  1.00  0.00    -0.356 OA
HETATM   19  C   UNL     1       0.180   7.089 -26.488  1.00  0.00     0.210 C 
ENDBRANCH  15  18
ENDBRANCH   9  12
ENDBRANCH   5   6
ENDBRANCH   1   5
BRANCH   2  20
HETATM   20  C   UNL     1      -6.983   4.110 -31.847  1.00  0.00     0.149 C 
HETATM   21  C   UNL     1      -6.603   5.057 -30.733  1.00  0.00    -0.007 A 
HETATM   22  C   UNL     1      -5.930   4.581 -29.605  1.00  0.00     0.083 A 
HETATM   23  C   UNL     1      -6.914   6.424 -30.816  1.00  0.00     0.011 A 
HETATM   24  C   UNL     1      -5.561   5.457 -28.581  1.00  0.00     0.038 A 
HETATM   25  O   UNL     1      -5.586   3.264 -29.426  1.00  0.00    -0.310 OA
HETATM   26  C   UNL     1      -5.870   6.813 -28.673  1.00  0.00     0.003 A 
HETATM   27  C   UNL     1      -6.548   7.296 -29.791  1.00  0.00     0.001 A 
HETATM   28  C   UNL     1      -6.075   2.331 -30.308  1.00  0.00     0.083 A 
HETATM   29  C   UNL     1      -6.762   2.660 -31.478  1.00  0.00    -0.007 A 
HETATM   30  C   UNL     1      -5.843   0.994 -29.977  1.00  0.00     0.038 A 
HETATM   31  C   UNL     1      -7.228   1.629 -32.310  1.00  0.00     0.011 A 
HETATM   32  C   UNL     1      -6.999   0.294 -31.976  1.00  0.00     0.001 A 
HETATM   33  C   UNL     1      -6.304  -0.024 -30.810  1.00  0.00     0.003 A 
ENDBRANCH   2  20
TORSDOF 5
ENDMDL
MODEL 6
REMARK VINA RESULT:      -8.8      1.610      2.555
REMARK  5 active torsions:
REMARK  status: ('A' for Active; 'I' for Inactive)
REMARK    1  A    between atoms: O_2  and  C_3 
REMARK    2  A    between atoms: C_6  and  N_7 
REMARK    3  A    between atoms: C_11  and  C_12 
REMARK    4  A    between atoms: C_12  and  N_13 
REMARK       I    between atoms: N_13  and  C_14 
REMARK    5  A    between atoms: C_14  and  C_15 
ROOT
HETATM    1  N   UNL     1      -4.544   3.814 -33.028  1.00  0.00    -0.360 N 
HETATM    2  C   UNL     1      -5.823   3.339 -33.245  1.00  0.00     0.230 C 
HETATM    3  O   UNL     1      -6.504   3.694 -34.207  1.00  0.00    -0.272 OA
HETATM    4  H   UNL     1      -4.093   3.586 -32.147  1.00  0.00     0.162 HD
ENDROOT
BRANCH   1   5
HETATM    5  C   UNL     1      -3.936   4.813 -33.883  1.00  0.00     0.129 C 
BRANCH   5   6
HETATM    6  C   UNL     1      -2.401   4.749 -33.874  1.00  0.00     0.031 C 
HETATM    7  C   UNL     1      -1.795   5.981 -34.534  1.00  0.00     0.111 C 
HETATM    8  C   UNL     1      -1.621   6.953 -33.393  1.00  0.00     0.224 C 
HETATM    9  N   UNL     1      -1.644   6.219 -32.197  1.00  0.00    -0.318 N 
HETATM   10  O   UNL     1      -1.444   8.149 -33.569  1.00  0.00    -0.273 OA
HETATM   11  C   UNL     1      -1.828   4.808 -32.465  1.00  0.00     0.139 C 
BRANCH   9  12
HETATM   12  C   UNL     1      -1.397   6.725 -30.890  1.00  0.00     0.037 A 
HETATM   13  C   UNL     1      -0.104   7.031 -30.446  1.00  0.00     0.032 A 
HETATM   14  C   UNL     1       0.131   7.537 -29.158  1.00  0.00     0.039 A 
HETATM   15  C   UNL     1      -0.928   7.751 -28.282  1.00  0.00     0.068 A 
HETATM   16  C   UNL     1      -2.218   7.442 -28.705  1.00  0.00     0.039 A 
HETATM   17  C   UNL     1      -2.451   6.937 -29.990  1.00  0.00     0.032 A 
BRANCH  15  18
HETATM   18  O   UNL     1      -0.838   8.242 -27.011  1.00  0.00    -0.356 OA
HETATM   19  C   UNL     1      -2.063   8.553 -26.358  1.00  0.00     0.210 C 
ENDBRANCH  15  18
ENDBRANCH   9  12
ENDBRANCH   5   6
ENDBRANCH   1   5
BRANCH   2  20
HETATM   20  C   UNL     1      -6.355   2.344 -32.203  1.00  0.00     0.149 C 
HETATM   21  C   UNL     1      -6.555   0.977 -32.814  1.00  0.00    -0.007 A 
HETATM   22  C   UNL     1      -7.834   0.419 -32.885  1.00  0.00     0.083 A 
HETATM   23  C   UNL     1      -5.465   0.253 -33.324  1.00  0.00     0.011 A 
HETATM   24  C   UNL     1      -8.025  -0.837 -33.467  1.00  0.00     0.038 A 
HETATM   25  O   UNL     1      -8.961   1.042 -32.411  1.00  0.00    -0.310 OA
HETATM   26  C   UNL     1      -6.938  -1.548 -33.974  1.00  0.00     0.003 A 
HETATM   27  C   UNL     1      -5.657  -1.002 -33.901  1.00  0.00     0.001 A 
HETATM   28  C   UNL     1      -8.816   2.192 -31.673  1.00  0.00     0.083 A 
HETATM   29  C   UNL     1      -7.601   2.862 -31.518  1.00  0.00    -0.007 A 
HETATM   30  C   UNL     1      -9.974   2.682 -31.067  1.00  0.00     0.038 A 
HETATM   31  C   UNL     1      -7.557   4.027 -30.736  1.00  0.00     0.011 A 
HETATM   32  C   UNL     1      -8.716   4.513 -30.129  1.00  0.00     0.001 A 
HETATM   33  C   UNL     1      -9.925   3.842 -30.296  1.00  0.00     0.003 A 
ENDBRANCH   2  20
TORSDOF 5
ENDMDL
MODEL 7
REMARK VINA RESULT:      -8.7      2.480      8.876
REMARK  5 active torsions:
REMARK  status: ('A' for Active; 'I' for Inactive)
REMARK    1  A    between atoms: O_2  and  C_3 
REMARK    2  A    between atoms: C_6  and  N_7 
REMARK    3  A    between atoms: C_11  and  C_12 
REMARK    4  A    between atoms: C_12  and  N_13 
REMARK       I    between atoms: N_13  and  C_14 
REMARK    5  A    between atoms: C_14  and  C_15 
ROOT
HETATM    1  N   UNL     1      -3.926   4.299 -30.840  1.00  0.00    -0.360 N 
HETATM    2  C   UNL     1      -3.668   5.285 -31.774  1.00  0.00     0.230 C 
HETATM    3  O   UNL     1      -3.650   5.059 -32.984  1.00  0.00    -0.272 OA
HETATM    4  H   UNL     1      -3.791   4.523 -29.859  1.00  0.00     0.162 HD
ENDROOT
BRANCH   1   5
HETATM    5  C   UNL     1      -4.131   2.915 -31.216  1.00  0.00     0.129 C 
BRANCH   5   6
HETATM    6  C   UNL     1      -5.599   2.477 -31.093  1.00  0.00     0.031 C 
HETATM    7  C   UNL     1      -6.439   3.040 -32.233  1.00  0.00     0.111 C 
HETATM    8  C   UNL     1      -6.358   1.976 -33.300  1.00  0.00     0.224 C 
HETATM    9  N   UNL     1      -5.964   0.778 -32.682  1.00  0.00    -0.318 N 
HETATM   10  O   UNL     1      -6.651   2.191 -34.466  1.00  0.00    -0.273 OA
HETATM   11  C   UNL     1      -5.770   0.974 -31.261  1.00  0.00     0.139 C 
BRANCH   9  12
HETATM   12  C   UNL     1      -5.878  -0.502 -33.299  1.00  0.00     0.037 A 
HETATM   13  C   UNL     1      -7.004  -1.147 -33.826  1.00  0.00     0.032 A 
HETATM   14  C   UNL     1      -6.911  -2.407 -34.439  1.00  0.00     0.039 A 
HETATM   15  C   UNL     1      -5.682  -3.050 -34.540  1.00  0.00     0.068 A 
HETATM   16  C   UNL     1      -4.554  -2.426 -34.012  1.00  0.00     0.039 A 
HETATM   17  C   UNL     1      -4.650  -1.169 -33.400  1.00  0.00     0.032 A 
BRANCH  15  18
HETATM   18  O   UNL     1      -5.452  -4.268 -35.115  1.00  0.00    -0.356 OA
HETATM   19  C   UNL     1      -4.692  -5.200 -34.355  1.00  0.00     0.210 C 
ENDBRANCH  15  18
ENDBRANCH   9  12
ENDBRANCH   5   6
ENDBRANCH   1   5
BRANCH   2  20
HETATM   20  C   UNL     1      -3.391   6.687 -31.210  1.00  0.00     0.149 C 
HETATM   21  C   UNL     1      -1.973   6.793 -30.699  1.00  0.00    -0.007 A 
HETATM   22  C   UNL     1      -1.731   7.028 -29.344  1.00  0.00     0.083 A 
HETATM   23  C   UNL     1      -0.883   6.650 -31.573  1.00  0.00     0.011 A 
HETATM   24  C   UNL     1      -0.421   7.109 -28.865  1.00  0.00     0.038 A 
HETATM   25  O   UNL     1      -2.726   7.187 -28.411  1.00  0.00    -0.310 OA
HETATM   26  C   UNL     1       0.656   6.963 -29.738  1.00  0.00     0.003 A 
HETATM   27  C   UNL     1       0.424   6.735 -31.094  1.00  0.00     0.001 A 
HETATM   28  C   UNL     1      -4.024   7.296 -28.847  1.00  0.00     0.083 A 
HETATM   29  C   UNL     1      -4.415   7.084 -30.170  1.00  0.00    -0.007 A 
HETATM   30  C   UNL     1      -4.970   7.634 -27.877  1.00  0.00     0.038 A 
HETATM   31  C   UNL     1      -5.769   7.227 -30.515  1.00  0.00     0.011 A 
HETATM   32  C   UNL     1      -6.712   7.569 -29.544  1.00  0.00     0.001 A 
HETATM   33  C   UNL     1      -6.313   7.770 -28.225  1.00  0.00     0.003 A 
ENDBRANCH   2  20
TORSDOF 5
ENDMDL
MODEL 8
REMARK VINA RESULT:      -8.5      2.860      4.719
REMARK  5 active torsions:
REMARK  status: ('A' for Active; 'I' for Inactive)
REMARK    1  A    between atoms: O_2  and  C_3 
REMARK    2  A    between atoms: C_6  and  N_7 
REMARK    3  A    between atoms: C_11  and  C_12 
REMARK    4  A    between atoms: C_12  and  N_13 
REMARK       I    between atoms: N_13  and  C_14 
REMARK    5  A    between atoms: C_14  and  C_15 
ROOT
HETATM    1  N   UNL     1      -3.954   2.200 -32.470  1.00  0.00    -0.360 N 
HETATM    2  C   UNL     1      -3.904   1.096 -31.640  1.00  0.00     0.230 C 
HETATM    3  O   UNL     1      -2.867   0.736 -31.083  1.00  0.00    -0.272 OA
HETATM    4  H   UNL     1      -4.804   2.360 -33.003  1.00  0.00     0.162 HD
ENDROOT
BRANCH   1   5
HETATM    5  C   UNL     1      -2.773   2.975 -32.795  1.00  0.00     0.129 C 
BRANCH   5   6
HETATM    6  C   UNL     1      -2.531   4.129 -31.810  1.00  0.00     0.031 C 
HETATM    7  C   UNL     1      -1.926   5.336 -32.515  1.00  0.00     0.111 C 
HETATM    8  C   UNL     1      -3.127   6.142 -32.945  1.00  0.00     0.224 C 
HETATM    9  N   UNL     1      -4.221   5.729 -32.169  1.00  0.00    -0.318 N 
HETATM   10  O   UNL     1      -3.061   7.019 -33.792  1.00  0.00    -0.273 OA
HETATM   11  C   UNL     1      -3.828   4.687 -31.243  1.00  0.00     0.139 C 
BRANCH   9  12
HETATM   12  C   UNL     1      -5.521   6.309 -32.164  1.00  0.00     0.037 A 
HETATM   13  C   UNL     1      -6.630   5.645 -32.702  1.00  0.00     0.032 A 
HETATM   14  C   UNL     1      -7.911   6.221 -32.686  1.00  0.00     0.039 A 
HETATM   15  C   UNL     1      -8.110   7.479 -32.127  1.00  0.00     0.068 A 
HETATM   16  C   UNL     1      -7.014   8.156 -31.597  1.00  0.00     0.039 A 
HETATM   17  C   UNL     1      -5.738   7.580 -31.613  1.00  0.00     0.032 A 
BRANCH  15  18
HETATM   18  O   UNL     1      -9.299   8.146 -32.042  1.00  0.00    -0.356 OA
HETATM   19  C   UNL     1      -9.495   9.219 -32.956  1.00  0.00     0.210 C 
ENDBRANCH  15  18
ENDBRANCH   9  12
ENDBRANCH   5   6
ENDBRANCH   1   5
BRANCH   2  20
HETATM   20  C   UNL     1      -5.225   0.332 -31.461  1.00  0.00     0.149 C 
HETATM   21  C   UNL     1      -5.480  -0.587 -32.632  1.00  0.00    -0.007 A 
HETATM   22  C   UNL     1      -6.589  -0.384 -33.456  1.00  0.00     0.083 A 
HETATM   23  C   UNL     1      -4.607  -1.651 -32.912  1.00  0.00     0.011 A 
HETATM   24  C   UNL     1      -6.818  -1.221 -34.550  1.00  0.00     0.038 A 
HETATM   25  O   UNL     1      -7.503   0.622 -33.264  1.00  0.00    -0.310 OA
HETATM   26  C   UNL     1      -5.945  -2.273 -34.824  1.00  0.00     0.003 A 
HETATM   27  C   UNL     1      -4.839  -2.488 -34.003  1.00  0.00     0.001 A 
HETATM   28  C   UNL     1      -7.432   1.363 -32.109  1.00  0.00     0.083 A 
HETATM   29  C   UNL     1      -6.382   1.270 -31.195  1.00  0.00    -0.007 A 
HETATM   30  C   UNL     1      -8.488   2.248 -31.883  1.00  0.00     0.038 A 
HETATM   31  C   UNL     1      -6.408   2.068 -30.040  1.00  0.00     0.011 A 
HETATM   32  C   UNL     1      -7.466   2.949 -29.814  1.00  0.00     0.001 A 
HETATM   33  C   UNL     1      -8.506   3.041 -30.737  1.00  0.00     0.003 A 
ENDBRANCH   2  20
TORSDOF 5
ENDMDL
MODEL 9
REMARK VINA RESULT:      -8.3      2.485      9.176
REMARK  5 active torsions:
REMARK  status: ('A' for Active; 'I' for Inactive)
REMARK    1  A    between atoms: O_2  and  C_3 
REMARK    2  A    between atoms: C_6  and  N_7 
REMARK    3  A    between atoms: C_11  and  C_12 
REMARK    4  A    between atoms: C_12  and  N_13 
REMARK       I    between atoms: N_13  and  C_14 
REMARK    5  A    between atoms: C_14  and  C_15 
ROOT
HETATM    1  N   UNL     1      -5.502   4.788 -30.997  1.00  0.00    -0.360 N 
HETATM    2  C   UNL     1      -5.092   6.094 -31.192  1.00  0.00     0.230 C 
HETATM    3  O   UNL     1      -5.873   6.990 -31.509  1.00  0.00    -0.272 OA
HETATM    4  H   UNL     1      -4.789   4.077 -30.871  1.00  0.00     0.162 HD
ENDROOT
BRANCH   1   5
HETATM    5  C   UNL     1      -6.872   4.369 -31.217  1.00  0.00     0.129 C 
BRANCH   5   6
HETATM    6  C   UNL     1      -7.279   3.180 -30.332  1.00  0.00     0.031 C 
HETATM    7  C   UNL     1      -8.733   2.793 -30.567  1.00  0.00     0.111 C 
HETATM    8  C   UNL     1      -8.660   1.766 -31.670  1.00  0.00     0.224 C 
HETATM    9  N   UNL     1      -7.347   1.270 -31.707  1.00  0.00    -0.318 N 
HETATM   10  O   UNL     1      -9.633   1.443 -32.333  1.00  0.00    -0.273 OA
HETATM   11  C   UNL     1      -6.530   1.906 -30.696  1.00  0.00     0.139 C 
BRANCH   9  12
HETATM   12  C   UNL     1      -6.871   0.201 -32.517  1.00  0.00     0.037 A 
HETATM   13  C   UNL     1      -7.650  -0.360 -33.537  1.00  0.00     0.032 A 
HETATM   14  C   UNL     1      -7.169  -1.409 -34.338  1.00  0.00     0.039 A 
HETATM   15  C   UNL     1      -5.892  -1.920 -34.134  1.00  0.00     0.068 A 
HETATM   16  C   UNL     1      -5.109  -1.380 -33.117  1.00  0.00     0.039 A 
HETATM   17  C   UNL     1      -5.589  -0.333 -32.320  1.00  0.00     0.032 A 
BRANCH  15  18
HETATM   18  O   UNL     1      -5.304  -2.930 -34.842  1.00  0.00    -0.356 OA
HETATM   19  C   UNL     1      -6.127  -4.043 -35.171  1.00  0.00     0.210 C 
ENDBRANCH  15  18
ENDBRANCH   9  12
ENDBRANCH   5   6
ENDBRANCH   1   5
BRANCH   2  20
HETATM   20  C   UNL     1      -3.592   6.361 -30.997  1.00  0.00     0.149 C 
HETATM   21  C   UNL     1      -3.360   7.732 -30.407  1.00  0.00    -0.007 A 
HETATM   22  C   UNL     1      -2.664   8.701 -31.133  1.00  0.00     0.083 A 
HETATM   23  C   UNL     1      -3.843   8.053 -29.128  1.00  0.00     0.011 A 
HETATM   24  C   UNL     1      -2.464   9.976 -30.598  1.00  0.00     0.038 A 
HETATM   25  O   UNL     1      -2.148   8.485 -32.386  1.00  0.00    -0.310 OA
HETATM   26  C   UNL     1      -2.950  10.288 -29.329  1.00  0.00     0.003 A 
HETATM   27  C   UNL     1      -3.639   9.325 -28.593  1.00  0.00     0.001 A 
HETATM   28  C   UNL     1      -2.156   7.207 -32.890  1.00  0.00     0.083 A 
HETATM   29  C   UNL     1      -2.814   6.139 -32.275  1.00  0.00    -0.007 A 
HETATM   30  C   UNL     1      -1.460   7.014 -34.085  1.00  0.00     0.038 A 
HETATM   31  C   UNL     1      -2.755   4.868 -32.868  1.00  0.00     0.011 A 
HETATM   32  C   UNL     1      -2.056   4.676 -34.061  1.00  0.00     0.001 A 
HETATM   33  C   UNL     1      -1.411   5.749 -34.671  1.00  0.00     0.003 A 
ENDBRANCH   2  20
TORSDOF 5
ENDMDL
MODEL 10
REMARK VINA RESULT:      -8.3      2.852      5.866
REMARK  5 active torsions:
REMARK  status: ('A' for Active; 'I' for Inactive)
REMARK    1  A    between atoms: O_2  and  C_3 
REMARK    2  A    between atoms: C_6  and  N_7 
REMARK    3  A    between atoms: C_11  and  C_12 
REMARK    4  A    between atoms: C_12  and  N_13 
REMARK       I    between atoms: N_13  and  C_14 
REMARK    5  A    between atoms: C_14  and  C_15 
ROOT
HETATM    1  N   UNL     1      -6.013   6.996 -30.584  1.00  0.00    -0.360 N 
HETATM    2  C   UNL     1      -5.123   5.955 -30.395  1.00  0.00     0.230 C 
HETATM    3  O   UNL     1      -5.001   5.380 -29.314  1.00  0.00    -0.272 OA
HETATM    4  H   UNL     1      -5.965   7.513 -31.457  1.00  0.00     0.162 HD
ENDROOT
BRANCH   1   5
HETATM    5  C   UNL     1      -6.819   7.527 -29.504  1.00  0.00     0.129 C 
BRANCH   5   6
HETATM    6  C   UNL     1      -6.363   8.924 -29.054  1.00  0.00     0.031 C 
HETATM    7  C   UNL     1      -6.544   9.105 -27.552  1.00  0.00     0.111 C 
HETATM    8  C   UNL     1      -5.230   8.643 -26.972  1.00  0.00     0.224 C 
HETATM    9  N   UNL     1      -4.273   8.677 -27.998  1.00  0.00    -0.318 N 
HETATM   10  O   UNL     1      -5.097   8.357 -25.792  1.00  0.00    -0.273 OA
HETATM   11  C   UNL     1      -4.867   9.131 -29.237  1.00  0.00     0.139 C 
BRANCH   9  12
HETATM   12  C   UNL     1      -2.877   8.434 -27.860  1.00  0.00     0.037 A 
HETATM   13  C   UNL     1      -2.369   7.150 -27.623  1.00  0.00     0.032 A 
HETATM   14  C   UNL     1      -0.990   6.917 -27.496  1.00  0.00     0.039 A 
HETATM   15  C   UNL     1      -0.086   7.969 -27.605  1.00  0.00     0.068 A 
HETATM   16  C   UNL     1      -0.577   9.253 -27.830  1.00  0.00     0.039 A 
HETATM   17  C   UNL     1      -1.953   9.483 -27.956  1.00  0.00     0.032 A 
BRANCH  15  18
HETATM   18  O   UNL     1       1.274   7.879 -27.508  1.00  0.00    -0.356 OA
HETATM   19  C   UNL     1       1.823   7.905 -26.196  1.00  0.00     0.210 C 
ENDBRANCH  15  18
ENDBRANCH   9  12
ENDBRANCH   5   6
ENDBRANCH   1   5
BRANCH   2  20
HETATM   20  C   UNL     1      -4.282   5.562 -31.618  1.00  0.00     0.149 C 
HETATM   21  C   UNL     1      -4.426   4.089 -31.922  1.00  0.00    -0.007 A 
HETATM   22  C   UNL     1      -3.319   3.242 -31.837  1.00  0.00     0.083 A 
HETATM   23  C   UNL     1      -5.672   3.550 -32.285  1.00  0.00     0.011 A 
HETATM   24  C   UNL     1      -3.452   1.876 -32.099  1.00  0.00     0.038 A 
HETATM   25  O   UNL     1      -2.060   3.670 -31.496  1.00  0.00    -0.310 OA
HETATM   26  C   UNL     1      -4.693   1.348 -32.456  1.00  0.00     0.003 A 
HETATM   27  C   UNL     1      -5.802   2.187 -32.550  1.00  0.00     0.001 A 
HETATM   28  C   UNL     1      -1.828   5.021 -31.401  1.00  0.00     0.083 A 
HETATM   29  C   UNL     1      -2.838   5.984 -31.464  1.00  0.00    -0.007 A 
HETATM   30  C   UNL     1      -0.497   5.405 -31.230  1.00  0.00     0.038 A 
HETATM   31  C   UNL     1      -2.494   7.342 -31.364  1.00  0.00     0.011 A 
HETATM   32  C   UNL     1      -1.163   7.723 -31.196  1.00  0.00     0.001 A 
HETATM   33  C   UNL     1      -0.163   6.755 -31.126  1.00  0.00     0.003 A 
ENDBRANCH   2  20
TORSDOF 5
ENDMDL
