MODEL 1
REMARK VINA RESULT:      -7.7      0.000      0.000
REMARK  3 active torsions:
REMARK  status: ('A' for Active; 'I' for Inactive)
REMARK    1  A    between atoms: C_4  and  N_5 
REMARK       I    between atoms: N_5  and  C_6 
REMARK    2  A    between atoms: C_6  and  C_7 
REMARK    3  A    between atoms: C_7  and  C_8 
ROOT
HETATM    1  C   UNL     1      -8.451   0.664 -32.944  1.00  0.00     0.286 C 
HETATM    2  N   UNL     1      -9.322   1.438 -31.943  1.00  0.00    -0.056 N 
HETATM    3  H   UNL     1      -9.874   0.743 -31.423  1.00  0.00     0.278 HD
HETATM    4  H   UNL     1      -8.711   1.845 -31.202  1.00  0.00     0.278 HD
HETATM    5  C   UNL     1     -10.259   2.477 -32.477  1.00  0.00     0.209 C 
HETATM    6  C   UNL     1     -10.957   1.949 -33.750  1.00  0.00     0.115 C 
HETATM    7  N   UNL     1     -10.000   1.447 -34.727  1.00  0.00    -0.353 N 
HETATM    8  C   UNL     1      -8.878   0.735 -34.412  1.00  0.00     0.249 C 
HETATM    9  O   UNL     1      -8.239   0.176 -35.297  1.00  0.00    -0.271 OA
HETATM   10  C   UNL     1      -9.513   3.794 -32.696  1.00  0.00     0.035 C 
HETATM   11  C   UNL     1     -10.434   4.844 -33.316  1.00  0.00     0.002 C 
HETATM   12  C   UNL     1     -11.082   4.337 -34.601  1.00  0.00     0.002 C 
HETATM   13  C   UNL     1     -11.843   3.031 -34.371  1.00  0.00     0.027 C 
HETATM   14  H   UNL     1     -10.278   1.364 -35.704  1.00  0.00     0.163 HD
ENDROOT
BRANCH   1  15
HETATM   15  C   UNL     1      -6.973   1.045 -32.805  1.00  0.00     0.146 C 
BRANCH  15  16
HETATM   16  C   UNL     1      -6.229  -0.255 -32.701  1.00  0.00     0.224 C 
HETATM   17  N   UNL     1      -5.898  -0.819 -33.909  1.00  0.00    -0.327 N 
HETATM   18  H   UNL     1      -5.943  -0.239 -34.743  1.00  0.00     0.169 HD
HETATM   19  O   UNL     1      -6.178  -0.775 -31.586  1.00  0.00    -0.273 OA
BRANCH  17  20
HETATM   20  C   UNL     1      -5.552  -2.168 -34.140  1.00  0.00     0.034 A 
HETATM   21  C   UNL     1      -4.305  -2.718 -33.829  1.00  0.00     0.029 A 
HETATM   22  C   UNL     1      -4.064  -4.080 -34.022  1.00  0.00     0.002 A 
HETATM   23  C   UNL     1      -5.065  -4.904 -34.528  1.00  0.00     0.000 A 
HETATM   24  C   UNL     1      -6.304  -4.365 -34.855  1.00  0.00     0.002 A 
HETATM   25  C   UNL     1      -6.546  -3.002 -34.669  1.00  0.00     0.029 A 
ENDBRANCH  17  20
ENDBRANCH  15  16
ENDBRANCH   1  15
TORSDOF 3
ENDMDL
MODEL 2
REMARK VINA RESULT:      -7.6      2.084      2.990
REMARK  3 active torsions:
REMARK  status: ('A' for Active; 'I' for Inactive)
REMARK    1  A    between atoms: C_4  and  N_5 
REMARK       I    between atoms: N_5  and  C_6 
REMARK    2  A    between atoms: C_6  and  C_7 
REMARK    3  A    between atoms: C_7  and  C_8 
ROOT
HETATM    1  C   UNL     1      -9.262   2.650 -32.431  1.00  0.00     0.286 C 
HETATM    2  N   UNL     1      -9.706   2.241 -33.844  1.00  0.00    -0.056 N 
HETATM    3  H   UNL     1      -9.355   2.960 -34.490  1.00  0.00     0.278 HD
HETATM    4  H   UNL     1      -9.175   1.391 -34.136  1.00  0.00     0.278 HD
HETATM    5  C   UNL     1     -11.170   2.056 -34.098  1.00  0.00     0.209 C 
HETATM    6  C   UNL     1     -11.968   3.188 -33.414  1.00  0.00     0.115 C 
HETATM    7  N   UNL     1     -11.618   3.327 -32.006  1.00  0.00    -0.353 N 
HETATM    8  C   UNL     1     -10.351   3.207 -31.511  1.00  0.00     0.249 C 
HETATM    9  O   UNL     1     -10.111   3.539 -30.355  1.00  0.00    -0.271 OA
HETATM   10  C   UNL     1     -11.607   0.657 -33.662  1.00  0.00     0.035 C 
HETATM   11  C   UNL     1     -13.113   0.477 -33.840  1.00  0.00     0.002 C 
HETATM   12  C   UNL     1     -13.900   1.569 -33.119  1.00  0.00     0.002 C 
HETATM   13  C   UNL     1     -13.474   2.964 -33.574  1.00  0.00     0.027 C 
HETATM   14  H   UNL     1     -12.263   3.799 -31.374  1.00  0.00     0.163 HD
ENDROOT
BRANCH   1  15
HETATM   15  C   UNL     1      -8.513   1.509 -31.731  1.00  0.00     0.146 C 
BRANCH  15  16
HETATM   16  C   UNL     1      -7.555   0.969 -32.752  1.00  0.00     0.224 C 
HETATM   17  N   UNL     1      -7.475  -0.402 -32.787  1.00  0.00    -0.327 N 
HETATM   18  H   UNL     1      -8.207  -0.942 -32.333  1.00  0.00     0.169 HD
HETATM   19  O   UNL     1      -6.803   1.782 -33.291  1.00  0.00    -0.273 OA
BRANCH  17  20
HETATM   20  C   UNL     1      -6.429  -1.169 -33.346  1.00  0.00     0.034 A 
HETATM   21  C   UNL     1      -5.116  -1.165 -32.867  1.00  0.00     0.029 A 
HETATM   22  C   UNL     1      -4.155  -2.007 -33.430  1.00  0.00     0.002 A 
HETATM   23  C   UNL     1      -4.495  -2.858 -34.477  1.00  0.00     0.000 A 
HETATM   24  C   UNL     1      -5.795  -2.859 -34.971  1.00  0.00     0.002 A 
HETATM   25  C   UNL     1      -6.757  -2.014 -34.414  1.00  0.00     0.029 A 
ENDBRANCH  17  20
ENDBRANCH  15  16
ENDBRANCH   1  15
TORSDOF 3
ENDMDL
MODEL 3
REMARK VINA RESULT:      -7.6      3.311      4.850
REMARK  3 active torsions:
REMARK  status: ('A' for Active; 'I' for Inactive)
REMARK    1  A    between atoms: C_4  and  N_5 
REMARK       I    between atoms: N_5  and  C_6 
REMARK    2  A    between atoms: C_6  and  C_7 
REMARK    3  A    between atoms: C_7  and  C_8 
ROOT
HETATM    1  C   UNL     1      -6.192   2.088 -31.916  1.00  0.00     0.286 C 
HETATM    2  N   UNL     1      -4.781   1.859 -31.351  1.00  0.00    -0.056 N 
HETATM    3  H   UNL     1      -4.895   1.506 -30.392  1.00  0.00     0.278 HD
HETATM    4  H   UNL     1      -4.344   1.049 -31.843  1.00  0.00     0.278 HD
HETATM    5  C   UNL     1      -3.837   3.020 -31.316  1.00  0.00     0.209 C 
HETATM    6  C   UNL     1      -4.584   4.287 -30.842  1.00  0.00     0.115 C 
HETATM    7  N   UNL     1      -5.797   4.526 -31.614  1.00  0.00    -0.353 N 
HETATM    8  C   UNL     1      -6.647   3.544 -32.035  1.00  0.00     0.249 C 
HETATM    9  O   UNL     1      -7.744   3.841 -32.498  1.00  0.00    -0.271 OA
HETATM   10  C   UNL     1      -3.159   3.188 -32.675  1.00  0.00     0.035 C 
HETATM   11  C   UNL     1      -2.252   4.418 -32.682  1.00  0.00     0.002 C 
HETATM   12  C   UNL     1      -3.006   5.677 -32.264  1.00  0.00     0.002 C 
HETATM   13  C   UNL     1      -3.664   5.510 -30.895  1.00  0.00     0.027 C 
HETATM   14  H   UNL     1      -6.207   5.458 -31.628  1.00  0.00     0.163 HD
ENDROOT
BRANCH   1  15
HETATM   15  C   UNL     1      -6.379   1.365 -33.256  1.00  0.00     0.146 C 
BRANCH  15  16
HETATM   16  C   UNL     1      -6.039  -0.072 -32.991  1.00  0.00     0.224 C 
HETATM   17  N   UNL     1      -5.610  -0.768 -34.094  1.00  0.00    -0.327 N 
HETATM   18  H   UNL     1      -5.320  -0.243 -34.915  1.00  0.00     0.169 HD
HETATM   19  O   UNL     1      -6.370  -0.526 -31.895  1.00  0.00    -0.273 OA
BRANCH  17  20
HETATM   20  C   UNL     1      -5.584  -2.172 -34.245  1.00  0.00     0.034 A 
HETATM   21  C   UNL     1      -6.667  -2.928 -34.699  1.00  0.00     0.029 A 
HETATM   22  C   UNL     1      -6.538  -4.306 -34.890  1.00  0.00     0.002 A 
HETATM   23  C   UNL     1      -5.328  -4.940 -34.627  1.00  0.00     0.000 A 
HETATM   24  C   UNL     1      -4.247  -4.199 -34.159  1.00  0.00     0.002 A 
HETATM   25  C   UNL     1      -4.375  -2.822 -33.963  1.00  0.00     0.029 A 
ENDBRANCH  17  20
ENDBRANCH  15  16
ENDBRANCH   1  15
TORSDOF 3
ENDMDL
MODEL 4
REMARK VINA RESULT:      -7.5      1.740      2.202
REMARK  3 active torsions:
REMARK  status: ('A' for Active; 'I' for Inactive)
REMARK    1  A    between atoms: C_4  and  N_5 
REMARK       I    between atoms: N_5  and  C_6 
REMARK    2  A    between atoms: C_6  and  C_7 
REMARK    3  A    between atoms: C_7  and  C_8 
ROOT
HETATM    1  C   UNL     1      -6.526   1.577 -33.641  1.00  0.00     0.286 C 
HETATM    2  N   UNL     1      -7.822   0.932 -33.126  1.00  0.00    -0.056 N 
HETATM    3  H   UNL     1      -8.224   0.398 -33.908  1.00  0.00     0.278 HD
HETATM    4  H   UNL     1      -7.581   0.186 -32.438  1.00  0.00     0.278 HD
HETATM    5  C   UNL     1      -8.886   1.829 -32.575  1.00  0.00     0.209 C 
HETATM    6  C   UNL     1      -9.034   3.079 -33.471  1.00  0.00     0.115 C 
HETATM    7  N   UNL     1      -7.756   3.739 -33.701  1.00  0.00    -0.353 N 
HETATM    8  C   UNL     1      -6.576   3.083 -33.908  1.00  0.00     0.249 C 
HETATM    9  O   UNL     1      -5.591   3.703 -34.296  1.00  0.00    -0.271 OA
HETATM   10  C   UNL     1      -8.587   2.163 -31.113  1.00  0.00     0.035 C 
HETATM   11  C   UNL     1      -9.619   3.142 -30.556  1.00  0.00     0.002 C 
HETATM   12  C   UNL     1      -9.726   4.399 -31.416  1.00  0.00     0.002 C 
HETATM   13  C   UNL     1     -10.045   4.060 -32.872  1.00  0.00     0.027 C 
HETATM   14  H   UNL     1      -7.741   4.714 -33.997  1.00  0.00     0.163 HD
ENDROOT
BRANCH   1  15
HETATM   15  C   UNL     1      -5.338   1.242 -32.732  1.00  0.00     0.146 C 
BRANCH  15  16
HETATM   16  C   UNL     1      -5.299  -0.257 -32.653  1.00  0.00     0.224 C 
HETATM   17  N   UNL     1      -4.899  -0.877 -33.811  1.00  0.00    -0.327 N 
HETATM   18  H   UNL     1      -4.435  -0.320 -34.524  1.00  0.00     0.169 HD
HETATM   19  O   UNL     1      -5.817  -0.772 -31.661  1.00  0.00    -0.273 OA
BRANCH  17  20
HETATM   20  C   UNL     1      -5.119  -2.227 -34.160  1.00  0.00     0.034 A 
HETATM   21  C   UNL     1      -4.182  -3.246 -33.967  1.00  0.00     0.029 A 
HETATM   22  C   UNL     1      -4.502  -4.570 -34.273  1.00  0.00     0.002 A 
HETATM   23  C   UNL     1      -5.760  -4.889 -34.776  1.00  0.00     0.000 A 
HETATM   24  C   UNL     1      -6.695  -3.880 -34.987  1.00  0.00     0.002 A 
HETATM   25  C   UNL     1      -6.375  -2.554 -34.687  1.00  0.00     0.029 A 
ENDBRANCH  17  20
ENDBRANCH  15  16
ENDBRANCH   1  15
TORSDOF 3
ENDMDL
MODEL 5
REMARK VINA RESULT:      -7.5      4.517      6.224
REMARK  3 active torsions:
REMARK  status: ('A' for Active; 'I' for Inactive)
REMARK    1  A    between atoms: C_4  and  N_5 
REMARK       I    between atoms: N_5  and  C_6 
REMARK    2  A    between atoms: C_6  and  C_7 
REMARK    3  A    between atoms: C_7  and  C_8 
ROOT
HETATM    1  C   UNL     1      -4.780   3.210 -31.683  1.00  0.00     0.286 C 
HETATM    2  N   UNL     1      -3.705   2.871 -32.727  1.00  0.00    -0.056 N 
HETATM    3  H   UNL     1      -3.252   1.999 -32.420  1.00  0.00     0.278 HD
HETATM    4  H   UNL     1      -4.171   2.586 -33.616  1.00  0.00     0.278 HD
HETATM    5  C   UNL     1      -2.637   3.885 -32.997  1.00  0.00     0.209 C 
HETATM    6  C   UNL     1      -2.152   4.501 -31.665  1.00  0.00     0.115 C 
HETATM    7  N   UNL     1      -3.259   4.998 -30.859  1.00  0.00    -0.353 N 
HETATM    8  C   UNL     1      -4.465   4.370 -30.735  1.00  0.00     0.249 C 
HETATM    9  O   UNL     1      -5.264   4.741 -29.883  1.00  0.00    -0.271 OA
HETATM   10  C   UNL     1      -3.141   4.924 -33.998  1.00  0.00     0.035 C 
HETATM   11  C   UNL     1      -2.094   6.013 -34.225  1.00  0.00     0.002 C 
HETATM   12  C   UNL     1      -1.654   6.655 -32.912  1.00  0.00     0.002 C 
HETATM   13  C   UNL     1      -1.132   5.614 -31.923  1.00  0.00     0.027 C 
HETATM   14  H   UNL     1      -3.078   5.688 -30.131  1.00  0.00     0.163 HD
ENDROOT
BRANCH   1  15
HETATM   15  C   UNL     1      -6.148   3.425 -32.343  1.00  0.00     0.146 C 
BRANCH  15  16
HETATM   16  C   UNL     1      -6.337   2.260 -33.270  1.00  0.00     0.224 C 
HETATM   17  N   UNL     1      -6.373   1.037 -32.647  1.00  0.00    -0.327 N 
HETATM   18  H   UNL     1      -6.519   1.010 -31.641  1.00  0.00     0.169 HD
HETATM   19  O   UNL     1      -6.231   2.490 -34.476  1.00  0.00    -0.273 OA
BRANCH  17  20
HETATM   20  C   UNL     1      -6.162  -0.221 -33.252  1.00  0.00     0.034 A 
HETATM   21  C   UNL     1      -7.156  -0.942 -33.920  1.00  0.00     0.029 A 
HETATM   22  C   UNL     1      -6.851  -2.148 -34.554  1.00  0.00     0.002 A 
HETATM   23  C   UNL     1      -5.551  -2.645 -34.527  1.00  0.00     0.000 A 
HETATM   24  C   UNL     1      -4.558  -1.944 -33.852  1.00  0.00     0.002 A 
HETATM   25  C   UNL     1      -4.862  -0.740 -33.211  1.00  0.00     0.029 A 
ENDBRANCH  17  20
ENDBRANCH  15  16
ENDBRANCH   1  15
TORSDOF 3
ENDMDL
MODEL 6
REMARK VINA RESULT:      -7.3      5.315      6.852
REMARK  3 active torsions:
REMARK  status: ('A' for Active; 'I' for Inactive)
REMARK    1  A    between atoms: C_4  and  N_5 
REMARK       I    between atoms: N_5  and  C_6 
REMARK    2  A    between atoms: C_6  and  C_7 
REMARK    3  A    between atoms: C_7  and  C_8 
ROOT
HETATM    1  C   UNL     1      -3.719   4.071 -33.077  1.00  0.00     0.286 C 
HETATM    2  N   UNL     1      -3.509   5.382 -33.850  1.00  0.00    -0.056 N 
HETATM    3  H   UNL     1      -3.164   5.128 -34.785  1.00  0.00     0.278 HD
HETATM    4  H   UNL     1      -4.438   5.809 -34.056  1.00  0.00     0.278 HD
HETATM    5  C   UNL     1      -2.581   6.404 -33.268  1.00  0.00     0.209 C 
HETATM    6  C   UNL     1      -1.318   5.708 -32.712  1.00  0.00     0.115 C 
HETATM    7  N   UNL     1      -1.652   4.618 -31.805  1.00  0.00    -0.353 N 
HETATM    8  C   UNL     1      -2.688   3.748 -31.993  1.00  0.00     0.249 C 
HETATM    9  O   UNL     1      -2.775   2.741 -31.299  1.00  0.00    -0.271 OA
HETATM   10  C   UNL     1      -3.316   7.249 -32.228  1.00  0.00     0.035 C 
HETATM   11  C   UNL     1      -2.365   8.244 -31.566  1.00  0.00     0.002 C 
HETATM   12  C   UNL     1      -1.144   7.548 -30.972  1.00  0.00     0.002 C 
HETATM   13  C   UNL     1      -0.402   6.721 -32.021  1.00  0.00     0.027 C 
HETATM   14  H   UNL     1      -0.953   4.287 -31.142  1.00  0.00     0.163 HD
ENDROOT
BRANCH   1  15
HETATM   15  C   UNL     1      -5.136   3.987 -32.499  1.00  0.00     0.146 C 
BRANCH  15  16
HETATM   16  C   UNL     1      -5.779   2.810 -33.172  1.00  0.00     0.224 C 
HETATM   17  N   UNL     1      -5.596   1.613 -32.523  1.00  0.00    -0.327 N 
HETATM   18  H   UNL     1      -5.279   1.630 -31.557  1.00  0.00     0.169 HD
HETATM   19  O   UNL     1      -6.211   2.992 -34.311  1.00  0.00    -0.273 OA
BRANCH  17  20
HETATM   20  C   UNL     1      -5.743   0.324 -33.080  1.00  0.00     0.034 A 
HETATM   21  C   UNL     1      -6.965  -0.211 -33.498  1.00  0.00     0.029 A 
HETATM   22  C   UNL     1      -7.016  -1.467 -34.105  1.00  0.00     0.002 A 
HETATM   23  C   UNL     1      -5.850  -2.201 -34.299  1.00  0.00     0.000 A 
HETATM   24  C   UNL     1      -4.630  -1.685 -33.873  1.00  0.00     0.002 A 
HETATM   25  C   UNL     1      -4.577  -0.431 -33.260  1.00  0.00     0.029 A 
ENDBRANCH  17  20
ENDBRANCH  15  16
ENDBRANCH   1  15
TORSDOF 3
ENDMDL
MODEL 7
REMARK VINA RESULT:      -7.3      1.702      2.422
REMARK  3 active torsions:
REMARK  status: ('A' for Active; 'I' for Inactive)
REMARK    1  A    between atoms: C_4  and  N_5 
REMARK       I    between atoms: N_5  and  C_6 
REMARK    2  A    between atoms: C_6  and  C_7 
REMARK    3  A    between atoms: C_7  and  C_8 
ROOT
HETATM    1  C   UNL     1      -7.833   1.247 -32.373  1.00  0.00     0.286 C 
HETATM    2  N   UNL     1      -7.789   1.551 -30.868  1.00  0.00    -0.056 N 
HETATM    3  H   UNL     1      -8.269   0.777 -30.390  1.00  0.00     0.278 HD
HETATM    4  H   UNL     1      -6.806   1.455 -30.530  1.00  0.00     0.278 HD
HETATM    5  C   UNL     1      -8.383   2.840 -30.390  1.00  0.00     0.209 C 
HETATM    6  C   UNL     1      -9.720   3.101 -31.118  1.00  0.00     0.115 C 
HETATM    7  N   UNL     1      -9.580   3.009 -32.565  1.00  0.00    -0.353 N 
HETATM    8  C   UNL     1      -8.808   2.083 -33.207  1.00  0.00     0.249 C 
HETATM    9  O   UNL     1      -8.904   1.941 -34.421  1.00  0.00    -0.271 OA
HETATM   10  C   UNL     1      -7.373   3.975 -30.549  1.00  0.00     0.035 C 
HETATM   11  C   UNL     1      -7.989   5.313 -30.141  1.00  0.00     0.002 C 
HETATM   12  C   UNL     1      -9.283   5.593 -30.900  1.00  0.00     0.002 C 
HETATM   13  C   UNL     1     -10.297   4.463 -30.720  1.00  0.00     0.027 C 
HETATM   14  H   UNL     1     -10.274   3.451 -33.166  1.00  0.00     0.163 HD
ENDROOT
BRANCH   1  15
HETATM   15  C   UNL     1      -6.432   1.298 -32.993  1.00  0.00     0.146 C 
BRANCH  15  16
HETATM   16  C   UNL     1      -5.882  -0.092 -32.864  1.00  0.00     0.224 C 
HETATM   17  N   UNL     1      -5.764  -0.770 -34.053  1.00  0.00    -0.327 N 
HETATM   18  H   UNL     1      -5.808  -0.240 -34.919  1.00  0.00     0.169 HD
HETATM   19  O   UNL     1      -5.794  -0.549 -31.723  1.00  0.00    -0.273 OA
BRANCH  17  20
HETATM   20  C   UNL     1      -5.646  -2.168 -34.215  1.00  0.00     0.034 A 
HETATM   21  C   UNL     1      -6.680  -2.990 -34.672  1.00  0.00     0.029 A 
HETATM   22  C   UNL     1      -6.462  -4.354 -34.875  1.00  0.00     0.002 A 
HETATM   23  C   UNL     1      -5.211  -4.910 -34.621  1.00  0.00     0.000 A 
HETATM   24  C   UNL     1      -4.180  -4.103 -34.152  1.00  0.00     0.002 A 
HETATM   25  C   UNL     1      -4.397  -2.739 -33.943  1.00  0.00     0.029 A 
ENDBRANCH  17  20
ENDBRANCH  15  16
ENDBRANCH   1  15
TORSDOF 3
ENDMDL
MODEL 8
REMARK VINA RESULT:      -7.2      2.141      6.713
REMARK  3 active torsions:
REMARK  status: ('A' for Active; 'I' for Inactive)
REMARK    1  A    between atoms: C_4  and  N_5 
REMARK       I    between atoms: N_5  and  C_6 
REMARK    2  A    between atoms: C_6  and  C_7 
REMARK    3  A    between atoms: C_7  and  C_8 
ROOT
HETATM    1  C   UNL     1      -6.366   1.807 -32.000  1.00  0.00     0.286 C 
HETATM    2  N   UNL     1      -6.980   0.426 -31.720  1.00  0.00    -0.056 N 
HETATM    3  H   UNL     1      -7.043   0.326 -30.698  1.00  0.00     0.278 HD
HETATM    4  H   UNL     1      -7.982   0.433 -32.012  1.00  0.00     0.278 HD
HETATM    5  C   UNL     1      -6.283  -0.780 -32.268  1.00  0.00     0.209 C 
HETATM    6  C   UNL     1      -4.757  -0.639 -32.070  1.00  0.00     0.115 C 
HETATM    7  N   UNL     1      -4.256   0.628 -32.587  1.00  0.00    -0.353 N 
HETATM    8  C   UNL     1      -4.911   1.820 -32.472  1.00  0.00     0.249 C 
HETATM    9  O   UNL     1      -4.332   2.866 -32.749  1.00  0.00    -0.271 OA
HETATM   10  C   UNL     1      -6.687  -1.004 -33.725  1.00  0.00     0.035 C 
HETATM   11  C   UNL     1      -5.925  -2.184 -34.326  1.00  0.00     0.002 C 
HETATM   12  C   UNL     1      -4.416  -2.016 -34.175  1.00  0.00     0.002 C 
HETATM   13  C   UNL     1      -4.016  -1.814 -32.714  1.00  0.00     0.027 C 
HETATM   14  H   UNL     1      -3.265   0.722 -32.806  1.00  0.00     0.163 HD
ENDROOT
BRANCH   1  15
HETATM   15  C   UNL     1      -7.241   2.620 -32.961  1.00  0.00     0.146 C 
BRANCH  15  16
HETATM   16  C   UNL     1      -8.641   2.122 -32.754  1.00  0.00     0.224 C 
HETATM   17  N   UNL     1      -9.259   1.670 -33.894  1.00  0.00    -0.327 N 
HETATM   18  H   UNL     1      -8.685   1.470 -34.709  1.00  0.00     0.169 HD
HETATM   19  O   UNL     1      -9.156   2.358 -31.660  1.00  0.00    -0.273 OA
BRANCH  17  20
HETATM   20  C   UNL     1     -10.647   1.504 -34.089  1.00  0.00     0.034 A 
HETATM   21  C   UNL     1     -11.395   0.464 -33.530  1.00  0.00     0.029 A 
HETATM   22  C   UNL     1     -12.779   0.410 -33.711  1.00  0.00     0.002 A 
HETATM   23  C   UNL     1     -13.428   1.393 -34.454  1.00  0.00     0.000 A 
HETATM   24  C   UNL     1     -12.691   2.424 -35.027  1.00  0.00     0.002 A 
HETATM   25  C   UNL     1     -11.306   2.477 -34.852  1.00  0.00     0.029 A 
ENDBRANCH  17  20
ENDBRANCH  15  16
ENDBRANCH   1  15
TORSDOF 3
ENDMDL
MODEL 9
REMARK VINA RESULT:      -7.1      5.772      8.022
REMARK  3 active torsions:
REMARK  status: ('A' for Active; 'I' for Inactive)
REMARK    1  A    between atoms: C_4  and  N_5 
REMARK       I    between atoms: N_5  and  C_6 
REMARK    2  A    between atoms: C_6  and  C_7 
REMARK    3  A    between atoms: C_7  and  C_8 
ROOT
HETATM    1  C   UNL     1      -4.271   2.338 -31.729  1.00  0.00     0.286 C 
HETATM    2  N   UNL     1      -5.715   2.714 -32.096  1.00  0.00    -0.056 N 
HETATM    3  H   UNL     1      -6.194   2.962 -31.219  1.00  0.00     0.278 HD
HETATM    4  H   UNL     1      -5.710   3.618 -32.617  1.00  0.00     0.278 HD
HETATM    5  C   UNL     1      -6.548   1.700 -32.816  1.00  0.00     0.209 C 
HETATM    6  C   UNL     1      -6.324   0.303 -32.195  1.00  0.00     0.115 C 
HETATM    7  N   UNL     1      -4.910  -0.036 -32.110  1.00  0.00    -0.353 N 
HETATM    8  C   UNL     1      -3.924   0.848 -31.777  1.00  0.00     0.249 C 
HETATM    9  O   UNL     1      -2.794   0.441 -31.528  1.00  0.00    -0.271 OA
HETATM   10  C   UNL     1      -6.257   1.751 -34.316  1.00  0.00     0.035 C 
HETATM   11  C   UNL     1      -7.039   0.668 -35.058  1.00  0.00     0.002 C 
HETATM   12  C   UNL     1      -6.776  -0.718 -34.475  1.00  0.00     0.002 C 
HETATM   13  C   UNL     1      -7.088  -0.768 -32.979  1.00  0.00     0.027 C 
HETATM   14  H   UNL     1      -4.633  -1.013 -32.021  1.00  0.00     0.163 HD
ENDROOT
BRANCH   1  15
HETATM   15  C   UNL     1      -3.260   3.142 -32.554  1.00  0.00     0.146 C 
BRANCH  15  16
HETATM   16  C   UNL     1      -2.929   4.349 -31.726  1.00  0.00     0.224 C 
HETATM   17  N   UNL     1      -1.617   4.748 -31.800  1.00  0.00    -0.327 N 
HETATM   18  H   UNL     1      -1.043   4.388 -32.558  1.00  0.00     0.169 HD
HETATM   19  O   UNL     1      -3.786   4.721 -30.923  1.00  0.00    -0.273 OA
BRANCH  17  20
HETATM   20  C   UNL     1      -0.938   5.577 -30.881  1.00  0.00     0.034 A 
HETATM   21  C   UNL     1      -1.195   6.942 -30.724  1.00  0.00     0.029 A 
HETATM   22  C   UNL     1      -0.529   7.679 -29.742  1.00  0.00     0.002 A 
HETATM   23  C   UNL     1       0.401   7.061 -28.911  1.00  0.00     0.000 A 
HETATM   24  C   UNL     1       0.675   5.706 -29.069  1.00  0.00     0.002 A 
HETATM   25  C   UNL     1       0.015   4.968 -30.054  1.00  0.00     0.029 A 
ENDBRANCH  17  20
ENDBRANCH  15  16
ENDBRANCH   1  15
TORSDOF 3
ENDMDL
MODEL 10
REMARK VINA RESULT:      -7.0      4.730      7.051
REMARK  3 active torsions:
REMARK  status: ('A' for Active; 'I' for Inactive)
REMARK    1  A    between atoms: C_4  and  N_5 
REMARK       I    between atoms: N_5  and  C_6 
REMARK    2  A    between atoms: C_6  and  C_7 
REMARK    3  A    between atoms: C_7  and  C_8 
ROOT
HETATM    1  C   UNL     1      -6.021   2.892 -31.830  1.00  0.00     0.286 C 
HETATM    2  N   UNL     1      -5.448   2.552 -33.215  1.00  0.00    -0.056 N 
HETATM    3  H   UNL     1      -5.568   3.387 -33.804  1.00  0.00     0.278 HD
HETATM    4  H   UNL     1      -4.411   2.469 -33.143  1.00  0.00     0.278 HD
HETATM    5  C   UNL     1      -6.018   1.377 -33.946  1.00  0.00     0.209 C 
HETATM    6  C   UNL     1      -7.557   1.367 -33.804  1.00  0.00     0.115 C 
HETATM    7  N   UNL     1      -7.975   1.465 -32.411  1.00  0.00    -0.353 N 
HETATM    8  C   UNL     1      -7.369   2.257 -31.478  1.00  0.00     0.249 C 
HETATM    9  O   UNL     1      -7.903   2.440 -30.390  1.00  0.00    -0.271 OA
HETATM   10  C   UNL     1      -5.356   0.086 -33.464  1.00  0.00     0.035 C 
HETATM   11  C   UNL     1      -5.981  -1.132 -34.141  1.00  0.00     0.002 C 
HETATM   12  C   UNL     1      -7.495  -1.166 -33.954  1.00  0.00     0.002 C 
HETATM   13  C   UNL     1      -8.154   0.118 -34.457  1.00  0.00     0.027 C 
HETATM   14  H   UNL     1      -8.912   1.163 -32.147  1.00  0.00     0.163 HD
ENDROOT
BRANCH   1  15
HETATM   15  C   UNL     1      -5.000   2.612 -30.722  1.00  0.00     0.146 C 
BRANCH  15  16
HETATM   16  C   UNL     1      -3.709   3.209 -31.200  1.00  0.00     0.224 C 
HETATM   17  N   UNL     1      -3.634   4.575 -31.076  1.00  0.00    -0.327 N 
HETATM   18  H   UNL     1      -4.304   5.044 -30.472  1.00  0.00     0.169 HD
HETATM   19  O   UNL     1      -2.957   2.466 -31.832  1.00  0.00    -0.273 OA
BRANCH  17  20
HETATM   20  C   UNL     1      -2.746   5.433 -31.760  1.00  0.00     0.034 A 
HETATM   21  C   UNL     1      -1.570   5.943 -31.203  1.00  0.00     0.029 A 
HETATM   22  C   UNL     1      -0.706   6.729 -31.970  1.00  0.00     0.002 A 
HETATM   23  C   UNL     1      -1.011   7.015 -33.297  1.00  0.00     0.000 A 
HETATM   24  C   UNL     1      -2.187   6.525 -33.857  1.00  0.00     0.002 A 
HETATM   25  C   UNL     1      -3.054   5.743 -33.091  1.00  0.00     0.029 A 
ENDBRANCH  17  20
ENDBRANCH  15  16
ENDBRANCH   1  15
TORSDOF 3
ENDMDL
