MODEL 1
REMARK VINA RESULT:      -8.4      0.000      0.000
REMARK  3 active torsions:
REMARK  status: ('A' for Active; 'I' for Inactive)
REMARK    1  A    between atoms: C_6  and  N_7 
REMARK       I    between atoms: N_7  and  C_8 
REMARK    2  A    between atoms: C_8  and  C_9 
REMARK    3  A    between atoms: C_9  and  C_10 
ROOT
HETATM    1  C   UNL     1      -7.448   1.616 -31.639  1.00  0.00     0.286 C 
HETATM    2  N   UNL     1      -6.848   2.770 -32.457  1.00  0.00    -0.056 N 
HETATM    3  H   UNL     1      -7.180   2.665 -33.437  1.00  0.00     0.278 HD
HETATM    4  H   UNL     1      -7.219   3.667 -32.119  1.00  0.00     0.278 HD
HETATM    5  C   UNL     1      -5.347   2.795 -32.564  1.00  0.00     0.209 C 
HETATM    6  C   UNL     1      -4.716   2.452 -31.202  1.00  0.00     0.115 C 
HETATM    7  N   UNL     1      -5.158   1.140 -30.768  1.00  0.00    -0.353 N 
HETATM    8  C   UNL     1      -6.444   0.693 -30.917  1.00  0.00     0.249 C 
HETATM    9  O   UNL     1      -6.771  -0.387 -30.435  1.00  0.00    -0.271 OA
HETATM   10  C   UNL     1      -4.898   4.160 -33.074  1.00  0.00     0.035 C 
HETATM   11  C   UNL     1      -3.375   4.225 -33.161  1.00  0.00     0.002 C 
HETATM   12  C   UNL     1      -2.715   3.866 -31.830  1.00  0.00     0.002 C 
HETATM   13  C   UNL     1      -3.189   2.515 -31.296  1.00  0.00     0.027 C 
HETATM   14  H   UNL     1      -4.560   0.553 -30.189  1.00  0.00     0.163 HD
ENDROOT
BRANCH   1  15
HETATM   15  C   UNL     1      -8.479   0.808 -32.444  1.00  0.00     0.146 C 
BRANCH  15  16
HETATM   16  C   UNL     1      -8.308   1.033 -33.925  1.00  0.00     0.224 C 
HETATM   17  N   UNL     1      -7.659   0.201 -34.769  1.00  0.00    -0.327 N 
HETATM   18  H   UNL     1      -7.868   0.424 -35.738  1.00  0.00     0.169 HD
HETATM   19  O   UNL     1      -8.914   2.000 -34.415  1.00  0.00    -0.273 OA
BRANCH  17  20
HETATM   20  C   UNL     1      -6.770  -0.877 -34.608  1.00  0.00     0.035 A 
HETATM   21  C   UNL     1      -7.042  -2.206 -34.917  1.00  0.00     0.037 A 
HETATM   22  C   UNL     1      -6.085  -3.221 -34.704  1.00  0.00    -0.054 A 
HETATM   23  C   UNL     1      -4.832  -2.892 -34.160  1.00  0.00    -0.056 A 
HETATM   24  C   UNL     1      -6.426  -4.640 -35.078  1.00  0.00     0.049 C 
HETATM   25  C   UNL     1      -3.778  -3.936 -33.909  1.00  0.00     0.049 C 
HETATM   26  C   UNL     1      -4.577  -1.563 -33.805  1.00  0.00     0.009 A 
HETATM   27  C   UNL     1      -5.536  -0.571 -34.022  1.00  0.00     0.030 A 
ENDBRANCH  17  20
ENDBRANCH  15  16
ENDBRANCH   1  15
TORSDOF 3
ENDMDL
MODEL 2
REMARK VINA RESULT:      -8.2      2.616      4.725
REMARK  3 active torsions:
REMARK  status: ('A' for Active; 'I' for Inactive)
REMARK    1  A    between atoms: C_6  and  N_7 
REMARK       I    between atoms: N_7  and  C_8 
REMARK    2  A    between atoms: C_8  and  C_9 
REMARK    3  A    between atoms: C_9  and  C_10 
ROOT
HETATM    1  C   UNL     1      -9.154   1.034 -31.949  1.00  0.00     0.286 C 
HETATM    2  N   UNL     1      -9.922   0.793 -33.257  1.00  0.00    -0.056 N 
HETATM    3  H   UNL     1      -9.223   0.570 -33.994  1.00  0.00     0.278 HD
HETATM    4  H   UNL     1     -10.521  -0.036 -33.164  1.00  0.00     0.278 HD
HETATM    5  C   UNL     1     -10.686   1.971 -33.802  1.00  0.00     0.209 C 
HETATM    6  C   UNL     1     -11.398   2.713 -32.655  1.00  0.00     0.115 C 
HETATM    7  N   UNL     1     -10.424   3.164 -31.679  1.00  0.00    -0.353 N 
HETATM    8  C   UNL     1      -9.356   2.408 -31.277  1.00  0.00     0.249 C 
HETATM    9  O   UNL     1      -8.631   2.812 -30.373  1.00  0.00    -0.271 OA
HETATM   10  C   UNL     1     -11.665   1.490 -34.867  1.00  0.00     0.035 C 
HETATM   11  C   UNL     1     -12.480   2.661 -35.414  1.00  0.00     0.002 C 
HETATM   12  C   UNL     1     -13.181   3.435 -34.298  1.00  0.00     0.002 C 
HETATM   13  C   UNL     1     -12.209   3.888 -33.209  1.00  0.00     0.027 C 
HETATM   14  H   UNL     1     -10.587   4.009 -31.133  1.00  0.00     0.163 HD
ENDROOT
BRANCH   1  15
HETATM   15  C   UNL     1      -7.662   0.683 -32.077  1.00  0.00     0.146 C 
BRANCH  15  16
HETATM   16  C   UNL     1      -7.106   1.156 -33.397  1.00  0.00     0.224 C 
HETATM   17  N   UNL     1      -6.486   0.372 -34.306  1.00  0.00    -0.327 N 
HETATM   18  H   UNL     1      -6.408   0.841 -35.204  1.00  0.00     0.169 HD
HETATM   19  O   UNL     1      -7.348   2.332 -33.713  1.00  0.00    -0.273 OA
BRANCH  17  20
HETATM   20  C   UNL     1      -5.925  -0.918 -34.283  1.00  0.00     0.035 A 
HETATM   21  C   UNL     1      -6.507  -2.065 -34.816  1.00  0.00     0.037 A 
HETATM   22  C   UNL     1      -5.870  -3.320 -34.728  1.00  0.00    -0.054 A 
HETATM   23  C   UNL     1      -4.625  -3.425 -34.083  1.00  0.00    -0.056 A 
HETATM   24  C   UNL     1      -6.535  -4.525 -35.343  1.00  0.00     0.049 C 
HETATM   25  C   UNL     1      -3.906  -4.741 -33.958  1.00  0.00     0.049 C 
HETATM   26  C   UNL     1      -4.064  -2.281 -33.506  1.00  0.00     0.009 A 
HETATM   27  C   UNL     1      -4.710  -1.046 -33.601  1.00  0.00     0.030 A 
ENDBRANCH  17  20
ENDBRANCH  15  16
ENDBRANCH   1  15
TORSDOF 3
ENDMDL
MODEL 3
REMARK VINA RESULT:      -8.2      2.422      2.886
REMARK  3 active torsions:
REMARK  status: ('A' for Active; 'I' for Inactive)
REMARK    1  A    between atoms: C_6  and  N_7 
REMARK       I    between atoms: N_7  and  C_8 
REMARK    2  A    between atoms: C_8  and  C_9 
REMARK    3  A    between atoms: C_9  and  C_10 
ROOT
HETATM    1  C   UNL     1      -9.031   0.768 -31.667  1.00  0.00     0.286 C 
HETATM    2  N   UNL     1      -9.812   2.090 -31.736  1.00  0.00    -0.056 N 
HETATM    3  H   UNL     1     -10.066   2.251 -32.731  1.00  0.00     0.278 HD
HETATM    4  H   UNL     1     -10.696   2.001 -31.220  1.00  0.00     0.278 HD
HETATM    5  C   UNL     1      -9.055   3.327 -31.331  1.00  0.00     0.209 C 
HETATM    6  C   UNL     1      -8.204   3.038 -30.080  1.00  0.00     0.115 C 
HETATM    7  N   UNL     1      -7.275   1.958 -30.352  1.00  0.00    -0.353 N 
HETATM    8  C   UNL     1      -7.610   0.841 -31.070  1.00  0.00     0.249 C 
HETATM    9  O   UNL     1      -6.804  -0.078 -31.174  1.00  0.00    -0.271 OA
HETATM   10  C   UNL     1     -10.038   4.469 -31.103  1.00  0.00     0.035 C 
HETATM   11  C   UNL     1      -9.300   5.730 -30.658  1.00  0.00     0.002 C 
HETATM   12  C   UNL     1      -8.426   5.473 -29.431  1.00  0.00     0.002 C 
HETATM   13  C   UNL     1      -7.464   4.305 -29.641  1.00  0.00     0.027 C 
HETATM   14  H   UNL     1      -6.372   1.916 -29.883  1.00  0.00     0.163 HD
ENDROOT
BRANCH   1  15
HETATM   15  C   UNL     1      -9.043   0.015 -33.007  1.00  0.00     0.146 C 
BRANCH  15  16
HETATM   16  C   UNL     1      -8.213   0.735 -34.040  1.00  0.00     0.224 C 
HETATM   17  N   UNL     1      -7.185   0.192 -34.728  1.00  0.00    -0.327 N 
HETATM   18  H   UNL     1      -6.929   0.771 -35.524  1.00  0.00     0.169 HD
HETATM   19  O   UNL     1      -8.587   1.876 -34.358  1.00  0.00    -0.273 OA
BRANCH  17  20
HETATM   20  C   UNL     1      -6.398  -0.965 -34.586  1.00  0.00     0.035 A 
HETATM   21  C   UNL     1      -6.770  -2.251 -34.969  1.00  0.00     0.037 A 
HETATM   22  C   UNL     1      -5.914  -3.354 -34.768  1.00  0.00    -0.054 A 
HETATM   23  C   UNL     1      -4.661  -3.160 -34.161  1.00  0.00    -0.056 A 
HETATM   24  C   UNL     1      -6.359  -4.720 -35.222  1.00  0.00     0.049 C 
HETATM   25  C   UNL     1      -3.713  -4.304 -33.920  1.00  0.00     0.049 C 
HETATM   26  C   UNL     1      -4.308  -1.877 -33.733  1.00  0.00     0.009 A 
HETATM   27  C   UNL     1      -5.169  -0.796 -33.939  1.00  0.00     0.030 A 
ENDBRANCH  17  20
ENDBRANCH  15  16
ENDBRANCH   1  15
TORSDOF 3
ENDMDL
MODEL 4
REMARK VINA RESULT:      -8.0      2.174      6.755
REMARK  3 active torsions:
REMARK  status: ('A' for Active; 'I' for Inactive)
REMARK    1  A    between atoms: C_6  and  N_7 
REMARK       I    between atoms: N_7  and  C_8 
REMARK    2  A    between atoms: C_8  and  C_9 
REMARK    3  A    between atoms: C_9  and  C_10 
ROOT
HETATM    1  C   UNL     1      -4.334   0.878 -32.188  1.00  0.00     0.286 C 
HETATM    2  N   UNL     1      -5.552   0.404 -32.996  1.00  0.00    -0.056 N 
HETATM    3  H   UNL     1      -6.402   0.632 -32.443  1.00  0.00     0.278 HD
HETATM    4  H   UNL     1      -5.621   0.940 -33.870  1.00  0.00     0.278 HD
HETATM    5  C   UNL     1      -5.645  -1.078 -33.245  1.00  0.00     0.209 C 
HETATM    6  C   UNL     1      -4.258  -1.640 -33.607  1.00  0.00     0.115 C 
HETATM    7  N   UNL     1      -3.322  -1.378 -32.530  1.00  0.00    -0.353 N 
HETATM    8  C   UNL     1      -3.283  -0.197 -31.838  1.00  0.00     0.249 C 
HETATM    9  O   UNL     1      -2.399  -0.008 -31.008  1.00  0.00    -0.271 OA
HETATM   10  C   UNL     1      -6.673  -1.343 -34.339  1.00  0.00     0.035 C 
HETATM   11  C   UNL     1      -6.764  -2.839 -34.637  1.00  0.00     0.002 C 
HETATM   12  C   UNL     1      -5.399  -3.434 -34.977  1.00  0.00     0.002 C 
HETATM   13  C   UNL     1      -4.355  -3.139 -33.901  1.00  0.00     0.027 C 
HETATM   14  H   UNL     1      -2.546  -2.012 -32.348  1.00  0.00     0.163 HD
ENDROOT
BRANCH   1  15
HETATM   15  C   UNL     1      -4.738   1.696 -30.951  1.00  0.00     0.146 C 
BRANCH  15  16
HETATM   16  C   UNL     1      -5.720   2.781 -31.317  1.00  0.00     0.224 C 
HETATM   17  N   UNL     1      -5.399   3.953 -31.908  1.00  0.00    -0.327 N 
HETATM   18  H   UNL     1      -6.226   4.420 -32.271  1.00  0.00     0.169 HD
HETATM   19  O   UNL     1      -6.924   2.516 -31.167  1.00  0.00    -0.273 OA
BRANCH  17  20
HETATM   20  C   UNL     1      -4.203   4.662 -32.118  1.00  0.00     0.035 A 
HETATM   21  C   UNL     1      -3.426   4.618 -33.272  1.00  0.00     0.037 A 
HETATM   22  C   UNL     1      -2.229   5.356 -33.380  1.00  0.00    -0.054 A 
HETATM   23  C   UNL     1      -1.800   6.148 -32.301  1.00  0.00    -0.056 A 
HETATM   24  C   UNL     1      -1.439   5.289 -34.662  1.00  0.00     0.049 C 
HETATM   25  C   UNL     1      -0.529   6.951 -32.364  1.00  0.00     0.049 C 
HETATM   26  C   UNL     1      -2.556   6.154 -31.124  1.00  0.00     0.009 A 
HETATM   27  C   UNL     1      -3.739   5.416 -31.034  1.00  0.00     0.030 A 
ENDBRANCH  17  20
ENDBRANCH  15  16
ENDBRANCH   1  15
TORSDOF 3
ENDMDL
MODEL 5
REMARK VINA RESULT:      -8.0      1.884      2.812
REMARK  3 active torsions:
REMARK  status: ('A' for Active; 'I' for Inactive)
REMARK    1  A    between atoms: C_6  and  N_7 
REMARK       I    between atoms: N_7  and  C_8 
REMARK    2  A    between atoms: C_8  and  C_9 
REMARK    3  A    between atoms: C_9  and  C_10 
ROOT
HETATM    1  C   UNL     1      -6.014   4.200 -31.866  1.00  0.00     0.286 C 
HETATM    2  N   UNL     1      -5.464   4.630 -33.235  1.00  0.00    -0.056 N 
HETATM    3  H   UNL     1      -5.911   4.027 -33.955  1.00  0.00     0.278 HD
HETATM    4  H   UNL     1      -5.755   5.593 -33.441  1.00  0.00     0.278 HD
HETATM    5  C   UNL     1      -3.985   4.440 -33.444  1.00  0.00     0.209 C 
HETATM    6  C   UNL     1      -3.216   4.859 -32.178  1.00  0.00     0.115 C 
HETATM    7  N   UNL     1      -3.661   4.068 -31.045  1.00  0.00    -0.353 N 
HETATM    8  C   UNL     1      -4.972   3.745 -30.822  1.00  0.00     0.249 C 
HETATM    9  O   UNL     1      -5.287   3.161 -29.790  1.00  0.00    -0.271 OA
HETATM   10  C   UNL     1      -3.542   5.230 -34.670  1.00  0.00     0.035 C 
HETATM   11  C   UNL     1      -2.037   5.084 -34.887  1.00  0.00     0.002 C 
HETATM   12  C   UNL     1      -1.244   5.469 -33.639  1.00  0.00     0.002 C 
HETATM   13  C   UNL     1      -1.709   4.706 -32.400  1.00  0.00     0.027 C 
HETATM   14  H   UNL     1      -3.025   3.851 -30.280  1.00  0.00     0.163 HD
ENDROOT
BRANCH   1  15
HETATM   15  C   UNL     1      -7.164   3.187 -31.993  1.00  0.00     0.146 C 
BRANCH  15  16
HETATM   16  C   UNL     1      -7.671   3.119 -33.412  1.00  0.00     0.224 C 
HETATM   17  N   UNL     1      -7.599   2.033 -34.212  1.00  0.00    -0.327 N 
HETATM   18  H   UNL     1      -8.203   2.134 -35.024  1.00  0.00     0.169 HD
HETATM   19  O   UNL     1      -8.307   4.103 -33.824  1.00  0.00    -0.273 OA
BRANCH  17  20
HETATM   20  C   UNL     1      -6.881   0.824 -34.179  1.00  0.00     0.035 A 
HETATM   21  C   UNL     1      -5.632   0.638 -33.595  1.00  0.00     0.037 A 
HETATM   22  C   UNL     1      -4.983  -0.615 -33.630  1.00  0.00    -0.054 A 
HETATM   23  C   UNL     1      -5.602  -1.700 -34.273  1.00  0.00    -0.056 A 
HETATM   24  C   UNL     1      -3.642  -0.764 -32.961  1.00  0.00     0.049 C 
HETATM   25  C   UNL     1      -4.952  -3.056 -34.341  1.00  0.00     0.049 C 
HETATM   26  C   UNL     1      -6.835  -1.501 -34.901  1.00  0.00     0.009 A 
HETATM   27  C   UNL     1      -7.463  -0.253 -34.859  1.00  0.00     0.030 A 
ENDBRANCH  17  20
ENDBRANCH  15  16
ENDBRANCH   1  15
TORSDOF 3
ENDMDL
MODEL 6
REMARK VINA RESULT:      -7.9      2.179      5.941
REMARK  3 active torsions:
REMARK  status: ('A' for Active; 'I' for Inactive)
REMARK    1  A    between atoms: C_6  and  N_7 
REMARK       I    between atoms: N_7  and  C_8 
REMARK    2  A    between atoms: C_8  and  C_9 
REMARK    3  A    between atoms: C_9  and  C_10 
ROOT
HETATM    1  C   UNL     1      -5.002   1.162 -32.683  1.00  0.00     0.286 C 
HETATM    2  N   UNL     1      -6.095   0.397 -33.445  1.00  0.00    -0.056 N 
HETATM    3  H   UNL     1      -6.991   0.548 -32.941  1.00  0.00     0.278 HD
HETATM    4  H   UNL     1      -6.215   0.801 -34.382  1.00  0.00     0.278 HD
HETATM    5  C   UNL     1      -5.938  -1.100 -33.501  1.00  0.00     0.209 C 
HETATM    6  C   UNL     1      -4.465  -1.465 -33.762  1.00  0.00     0.115 C 
HETATM    7  N   UNL     1      -3.626  -0.920 -32.711  1.00  0.00    -0.353 N 
HETATM    8  C   UNL     1      -3.806   0.327 -32.176  1.00  0.00     0.249 C 
HETATM    9  O   UNL     1      -2.998   0.762 -31.362  1.00  0.00    -0.271 OA
HETATM   10  C   UNL     1      -6.865  -1.665 -34.571  1.00  0.00     0.035 C 
HETATM   11  C   UNL     1      -6.702  -3.180 -34.674  1.00  0.00     0.002 C 
HETATM   12  C   UNL     1      -5.246  -3.580 -34.909  1.00  0.00     0.002 C 
HETATM   13  C   UNL     1      -4.307  -2.985 -33.861  1.00  0.00     0.027 C 
HETATM   14  H   UNL     1      -2.766  -1.389 -32.434  1.00  0.00     0.163 HD
ENDROOT
BRANCH   1  15
HETATM   15  C   UNL     1      -5.582   2.050 -31.570  1.00  0.00     0.146 C 
BRANCH  15  16
HETATM   16  C   UNL     1      -6.370   1.230 -30.579  1.00  0.00     0.224 C 
HETATM   17  N   UNL     1      -7.652   0.834 -30.743  1.00  0.00    -0.327 N 
HETATM   18  H   UNL     1      -7.899   0.107 -30.076  1.00  0.00     0.169 HD
HETATM   19  O   UNL     1      -5.748   0.794 -29.597  1.00  0.00    -0.273 OA
BRANCH  17  20
HETATM   20  C   UNL     1      -8.701   1.203 -31.604  1.00  0.00     0.035 A 
HETATM   21  C   UNL     1      -9.207   2.490 -31.761  1.00  0.00     0.037 A 
HETATM   22  C   UNL     1     -10.276   2.756 -32.642  1.00  0.00    -0.054 A 
HETATM   23  C   UNL     1     -10.854   1.704 -33.373  1.00  0.00    -0.056 A 
HETATM   24  C   UNL     1     -10.769   4.173 -32.790  1.00  0.00     0.049 C 
HETATM   25  C   UNL     1     -11.999   1.934 -34.321  1.00  0.00     0.049 C 
HETATM   26  C   UNL     1     -10.377   0.404 -33.178  1.00  0.00     0.009 A 
HETATM   27  C   UNL     1      -9.318   0.158 -32.301  1.00  0.00     0.030 A 
ENDBRANCH  17  20
ENDBRANCH  15  16
ENDBRANCH   1  15
TORSDOF 3
ENDMDL
MODEL 7
REMARK VINA RESULT:      -7.9      2.452      3.583
REMARK  3 active torsions:
REMARK  status: ('A' for Active; 'I' for Inactive)
REMARK    1  A    between atoms: C_6  and  N_7 
REMARK       I    between atoms: N_7  and  C_8 
REMARK    2  A    between atoms: C_8  and  C_9 
REMARK    3  A    between atoms: C_9  and  C_10 
ROOT
HETATM    1  C   UNL     1      -4.720   2.228 -31.464  1.00  0.00     0.286 C 
HETATM    2  N   UNL     1      -3.485   2.669 -32.265  1.00  0.00    -0.056 N 
HETATM    3  H   UNL     1      -2.765   1.926 -32.164  1.00  0.00     0.278 HD
HETATM    4  H   UNL     1      -3.716   2.717 -33.264  1.00  0.00     0.278 HD
HETATM    5  C   UNL     1      -2.804   3.926 -31.791  1.00  0.00     0.209 C 
HETATM    6  C   UNL     1      -3.856   4.986 -31.417  1.00  0.00     0.115 C 
HETATM    7  N   UNL     1      -4.726   4.474 -30.375  1.00  0.00    -0.353 N 
HETATM    8  C   UNL     1      -5.195   3.188 -30.352  1.00  0.00     0.249 C 
HETATM    9  O   UNL     1      -6.008   2.853 -29.496  1.00  0.00    -0.271 OA
HETATM   10  C   UNL     1      -1.852   4.422 -32.873  1.00  0.00     0.035 C 
HETATM   11  C   UNL     1      -1.171   5.717 -32.434  1.00  0.00     0.002 C 
HETATM   12  C   UNL     1      -2.187   6.785 -32.032  1.00  0.00     0.002 C 
HETATM   13  C   UNL     1      -3.168   6.280 -30.974  1.00  0.00     0.027 C 
HETATM   14  H   UNL     1      -5.150   5.102 -29.695  1.00  0.00     0.163 HD
ENDROOT
BRANCH   1  15
HETATM   15  C   UNL     1      -4.594   0.786 -30.947  1.00  0.00     0.146 C 
BRANCH  15  16
HETATM   16  C   UNL     1      -3.301   0.158 -31.404  1.00  0.00     0.224 C 
HETATM   17  N   UNL     1      -3.178  -0.709 -32.433  1.00  0.00    -0.327 N 
HETATM   18  H   UNL     1      -2.205  -0.816 -32.709  1.00  0.00     0.169 HD
HETATM   19  O   UNL     1      -2.261   0.567 -30.862  1.00  0.00    -0.273 OA
BRANCH  17  20
HETATM   20  C   UNL     1      -4.075  -1.489 -33.184  1.00  0.00     0.035 A 
HETATM   21  C   UNL     1      -5.268  -1.040 -33.744  1.00  0.00     0.037 A 
HETATM   22  C   UNL     1      -6.112  -1.907 -34.469  1.00  0.00    -0.054 A 
HETATM   23  C   UNL     1      -5.751  -3.256 -34.628  1.00  0.00    -0.056 A 
HETATM   24  C   UNL     1      -7.380  -1.361 -35.073  1.00  0.00     0.049 C 
HETATM   25  C   UNL     1      -6.618  -4.223 -35.388  1.00  0.00     0.049 C 
HETATM   26  C   UNL     1      -4.577  -3.718 -34.024  1.00  0.00     0.009 A 
HETATM   27  C   UNL     1      -3.754  -2.845 -33.308  1.00  0.00     0.030 A 
ENDBRANCH  17  20
ENDBRANCH  15  16
ENDBRANCH   1  15
TORSDOF 3
ENDMDL
MODEL 8
REMARK VINA RESULT:      -7.7      2.452      4.164
REMARK  3 active torsions:
REMARK  status: ('A' for Active; 'I' for Inactive)
REMARK    1  A    between atoms: C_6  and  N_7 
REMARK       I    between atoms: N_7  and  C_8 
REMARK    2  A    between atoms: C_8  and  C_9 
REMARK    3  A    between atoms: C_9  and  C_10 
ROOT
HETATM    1  C   UNL     1      -4.338   3.721 -32.796  1.00  0.00     0.286 C 
HETATM    2  N   UNL     1      -3.235   3.997 -31.763  1.00  0.00    -0.056 N 
HETATM    3  H   UNL     1      -3.662   3.913 -30.819  1.00  0.00     0.278 HD
HETATM    4  H   UNL     1      -2.512   3.270 -31.821  1.00  0.00     0.278 HD
HETATM    5  C   UNL     1      -2.636   5.379 -31.788  1.00  0.00     0.209 C 
HETATM    6  C   UNL     1      -2.412   5.829 -33.244  1.00  0.00     0.115 C 
HETATM    7  N   UNL     1      -3.672   5.824 -33.963  1.00  0.00    -0.353 N 
HETATM    8  C   UNL     1      -4.614   4.841 -33.821  1.00  0.00     0.249 C 
HETATM    9  O   UNL     1      -5.611   4.848 -34.536  1.00  0.00    -0.271 OA
HETATM   10  C   UNL     1      -1.342   5.383 -30.982  1.00  0.00     0.035 C 
HETATM   11  C   UNL     1      -0.693   6.766 -31.019  1.00  0.00     0.002 C 
HETATM   12  C   UNL     1      -0.478   7.254 -32.451  1.00  0.00     0.002 C 
HETATM   13  C   UNL     1      -1.765   7.216 -33.274  1.00  0.00     0.027 C 
HETATM   14  H   UNL     1      -3.839   6.477 -34.726  1.00  0.00     0.163 HD
ENDROOT
BRANCH   1  15
HETATM   15  C   UNL     1      -5.637   3.222 -32.141  1.00  0.00     0.146 C 
BRANCH  15  16
HETATM   16  C   UNL     1      -5.344   2.434 -30.889  1.00  0.00     0.224 C 
HETATM   17  N   UNL     1      -4.939   1.145 -30.859  1.00  0.00    -0.327 N 
HETATM   18  H   UNL     1      -4.579   0.895 -29.942  1.00  0.00     0.169 HD
HETATM   19  O   UNL     1      -5.366   3.061 -29.818  1.00  0.00    -0.273 OA
BRANCH  17  20
HETATM   20  C   UNL     1      -4.915   0.092 -31.790  1.00  0.00     0.035 A 
HETATM   21  C   UNL     1      -5.946  -0.242 -32.664  1.00  0.00     0.037 A 
HETATM   22  C   UNL     1      -5.833  -1.332 -33.552  1.00  0.00    -0.054 A 
HETATM   23  C   UNL     1      -4.660  -2.107 -33.556  1.00  0.00    -0.056 A 
HETATM   24  C   UNL     1      -6.972  -1.634 -34.492  1.00  0.00     0.049 C 
HETATM   25  C   UNL     1      -4.490  -3.282 -34.481  1.00  0.00     0.049 C 
HETATM   26  C   UNL     1      -3.644  -1.801 -32.645  1.00  0.00     0.009 A 
HETATM   27  C   UNL     1      -3.774  -0.719 -31.771  1.00  0.00     0.030 A 
ENDBRANCH  17  20
ENDBRANCH  15  16
ENDBRANCH   1  15
TORSDOF 3
ENDMDL
MODEL 9
REMARK VINA RESULT:      -7.7      5.797     10.418
REMARK  3 active torsions:
REMARK  status: ('A' for Active; 'I' for Inactive)
REMARK    1  A    between atoms: C_6  and  N_7 
REMARK       I    between atoms: N_7  and  C_8 
REMARK    2  A    between atoms: C_8  and  C_9 
REMARK    3  A    between atoms: C_9  and  C_10 
ROOT
HETATM    1  C   UNL     1      -1.840   6.678 -31.486  1.00  0.00     0.286 C 
HETATM    2  N   UNL     1      -2.525   5.403 -30.972  1.00  0.00    -0.056 N 
HETATM    3  H   UNL     1      -1.784   4.783 -30.587  1.00  0.00     0.278 HD
HETATM    4  H   UNL     1      -3.148   5.632 -30.188  1.00  0.00     0.278 HD
HETATM    5  C   UNL     1      -3.222   4.562 -32.009  1.00  0.00     0.209 C 
HETATM    6  C   UNL     1      -3.991   5.467 -32.989  1.00  0.00     0.115 C 
HETATM    7  N   UNL     1      -3.075   6.388 -33.635  1.00  0.00    -0.353 N 
HETATM    8  C   UNL     1      -2.054   7.019 -32.976  1.00  0.00     0.249 C 
HETATM    9  O   UNL     1      -1.382   7.862 -33.562  1.00  0.00    -0.271 OA
HETATM   10  C   UNL     1      -4.139   3.561 -31.315  1.00  0.00     0.035 C 
HETATM   11  C   UNL     1      -4.887   2.717 -32.345  1.00  0.00     0.002 C 
HETATM   12  C   UNL     1      -5.643   3.585 -33.350  1.00  0.00     0.002 C 
HETATM   13  C   UNL     1      -4.735   4.615 -34.021  1.00  0.00     0.027 C 
HETATM   14  H   UNL     1      -3.253   6.723 -34.580  1.00  0.00     0.163 HD
ENDROOT
BRANCH   1  15
HETATM   15  C   UNL     1      -0.352   6.735 -31.103  1.00  0.00     0.146 C 
BRANCH  15  16
HETATM   16  C   UNL     1       0.033   5.550 -30.253  1.00  0.00     0.224 C 
HETATM   17  N   UNL     1       0.065   5.538 -28.902  1.00  0.00    -0.327 N 
HETATM   18  H   UNL     1       0.119   4.588 -28.544  1.00  0.00     0.169 HD
HETATM   19  O   UNL     1       0.220   4.476 -30.848  1.00  0.00    -0.273 OA
BRANCH  17  20
HETATM   20  C   UNL     1       0.050   6.527 -27.902  1.00  0.00     0.035 A 
HETATM   21  C   UNL     1       1.171   7.060 -27.272  1.00  0.00     0.037 A 
HETATM   22  C   UNL     1       1.051   8.040 -26.265  1.00  0.00    -0.054 A 
HETATM   23  C   UNL     1      -0.224   8.488 -25.878  1.00  0.00    -0.056 A 
HETATM   24  C   UNL     1       2.300   8.598 -25.633  1.00  0.00     0.049 C 
HETATM   25  C   UNL     1      -0.406   9.528 -24.807  1.00  0.00     0.049 C 
HETATM   26  C   UNL     1      -1.351   7.917 -26.477  1.00  0.00     0.009 A 
HETATM   27  C   UNL     1      -1.214   6.946 -27.472  1.00  0.00     0.030 A 
ENDBRANCH  17  20
ENDBRANCH  15  16
ENDBRANCH   1  15
TORSDOF 3
ENDMDL
MODEL 10
REMARK VINA RESULT:      -7.7      2.277      6.416
REMARK  3 active torsions:
REMARK  status: ('A' for Active; 'I' for Inactive)
REMARK    1  A    between atoms: C_6  and  N_7 
REMARK       I    between atoms: N_7  and  C_8 
REMARK    2  A    between atoms: C_8  and  C_9 
REMARK    3  A    between atoms: C_9  and  C_10 
ROOT
HETATM    1  C   UNL     1      -6.281  -0.163 -33.437  1.00  0.00     0.286 C 
HETATM    2  N   UNL     1      -5.120  -1.046 -32.953  1.00  0.00    -0.056 N 
HETATM    3  H   UNL     1      -4.261  -0.461 -32.953  1.00  0.00     0.278 HD
HETATM    4  H   UNL     1      -5.280  -1.329 -31.978  1.00  0.00     0.278 HD
HETATM    5  C   UNL     1      -4.778  -2.226 -33.824  1.00  0.00     0.209 C 
HETATM    6  C   UNL     1      -6.067  -2.909 -34.316  1.00  0.00     0.115 C 
HETATM    7  N   UNL     1      -6.875  -1.962 -35.062  1.00  0.00    -0.353 N 
HETATM    8  C   UNL     1      -7.043  -0.657 -34.685  1.00  0.00     0.249 C 
HETATM    9  O   UNL     1      -7.821   0.060 -35.307  1.00  0.00    -0.271 OA
HETATM   10  C   UNL     1      -3.883  -3.185 -33.047  1.00  0.00     0.035 C 
HETATM   11  C   UNL     1      -3.547  -4.410 -33.896  1.00  0.00     0.002 C 
HETATM   12  C   UNL     1      -4.806  -5.099 -34.421  1.00  0.00     0.002 C 
HETATM   13  C   UNL     1      -5.724  -4.133 -35.169  1.00  0.00     0.027 C 
HETATM   14  H   UNL     1      -7.480  -2.276 -35.818  1.00  0.00     0.163 HD
ENDROOT
BRANCH   1  15
HETATM   15  C   UNL     1      -5.872   1.312 -33.572  1.00  0.00     0.146 C 
BRANCH  15  16
HETATM   16  C   UNL     1      -6.409   2.131 -32.425  1.00  0.00     0.224 C 
HETATM   17  N   UNL     1      -7.717   2.369 -32.184  1.00  0.00    -0.327 N 
HETATM   18  H   UNL     1      -7.857   2.734 -31.246  1.00  0.00     0.169 HD
HETATM   19  O   UNL     1      -5.584   2.510 -31.578  1.00  0.00    -0.273 OA
BRANCH  17  20
HETATM   20  C   UNL     1      -8.901   2.237 -32.931  1.00  0.00     0.035 A 
HETATM   21  C   UNL     1      -9.387   3.162 -33.851  1.00  0.00     0.037 A 
HETATM   22  C   UNL     1     -10.599   2.946 -34.540  1.00  0.00    -0.054 A 
HETATM   23  C   UNL     1     -11.341   1.779 -34.292  1.00  0.00    -0.056 A 
HETATM   24  C   UNL     1     -11.066   3.970 -35.542  1.00  0.00     0.049 C 
HETATM   25  C   UNL     1     -12.642   1.502 -34.997  1.00  0.00     0.049 C 
HETATM   26  C   UNL     1     -10.878   0.873 -33.332  1.00  0.00     0.009 A 
HETATM   27  C   UNL     1      -9.676   1.104 -32.658  1.00  0.00     0.030 A 
ENDBRANCH  17  20
ENDBRANCH  15  16
ENDBRANCH   1  15
TORSDOF 3
ENDMDL
