MODEL 1
REMARK VINA RESULT:      -9.6      0.000      0.000
REMARK  3 active torsions:
REMARK  status: ('A' for Active; 'I' for Inactive)
REMARK    1  A    between atoms: C_2  and  C_3 
REMARK    2  A    between atoms: C_18  and  C_19 
REMARK    3  A    between atoms: C_22  and  O_23 
ROOT
HETATM    1  C   UNL     1      -3.871   2.327 -32.419  1.00  0.00     0.060 C 
HETATM    2  C   UNL     1      -5.302   2.854 -32.744  1.00  0.00     0.210 C 
HETATM    3  N   UNL     1      -5.022   3.954 -33.687  1.00  0.00     0.110 N 
HETATM    4  C   UNL     1      -6.011   5.023 -33.758  1.00  0.00     0.374 C 
HETATM    5  C   UNL     1      -7.460   4.660 -34.009  1.00  0.00     0.250 C 
HETATM    6  O   UNL     1      -8.292   5.574 -34.121  1.00  0.00    -0.271 OA
HETATM    7  N   UNL     1      -7.928   3.407 -34.203  1.00  0.00    -0.325 N 
HETATM    8  C   UNL     1      -7.366   2.129 -34.111  1.00  0.00     0.044 A 
HETATM    9  C   UNL     1      -6.149   1.803 -33.492  1.00  0.00     0.012 A 
HETATM   10  C   UNL     1      -8.153   1.114 -34.683  1.00  0.00     0.031 A 
HETATM   11  C   UNL     1      -7.723  -0.212 -34.717  1.00  0.00     0.014 A 
HETATM   12  C   UNL     1      -6.494  -0.572 -34.169  1.00  0.00    -0.025 A 
HETATM   13  C   UNL     1      -5.741   0.441 -33.545  1.00  0.00     0.024 A 
HETATM   14  H   UNL     1      -4.880   3.559 -34.616  1.00  0.00     0.318 HD
HETATM   15  H   UNL     1      -8.901   3.451 -34.488  1.00  0.00     0.169 HD
ENDROOT
BRANCH  12  16
HETATM   16  C   UNL     1      -5.996  -1.959 -34.260  1.00  0.00    -0.026 A 
HETATM   17  C   UNL     1      -6.849  -3.003 -34.672  1.00  0.00     0.015 A 
HETATM   18  C   UNL     1      -6.392  -4.320 -34.774  1.00  0.00     0.037 A 
HETATM   19  C   UNL     1      -5.069  -4.608 -34.467  1.00  0.00     0.065 A 
HETATM   20  C   UNL     1      -4.203  -3.602 -34.059  1.00  0.00     0.037 A 
HETATM   21  C   UNL     1      -4.665  -2.287 -33.955  1.00  0.00     0.015 A 
BRANCH  19  22
HETATM   22  O   UNL     1      -4.577  -5.875 -34.555  1.00  0.00    -0.361 OA
HETATM   23  H   UNL     1      -4.817  -6.359 -33.747  1.00  0.00     0.217 HD
ENDBRANCH  19  22
ENDBRANCH  12  16
BRANCH   2  24
HETATM   24  C   UNL     1      -5.892   3.303 -31.380  1.00  0.00    -0.016 A 
HETATM   25  C   UNL     1      -7.096   2.784 -30.869  1.00  0.00     0.010 A 
HETATM   26  C   UNL     1      -7.607   3.211 -29.638  1.00  0.00     0.001 A 
HETATM   27  C   UNL     1      -6.920   4.154 -28.881  1.00  0.00     0.000 A 
HETATM   28  C   UNL     1      -5.714   4.665 -29.347  1.00  0.00     0.001 A 
HETATM   29  C   UNL     1      -5.202   4.236 -30.574  1.00  0.00     0.010 A 
ENDBRANCH   2  24
TORSDOF 3
ENDMDL
MODEL 2
REMARK VINA RESULT:      -9.3      2.408      3.809
REMARK  3 active torsions:
REMARK  status: ('A' for Active; 'I' for Inactive)
REMARK    1  A    between atoms: C_2  and  C_3 
REMARK    2  A    between atoms: C_18  and  C_19 
REMARK    3  A    between atoms: C_22  and  O_23 
ROOT
HETATM    1  C   UNL     1      -5.877   3.881 -34.221  1.00  0.00     0.060 C 
HETATM    2  C   UNL     1      -5.456   3.914 -32.720  1.00  0.00     0.210 C 
HETATM    3  N   UNL     1      -6.555   4.683 -32.104  1.00  0.00     0.110 N 
HETATM    4  C   UNL     1      -6.244   5.399 -30.873  1.00  0.00     0.374 C 
HETATM    5  C   UNL     1      -5.616   4.637 -29.724  1.00  0.00     0.250 C 
HETATM    6  O   UNL     1      -5.400   5.236 -28.660  1.00  0.00    -0.271 OA
HETATM    7  N   UNL     1      -5.335   3.314 -29.726  1.00  0.00    -0.325 N 
HETATM    8  C   UNL     1      -5.367   2.311 -30.700  1.00  0.00     0.044 A 
HETATM    9  C   UNL     1      -5.460   2.506 -32.088  1.00  0.00     0.012 A 
HETATM   10  C   UNL     1      -5.263   1.007 -30.184  1.00  0.00     0.031 A 
HETATM   11  C   UNL     1      -5.322  -0.113 -31.011  1.00  0.00     0.014 A 
HETATM   12  C   UNL     1      -5.475   0.030 -32.389  1.00  0.00    -0.025 A 
HETATM   13  C   UNL     1      -5.518   1.341 -32.902  1.00  0.00     0.024 A 
HETATM   14  H   UNL     1      -7.342   4.054 -31.943  1.00  0.00     0.318 HD
HETATM   15  H   UNL     1      -5.054   3.028 -28.795  1.00  0.00     0.169 HD
ENDROOT
BRANCH  12  16
HETATM   16  C   UNL     1      -5.608  -1.148 -33.268  1.00  0.00    -0.026 A 
HETATM   17  C   UNL     1      -4.480  -1.919 -33.611  1.00  0.00     0.015 A 
HETATM   18  C   UNL     1      -4.589  -3.045 -34.433  1.00  0.00     0.037 A 
HETATM   19  C   UNL     1      -5.835  -3.414 -34.920  1.00  0.00     0.065 A 
HETATM   20  C   UNL     1      -6.967  -2.677 -34.599  1.00  0.00     0.037 A 
HETATM   21  C   UNL     1      -6.853  -1.550 -33.780  1.00  0.00     0.015 A 
BRANCH  19  22
HETATM   22  O   UNL     1      -5.991  -4.505 -35.721  1.00  0.00    -0.361 OA
HETATM   23  H   UNL     1      -6.533  -4.254 -36.487  1.00  0.00     0.217 HD
ENDBRANCH  19  22
ENDBRANCH  12  16
BRANCH   2  24
HETATM   24  C   UNL     1      -4.076   4.625 -32.697  1.00  0.00    -0.016 A 
HETATM   25  C   UNL     1      -2.918   4.012 -32.185  1.00  0.00     0.010 A 
HETATM   26  C   UNL     1      -1.687   4.678 -32.173  1.00  0.00     0.001 A 
HETATM   27  C   UNL     1      -1.581   5.967 -32.688  1.00  0.00     0.000 A 
HETATM   28  C   UNL     1      -2.702   6.587 -33.226  1.00  0.00     0.001 A 
HETATM   29  C   UNL     1      -3.930   5.920 -33.241  1.00  0.00     0.010 A 
ENDBRANCH   2  24
TORSDOF 3
ENDMDL
MODEL 3
REMARK VINA RESULT:      -9.0      2.343      4.196
REMARK  3 active torsions:
REMARK  status: ('A' for Active; 'I' for Inactive)
REMARK    1  A    between atoms: C_2  and  C_3 
REMARK    2  A    between atoms: C_18  and  C_19 
REMARK    3  A    between atoms: C_22  and  O_23 
ROOT
HETATM    1  C   UNL     1     -10.344   0.132 -32.322  1.00  0.00     0.060 C 
HETATM    2  C   UNL     1      -9.448   1.408 -32.287  1.00  0.00     0.210 C 
HETATM    3  N   UNL     1      -9.570   1.837 -30.881  1.00  0.00     0.110 N 
HETATM    4  C   UNL     1      -9.363   3.255 -30.608  1.00  0.00     0.374 C 
HETATM    5  C   UNL     1      -8.093   3.915 -31.103  1.00  0.00     0.250 C 
HETATM    6  O   UNL     1      -7.894   5.108 -30.826  1.00  0.00    -0.271 OA
HETATM    7  N   UNL     1      -7.096   3.288 -31.768  1.00  0.00    -0.325 N 
HETATM    8  C   UNL     1      -6.939   2.010 -32.313  1.00  0.00     0.044 A 
HETATM    9  C   UNL     1      -7.962   1.077 -32.546  1.00  0.00     0.012 A 
HETATM   10  C   UNL     1      -5.615   1.697 -32.670  1.00  0.00     0.031 A 
HETATM   11  C   UNL     1      -5.273   0.449 -33.188  1.00  0.00     0.014 A 
HETATM   12  C   UNL     1      -6.246  -0.530 -33.378  1.00  0.00    -0.025 A 
HETATM   13  C   UNL     1      -7.578  -0.186 -33.075  1.00  0.00     0.024 A 
HETATM   14  H   UNL     1      -8.928   1.284 -30.314  1.00  0.00     0.318 HD
HETATM   15  H   UNL     1      -6.305   3.917 -31.859  1.00  0.00     0.169 HD
ENDROOT
BRANCH  12  16
HETATM   16  C   UNL     1      -5.886  -1.878 -33.860  1.00  0.00    -0.026 A 
HETATM   17  C   UNL     1      -4.572  -2.365 -33.719  1.00  0.00     0.015 A 
HETATM   18  C   UNL     1      -4.217  -3.643 -34.160  1.00  0.00     0.037 A 
HETATM   19  C   UNL     1      -5.179  -4.453 -34.747  1.00  0.00     0.065 A 
HETATM   20  C   UNL     1      -6.484  -4.004 -34.900  1.00  0.00     0.037 A 
HETATM   21  C   UNL     1      -6.834  -2.723 -34.461  1.00  0.00     0.015 A 
BRANCH  19  22
HETATM   22  O   UNL     1      -4.881  -5.707 -35.188  1.00  0.00    -0.361 OA
HETATM   23  H   UNL     1      -3.925  -5.851 -35.090  1.00  0.00     0.217 HD
ENDBRANCH  19  22
ENDBRANCH  12  16
BRANCH   2  24
HETATM   24  C   UNL     1     -10.079   2.380 -33.319  1.00  0.00    -0.016 A 
HETATM   25  C   UNL     1      -9.311   3.083 -34.265  1.00  0.00     0.010 A 
HETATM   26  C   UNL     1      -9.906   3.957 -35.182  1.00  0.00     0.001 A 
HETATM   27  C   UNL     1     -11.286   4.137 -35.186  1.00  0.00     0.000 A 
HETATM   28  C   UNL     1     -12.074   3.435 -34.281  1.00  0.00     0.001 A 
HETATM   29  C   UNL     1     -11.479   2.560 -33.369  1.00  0.00     0.010 A 
ENDBRANCH   2  24
TORSDOF 3
ENDMDL
MODEL 4
REMARK VINA RESULT:      -8.8      2.012      3.643
REMARK  3 active torsions:
REMARK  status: ('A' for Active; 'I' for Inactive)
REMARK    1  A    between atoms: C_2  and  C_3 
REMARK    2  A    between atoms: C_18  and  C_19 
REMARK    3  A    between atoms: C_22  and  O_23 
ROOT
HETATM    1  C   UNL     1      -8.957   1.333 -31.286  1.00  0.00     0.060 C 
HETATM    2  C   UNL     1      -7.733   2.299 -31.273  1.00  0.00     0.210 C 
HETATM    3  N   UNL     1      -7.563   2.567 -29.832  1.00  0.00     0.110 N 
HETATM    4  C   UNL     1      -6.925   3.828 -29.471  1.00  0.00     0.374 C 
HETATM    5  C   UNL     1      -5.585   4.170 -30.087  1.00  0.00     0.250 C 
HETATM    6  O   UNL     1      -5.019   5.218 -29.739  1.00  0.00    -0.271 OA
HETATM    7  N   UNL     1      -4.895   3.382 -30.942  1.00  0.00    -0.325 N 
HETATM    8  C   UNL     1      -5.178   2.188 -31.613  1.00  0.00     0.044 A 
HETATM    9  C   UNL     1      -6.446   1.608 -31.773  1.00  0.00     0.012 A 
HETATM   10  C   UNL     1      -4.051   1.571 -32.185  1.00  0.00     0.031 A 
HETATM   11  C   UNL     1      -4.146   0.351 -32.853  1.00  0.00     0.014 A 
HETATM   12  C   UNL     1      -5.375  -0.291 -32.984  1.00  0.00    -0.025 A 
HETATM   13  C   UNL     1      -6.507   0.364 -32.460  1.00  0.00     0.024 A 
HETATM   14  H   UNL     1      -7.047   1.793 -29.415  1.00  0.00     0.318 HD
HETATM   15  H   UNL     1      -3.972   3.775 -31.093  1.00  0.00     0.169 HD
ENDROOT
BRANCH  12  16
HETATM   16  C   UNL     1      -5.478  -1.616 -33.628  1.00  0.00    -0.026 A 
HETATM   17  C   UNL     1      -4.351  -2.453 -33.733  1.00  0.00     0.015 A 
HETATM   18  C   UNL     1      -4.433  -3.715 -34.331  1.00  0.00     0.037 A 
HETATM   19  C   UNL     1      -5.652  -4.155 -34.828  1.00  0.00     0.065 A 
HETATM   20  C   UNL     1      -6.782  -3.354 -34.738  1.00  0.00     0.037 A 
HETATM   21  C   UNL     1      -6.695  -2.092 -34.144  1.00  0.00     0.015 A 
BRANCH  19  22
HETATM   22  O   UNL     1      -5.781  -5.378 -35.414  1.00  0.00    -0.361 OA
HETATM   23  H   UNL     1      -6.445  -5.889 -34.923  1.00  0.00     0.217 HD
ENDBRANCH  19  22
ENDBRANCH  12  16
BRANCH   2  24
HETATM   24  C   UNL     1      -8.171   3.528 -32.114  1.00  0.00    -0.016 A 
HETATM   25  C   UNL     1      -7.484   3.937 -33.271  1.00  0.00     0.010 A 
HETATM   26  C   UNL     1      -7.900   5.052 -34.008  1.00  0.00     0.001 A 
HETATM   27  C   UNL     1      -9.021   5.776 -33.615  1.00  0.00     0.000 A 
HETATM   28  C   UNL     1      -9.737   5.379 -32.491  1.00  0.00     0.001 A 
HETATM   29  C   UNL     1      -9.323   4.264 -31.758  1.00  0.00     0.010 A 
ENDBRANCH   2  24
TORSDOF 3
ENDMDL
MODEL 5
REMARK VINA RESULT:      -8.6      5.287      9.270
REMARK  3 active torsions:
REMARK  status: ('A' for Active; 'I' for Inactive)
REMARK    1  A    between atoms: C_2  and  C_3 
REMARK    2  A    between atoms: C_18  and  C_19 
REMARK    3  A    between atoms: C_22  and  O_23 
ROOT
HETATM    1  C   UNL     1      -4.720   5.790 -29.616  1.00  0.00     0.060 C 
HETATM    2  C   UNL     1      -4.095   5.520 -31.018  1.00  0.00     0.210 C 
HETATM    3  N   UNL     1      -4.903   6.389 -31.894  1.00  0.00     0.110 N 
HETATM    4  C   UNL     1      -5.010   5.991 -33.293  1.00  0.00     0.374 C 
HETATM    5  C   UNL     1      -3.740   5.731 -34.076  1.00  0.00     0.250 C 
HETATM    6  O   UNL     1      -3.830   5.444 -35.280  1.00  0.00    -0.271 OA
HETATM    7  N   UNL     1      -2.484   5.861 -33.592  1.00  0.00    -0.325 N 
HETATM    8  C   UNL     1      -1.947   6.104 -32.323  1.00  0.00     0.044 A 
HETATM    9  C   UNL     1      -2.632   6.005 -31.102  1.00  0.00     0.012 A 
HETATM   10  C   UNL     1      -0.583   6.444 -32.333  1.00  0.00     0.031 A 
HETATM   11  C   UNL     1       0.100   6.760 -31.161  1.00  0.00     0.014 A 
HETATM   12  C   UNL     1      -0.554   6.735 -29.931  1.00  0.00    -0.025 A 
HETATM   13  C   UNL     1      -1.904   6.334 -29.924  1.00  0.00     0.024 A 
HETATM   14  H   UNL     1      -4.539   7.339 -31.837  1.00  0.00     0.318 HD
HETATM   15  H   UNL     1      -1.819   5.766 -34.351  1.00  0.00     0.169 HD
ENDROOT
BRANCH  12  16
HETATM   16  C   UNL     1       0.139   7.134 -28.690  1.00  0.00    -0.026 A 
HETATM   17  C   UNL     1      -0.110   6.460 -27.479  1.00  0.00     0.015 A 
HETATM   18  C   UNL     1       0.546   6.817 -26.296  1.00  0.00     0.037 A 
HETATM   19  C   UNL     1       1.465   7.857 -26.316  1.00  0.00     0.065 A 
HETATM   20  C   UNL     1       1.734   8.541 -27.493  1.00  0.00     0.037 A 
HETATM   21  C   UNL     1       1.073   8.183 -28.672  1.00  0.00     0.015 A 
BRANCH  19  22
HETATM   22  O   UNL     1       2.131   8.238 -25.190  1.00  0.00    -0.361 OA
HETATM   23  H   UNL     1       1.525   8.749 -24.628  1.00  0.00     0.217 HD
ENDBRANCH  19  22
ENDBRANCH  12  16
BRANCH   2  24
HETATM   24  C   UNL     1      -4.282   3.998 -31.263  1.00  0.00    -0.016 A 
HETATM   25  C   UNL     1      -3.197   3.126 -31.468  1.00  0.00     0.010 A 
HETATM   26  C   UNL     1      -3.396   1.758 -31.691  1.00  0.00     0.001 A 
HETATM   27  C   UNL     1      -4.682   1.227 -31.698  1.00  0.00     0.000 A 
HETATM   28  C   UNL     1      -5.771   2.060 -31.470  1.00  0.00     0.001 A 
HETATM   29  C   UNL     1      -5.572   3.424 -31.244  1.00  0.00     0.010 A 
ENDBRANCH   2  24
TORSDOF 3
ENDMDL
MODEL 6
REMARK VINA RESULT:      -8.5      3.542      5.857
REMARK  3 active torsions:
REMARK  status: ('A' for Active; 'I' for Inactive)
REMARK    1  A    between atoms: C_2  and  C_3 
REMARK    2  A    between atoms: C_18  and  C_19 
REMARK    3  A    between atoms: C_22  and  O_23 
ROOT
HETATM    1  C   UNL     1      -8.265   3.232 -30.072  1.00  0.00     0.060 C 
HETATM    2  C   UNL     1      -7.155   2.343 -30.711  1.00  0.00     0.210 C 
HETATM    3  N   UNL     1      -6.665   1.573 -29.552  1.00  0.00     0.110 N 
HETATM    4  C   UNL     1      -5.293   1.085 -29.622  1.00  0.00     0.374 C 
HETATM    5  C   UNL     1      -4.868   0.274 -30.829  1.00  0.00     0.250 C 
HETATM    6  O   UNL     1      -3.716  -0.185 -30.863  1.00  0.00    -0.271 OA
HETATM    7  N   UNL     1      -5.672  -0.068 -31.861  1.00  0.00    -0.325 N 
HETATM    8  C   UNL     1      -6.976   0.270 -32.237  1.00  0.00     0.044 A 
HETATM    9  C   UNL     1      -7.734   1.337 -31.728  1.00  0.00     0.012 A 
HETATM   10  C   UNL     1      -7.514  -0.551 -33.244  1.00  0.00     0.031 A 
HETATM   11  C   UNL     1      -8.818  -0.381 -33.706  1.00  0.00     0.014 A 
HETATM   12  C   UNL     1      -9.628   0.626 -33.186  1.00  0.00    -0.025 A 
HETATM   13  C   UNL     1      -9.060   1.481 -32.222  1.00  0.00     0.024 A 
HETATM   14  H   UNL     1      -7.297   0.790 -29.389  1.00  0.00     0.318 HD
HETATM   15  H   UNL     1      -5.186  -0.724 -32.463  1.00  0.00     0.169 HD
ENDROOT
BRANCH  12  16
HETATM   16  C   UNL     1     -11.033   0.773 -33.618  1.00  0.00    -0.026 A 
HETATM   17  C   UNL     1     -11.432   1.874 -34.400  1.00  0.00     0.015 A 
HETATM   18  C   UNL     1     -12.756   2.023 -34.827  1.00  0.00     0.037 A 
HETATM   19  C   UNL     1     -13.697   1.065 -34.475  1.00  0.00     0.065 A 
HETATM   20  C   UNL     1     -13.334  -0.033 -33.707  1.00  0.00     0.037 A 
HETATM   21  C   UNL     1     -12.011  -0.176 -33.279  1.00  0.00     0.015 A 
BRANCH  19  22
HETATM   22  O   UNL     1     -14.996   1.166 -34.871  1.00  0.00    -0.361 OA
HETATM   23  H   UNL     1     -15.174   2.087 -35.123  1.00  0.00     0.217 HD
ENDBRANCH  19  22
ENDBRANCH  12  16
BRANCH   2  24
HETATM   24  C   UNL     1      -6.126   3.340 -31.308  1.00  0.00    -0.016 A 
HETATM   25  C   UNL     1      -5.852   3.410 -32.687  1.00  0.00     0.010 A 
HETATM   26  C   UNL     1      -4.916   4.316 -33.198  1.00  0.00     0.001 A 
HETATM   27  C   UNL     1      -4.242   5.186 -32.345  1.00  0.00     0.000 A 
HETATM   28  C   UNL     1      -4.512   5.159 -30.982  1.00  0.00     0.001 A 
HETATM   29  C   UNL     1      -5.450   4.257 -30.473  1.00  0.00     0.010 A 
ENDBRANCH   2  24
TORSDOF 3
ENDMDL
MODEL 7
REMARK VINA RESULT:      -8.2      3.678      5.695
REMARK  3 active torsions:
REMARK  status: ('A' for Active; 'I' for Inactive)
REMARK    1  A    between atoms: C_2  and  C_3 
REMARK    2  A    between atoms: C_18  and  C_19 
REMARK    3  A    between atoms: C_22  and  O_23 
ROOT
HETATM    1  C   UNL     1     -11.844   1.584 -34.870  1.00  0.00     0.060 C 
HETATM    2  C   UNL     1     -11.663   2.598 -33.699  1.00  0.00     0.210 C 
HETATM    3  N   UNL     1     -12.860   2.341 -32.876  1.00  0.00     0.110 N 
HETATM    4  C   UNL     1     -13.334   3.443 -32.047  1.00  0.00     0.374 C 
HETATM    5  C   UNL     1     -12.358   4.120 -31.107  1.00  0.00     0.250 C 
HETATM    6  O   UNL     1     -12.775   5.022 -30.364  1.00  0.00    -0.271 OA
HETATM    7  N   UNL     1     -11.062   3.771 -30.943  1.00  0.00    -0.325 N 
HETATM    8  C   UNL     1     -10.202   2.880 -31.592  1.00  0.00     0.044 A 
HETATM    9  C   UNL     1     -10.425   2.272 -32.838  1.00  0.00     0.012 A 
HETATM   10  C   UNL     1      -9.004   2.632 -30.899  1.00  0.00     0.031 A 
HETATM   11  C   UNL     1      -8.052   1.735 -31.382  1.00  0.00     0.014 A 
HETATM   12  C   UNL     1      -8.259   1.062 -32.584  1.00  0.00    -0.025 A 
HETATM   13  C   UNL     1      -9.434   1.363 -33.301  1.00  0.00     0.024 A 
HETATM   14  H   UNL     1     -12.683   1.525 -32.290  1.00  0.00     0.318 HD
HETATM   15  H   UNL     1     -10.672   4.285 -30.161  1.00  0.00     0.169 HD
ENDROOT
BRANCH  12  16
HETATM   16  C   UNL     1      -7.292   0.058 -33.072  1.00  0.00    -0.026 A 
HETATM   17  C   UNL     1      -6.091  -0.179 -32.376  1.00  0.00     0.015 A 
HETATM   18  C   UNL     1      -5.168  -1.133 -32.818  1.00  0.00     0.037 A 
HETATM   19  C   UNL     1      -5.442  -1.865 -33.965  1.00  0.00     0.065 A 
HETATM   20  C   UNL     1      -6.618  -1.656 -34.673  1.00  0.00     0.037 A 
HETATM   21  C   UNL     1      -7.536  -0.699 -34.230  1.00  0.00     0.015 A 
BRANCH  19  22
HETATM   22  O   UNL     1      -4.576  -2.807 -34.431  1.00  0.00    -0.361 OA
HETATM   23  H   UNL     1      -4.894  -3.684 -34.158  1.00  0.00     0.217 HD
ENDBRANCH  19  22
ENDBRANCH  12  16
BRANCH   2  24
HETATM   24  C   UNL     1     -11.628   3.997 -34.372  1.00  0.00    -0.016 A 
HETATM   25  C   UNL     1     -10.472   4.798 -34.392  1.00  0.00     0.010 A 
HETATM   26  C   UNL     1     -10.469   6.058 -35.002  1.00  0.00     0.001 A 
HETATM   27  C   UNL     1     -11.618   6.540 -35.621  1.00  0.00     0.000 A 
HETATM   28  C   UNL     1     -12.768   5.759 -35.642  1.00  0.00     0.001 A 
HETATM   29  C   UNL     1     -12.769   4.500 -35.036  1.00  0.00     0.010 A 
ENDBRANCH   2  24
TORSDOF 3
ENDMDL
MODEL 8
REMARK VINA RESULT:      -7.8      4.228      6.369
REMARK  3 active torsions:
REMARK  status: ('A' for Active; 'I' for Inactive)
REMARK    1  A    between atoms: C_2  and  C_3 
REMARK    2  A    between atoms: C_18  and  C_19 
REMARK    3  A    between atoms: C_22  and  O_23 
ROOT
HETATM    1  C   UNL     1     -10.288   4.327 -35.025  1.00  0.00     0.060 C 
HETATM    2  C   UNL     1     -10.915   3.124 -34.255  1.00  0.00     0.210 C 
HETATM    3  N   UNL     1     -11.532   2.343 -35.343  1.00  0.00     0.110 N 
HETATM    4  C   UNL     1     -12.664   1.498 -34.983  1.00  0.00     0.374 C 
HETATM    5  C   UNL     1     -12.505   0.512 -33.844  1.00  0.00     0.250 C 
HETATM    6  O   UNL     1     -13.452  -0.242 -33.572  1.00  0.00    -0.271 OA
HETATM    7  N   UNL     1     -11.373   0.321 -33.130  1.00  0.00    -0.325 N 
HETATM    8  C   UNL     1     -10.135   0.969 -33.070  1.00  0.00     0.044 A 
HETATM    9  C   UNL     1      -9.838   2.236 -33.596  1.00  0.00     0.012 A 
HETATM   10  C   UNL     1      -9.143   0.248 -32.382  1.00  0.00     0.031 A 
HETATM   11  C   UNL     1      -7.839   0.727 -32.266  1.00  0.00     0.014 A 
HETATM   12  C   UNL     1      -7.483   1.953 -32.824  1.00  0.00    -0.025 A 
HETATM   13  C   UNL     1      -8.498   2.695 -33.459  1.00  0.00     0.024 A 
HETATM   14  H   UNL     1     -10.810   1.775 -35.786  1.00  0.00     0.318 HD
HETATM   15  H   UNL     1     -11.488  -0.487 -32.527  1.00  0.00     0.169 HD
ENDROOT
BRANCH  12  16
HETATM   16  C   UNL     1      -6.090   2.440 -32.768  1.00  0.00    -0.026 A 
HETATM   17  C   UNL     1      -5.753   3.711 -33.271  1.00  0.00     0.015 A 
HETATM   18  C   UNL     1      -4.441   4.193 -33.217  1.00  0.00     0.037 A 
HETATM   19  C   UNL     1      -3.449   3.403 -32.651  1.00  0.00     0.065 A 
HETATM   20  C   UNL     1      -3.749   2.146 -32.145  1.00  0.00     0.037 A 
HETATM   21  C   UNL     1      -5.061   1.667 -32.205  1.00  0.00     0.015 A 
BRANCH  19  22
HETATM   22  O   UNL     1      -2.158   3.831 -32.572  1.00  0.00    -0.361 OA
HETATM   23  H   UNL     1      -1.905   4.214 -33.428  1.00  0.00     0.217 HD
ENDBRANCH  19  22
ENDBRANCH  12  16
BRANCH   2  24
HETATM   24  C   UNL     1     -11.923   3.757 -33.259  1.00  0.00    -0.016 A 
HETATM   25  C   UNL     1     -11.761   3.676 -31.863  1.00  0.00     0.010 A 
HETATM   26  C   UNL     1     -12.689   4.253 -30.988  1.00  0.00     0.001 A 
HETATM   27  C   UNL     1     -13.793   4.938 -31.486  1.00  0.00     0.000 A 
HETATM   28  C   UNL     1     -13.965   5.058 -32.861  1.00  0.00     0.001 A 
HETATM   29  C   UNL     1     -13.036   4.485 -33.734  1.00  0.00     0.010 A 
ENDBRANCH   2  24
TORSDOF 3
ENDMDL
MODEL 9
REMARK VINA RESULT:      -7.8      3.976      5.376
REMARK  3 active torsions:
REMARK  status: ('A' for Active; 'I' for Inactive)
REMARK    1  A    between atoms: C_2  and  C_3 
REMARK    2  A    between atoms: C_18  and  C_19 
REMARK    3  A    between atoms: C_22  and  O_23 
ROOT
HETATM    1  C   UNL     1      -9.141   4.366 -34.299  1.00  0.00     0.060 C 
HETATM    2  C   UNL     1     -10.375   3.443 -34.063  1.00  0.00     0.210 C 
HETATM    3  N   UNL     1     -10.908   3.277 -35.429  1.00  0.00     0.110 N 
HETATM    4  C   UNL     1     -12.331   2.980 -35.545  1.00  0.00     0.374 C 
HETATM    5  C   UNL     1     -12.898   1.811 -34.767  1.00  0.00     0.250 C 
HETATM    6  O   UNL     1     -14.097   1.528 -34.908  1.00  0.00    -0.271 OA
HETATM    7  N   UNL     1     -12.183   0.981 -33.974  1.00  0.00    -0.325 N 
HETATM    8  C   UNL     1     -10.864   0.971 -33.510  1.00  0.00     0.044 A 
HETATM    9  C   UNL     1      -9.963   2.046 -33.551  1.00  0.00     0.012 A 
HETATM   10  C   UNL     1     -10.469  -0.249 -32.931  1.00  0.00     0.031 A 
HETATM   11  C   UNL     1      -9.174  -0.447 -32.456  1.00  0.00     0.014 A 
HETATM   12  C   UNL     1      -8.228   0.572 -32.532  1.00  0.00    -0.025 A 
HETATM   13  C   UNL     1      -8.649   1.809 -33.058  1.00  0.00     0.024 A 
HETATM   14  H   UNL     1     -10.369   2.554 -35.903  1.00  0.00     0.318 HD
HETATM   15  H   UNL     1     -12.768   0.205 -33.684  1.00  0.00     0.169 HD
ENDROOT
BRANCH  12  16
HETATM   16  C   UNL     1      -6.834   0.353 -32.096  1.00  0.00    -0.026 A 
HETATM   17  C   UNL     1      -5.907  -0.283 -32.946  1.00  0.00     0.015 A 
HETATM   18  C   UNL     1      -4.581  -0.489 -32.554  1.00  0.00     0.037 A 
HETATM   19  C   UNL     1      -4.166  -0.056 -31.302  1.00  0.00     0.065 A 
HETATM   20  C   UNL     1      -5.054   0.575 -30.442  1.00  0.00     0.037 A 
HETATM   21  C   UNL     1      -6.381   0.776 -30.836  1.00  0.00     0.015 A 
BRANCH  19  22
HETATM   22  O   UNL     1      -2.883  -0.231 -30.878  1.00  0.00    -0.361 OA
HETATM   23  H   UNL     1      -2.627  -1.155 -31.038  1.00  0.00     0.217 HD
ENDBRANCH  19  22
ENDBRANCH  12  16
BRANCH   2  24
HETATM   24  C   UNL     1     -11.299   4.234 -33.098  1.00  0.00    -0.016 A 
HETATM   25  C   UNL     1     -11.940   5.429 -33.474  1.00  0.00     0.010 A 
HETATM   26  C   UNL     1     -12.764   6.124 -32.582  1.00  0.00     0.001 A 
HETATM   27  C   UNL     1     -12.981   5.634 -31.298  1.00  0.00     0.000 A 
HETATM   28  C   UNL     1     -12.384   4.441 -30.907  1.00  0.00     0.001 A 
HETATM   29  C   UNL     1     -11.564   3.745 -31.800  1.00  0.00     0.010 A 
ENDBRANCH   2  24
TORSDOF 3
ENDMDL
MODEL 10
REMARK VINA RESULT:      -7.7     15.133     16.806
REMARK  3 active torsions:
REMARK  status: ('A' for Active; 'I' for Inactive)
REMARK    1  A    between atoms: C_2  and  C_3 
REMARK    2  A    between atoms: C_18  and  C_19 
REMARK    3  A    between atoms: C_22  and  O_23 
ROOT
HETATM    1  C   UNL     1      -6.438 -16.832 -35.965  1.00  0.00     0.060 C 
HETATM    2  C   UNL     1      -5.358 -15.707 -35.945  1.00  0.00     0.210 C 
HETATM    3  N   UNL     1      -4.149 -16.428 -36.388  1.00  0.00     0.110 N 
HETATM    4  C   UNL     1      -2.867 -15.886 -35.953  1.00  0.00     0.374 C 
HETATM    5  C   UNL     1      -2.565 -14.426 -36.219  1.00  0.00     0.250 C 
HETATM    6  O   UNL     1      -1.453 -13.979 -35.896  1.00  0.00    -0.271 OA
HETATM    7  N   UNL     1      -3.384 -13.563 -36.863  1.00  0.00    -0.325 N 
HETATM    8  C   UNL     1      -4.700 -13.632 -37.330  1.00  0.00     0.044 A 
HETATM    9  C   UNL     1      -5.652 -14.605 -36.985  1.00  0.00     0.012 A 
HETATM   10  C   UNL     1      -5.056 -12.586 -38.199  1.00  0.00     0.031 A 
HETATM   11  C   UNL     1      -6.316 -12.523 -38.792  1.00  0.00     0.014 A 
HETATM   12  C   UNL     1      -7.272 -13.501 -38.526  1.00  0.00    -0.025 A 
HETATM   13  C   UNL     1      -6.928 -14.512 -37.608  1.00  0.00     0.024 A 
HETATM   14  H   UNL     1      -4.163 -16.494 -37.406  1.00  0.00     0.318 HD
HETATM   15  H   UNL     1      -2.891 -12.694 -37.033  1.00  0.00     0.169 HD
ENDROOT
BRANCH  12  16
HETATM   16  C   UNL     1      -8.586 -13.485 -39.200  1.00  0.00    -0.026 A 
HETATM   17  C   UNL     1      -9.215 -14.688 -39.577  1.00  0.00     0.015 A 
HETATM   18  C   UNL     1     -10.464 -14.692 -40.207  1.00  0.00     0.037 A 
HETATM   19  C   UNL     1     -11.100 -13.485 -40.463  1.00  0.00     0.065 A 
HETATM   20  C   UNL     1     -10.508 -12.282 -40.102  1.00  0.00     0.037 A 
HETATM   21  C   UNL     1      -9.258 -12.283 -39.477  1.00  0.00     0.015 A 
BRANCH  19  22
HETATM   22  O   UNL     1     -12.319 -13.439 -41.070  1.00  0.00    -0.361 OA
HETATM   23  H   UNL     1     -12.217 -13.022 -41.942  1.00  0.00     0.217 HD
ENDBRANCH  19  22
ENDBRANCH  12  16
BRANCH   2  24
HETATM   24  C   UNL     1      -5.314 -15.209 -34.476  1.00  0.00    -0.016 A 
HETATM   25  C   UNL     1      -5.638 -13.888 -34.114  1.00  0.00     0.010 A 
HETATM   26  C   UNL     1      -5.585 -13.464 -32.781  1.00  0.00     0.001 A 
HETATM   27  C   UNL     1      -5.222 -14.354 -31.776  1.00  0.00     0.000 A 
HETATM   28  C   UNL     1      -4.923 -15.673 -32.098  1.00  0.00     0.001 A 
HETATM   29  C   UNL     1      -4.980 -16.096 -33.429  1.00  0.00     0.010 A 
ENDBRANCH   2  24
TORSDOF 3
ENDMDL
