MODEL 1
REMARK VINA RESULT:      -8.8      0.000      0.000
REMARK  3 active torsions:
REMARK  status: ('A' for Active; 'I' for Inactive)
REMARK    1  A    between atoms: C_11  and  N_12 
REMARK       I    between atoms: N_12  and  C_13 
REMARK    2  A    between atoms: C_13  and  C_14 
REMARK    3  A    between atoms: C_15  and  C_16 
ROOT
HETATM    1  N   UNL     1      -5.664   1.767 -32.027  1.00  0.00    -0.352 N 
HETATM    2  C   UNL     1      -6.511   0.668 -32.108  1.00  0.00     0.255 C 
HETATM    3  O   UNL     1      -6.676  -0.099 -31.168  1.00  0.00    -0.268 OA
HETATM    4  H   UNL     1      -5.325   2.062 -32.936  1.00  0.00     0.163 HD
ENDROOT
BRANCH   2   5
HETATM    5  C   UNL     1      -7.177   0.517 -33.391  1.00  0.00     0.080 A 
HETATM    6  C   UNL     1      -7.104  -0.566 -34.327  1.00  0.00     0.104 A 
HETATM    7  N   UNL     1      -7.935  -0.352 -35.362  1.00  0.00    -0.174 NA
HETATM    8  N   UNL     1      -8.512   0.824 -35.111  1.00  0.00    -0.288 N 
HETATM    9  H   UNL     1      -9.198   1.168 -35.777  1.00  0.00     0.188 HD
HETATM   10  C   UNL     1      -8.087   1.397 -33.952  1.00  0.00     0.128 A 
BRANCH   6  11
HETATM   11  C   UNL     1      -6.277  -1.777 -34.303  1.00  0.00    -0.004 A 
HETATM   12  C   UNL     1      -6.825  -3.005 -34.712  1.00  0.00     0.017 A 
HETATM   13  C   UNL     1      -6.046  -4.164 -34.724  1.00  0.00     0.043 A 
HETATM   14  C   UNL     1      -4.715  -4.097 -34.333  1.00  0.00     0.116 A 
HETATM   15  F   UNL     1      -3.965  -5.205 -34.346  1.00  0.00    -0.206 F 
HETATM   16  C   UNL     1      -4.148  -2.892 -33.934  1.00  0.00     0.043 A 
HETATM   17  C   UNL     1      -4.927  -1.732 -33.924  1.00  0.00     0.017 A 
ENDBRANCH   6  11
ENDBRANCH   2   5
BRANCH   1  18
HETATM   18  C   UNL     1      -4.801   1.971 -30.872  1.00  0.00     0.089 C 
HETATM   19  C   UNL     1      -5.386   2.878 -29.778  1.00  0.00     0.063 C 
HETATM   20  C   UNL     1      -5.460   4.366 -30.136  1.00  0.00     0.121 C 
HETATM   21  N   UNL     1      -4.116   4.823 -30.668  1.00  0.00    -0.059 N 
HETATM   22  C   UNL     1      -6.572   4.720 -31.127  1.00  0.00     0.046 C 
HETATM   23  C   UNL     1      -5.709   5.184 -28.852  1.00  0.00     0.046 C 
HETATM   24  C   UNL     1      -3.356   3.979 -31.668  1.00  0.00     0.121 C 
HETATM   25  H   UNL     1      -3.502   4.945 -29.848  1.00  0.00     0.279 HD
HETATM   26  H   UNL     1      -4.220   5.777 -31.043  1.00  0.00     0.279 HD
HETATM   27  C   UNL     1      -3.865   4.256 -33.087  1.00  0.00     0.046 C 
HETATM   28  C   UNL     1      -1.891   4.456 -31.604  1.00  0.00     0.046 C 
HETATM   29  C   UNL     1      -3.417   2.492 -31.273  1.00  0.00     0.063 C 
ENDBRANCH   1  18
TORSDOF 3
ENDMDL
MODEL 2
REMARK VINA RESULT:      -8.7      2.500      4.849
REMARK  3 active torsions:
REMARK  status: ('A' for Active; 'I' for Inactive)
REMARK    1  A    between atoms: C_11  and  N_12 
REMARK       I    between atoms: N_12  and  C_13 
REMARK    2  A    between atoms: C_13  and  C_14 
REMARK    3  A    between atoms: C_15  and  C_16 
ROOT
HETATM    1  N   UNL     1      -7.324   2.572 -32.962  1.00  0.00    -0.352 N 
HETATM    2  C   UNL     1      -6.358   1.845 -33.646  1.00  0.00     0.255 C 
HETATM    3  O   UNL     1      -6.365   1.738 -34.865  1.00  0.00    -0.268 OA
HETATM    4  H   UNL     1      -7.433   2.263 -32.001  1.00  0.00     0.163 HD
ENDROOT
BRANCH   2   5
HETATM    5  C   UNL     1      -5.349   1.237 -32.794  1.00  0.00     0.080 A 
HETATM    6  C   UNL     1      -4.884  -0.119 -32.767  1.00  0.00     0.104 A 
HETATM    7  N   UNL     1      -3.885  -0.257 -31.880  1.00  0.00    -0.174 NA
HETATM    8  N   UNL     1      -3.717   0.954 -31.348  1.00  0.00    -0.288 N 
HETATM    9  H   UNL     1      -2.985   1.071 -30.653  1.00  0.00     0.188 HD
HETATM   10  C   UNL     1      -4.575   1.886 -31.847  1.00  0.00     0.128 A 
BRANCH   6  11
HETATM   11  C   UNL     1      -5.351  -1.288 -33.519  1.00  0.00    -0.004 A 
HETATM   12  C   UNL     1      -4.420  -2.230 -33.992  1.00  0.00     0.017 A 
HETATM   13  C   UNL     1      -4.846  -3.366 -34.685  1.00  0.00     0.043 A 
HETATM   14  C   UNL     1      -6.203  -3.565 -34.902  1.00  0.00     0.116 A 
HETATM   15  F   UNL     1      -6.615  -4.654 -35.563  1.00  0.00    -0.206 F 
HETATM   16  C   UNL     1      -7.142  -2.654 -34.435  1.00  0.00     0.043 A 
HETATM   17  C   UNL     1      -6.717  -1.518 -33.739  1.00  0.00     0.017 A 
ENDBRANCH   6  11
ENDBRANCH   2   5
BRANCH   1  18
HETATM   18  C   UNL     1      -8.491   3.108 -33.647  1.00  0.00     0.089 C 
HETATM   19  C   UNL     1      -9.290   4.151 -32.849  1.00  0.00     0.063 C 
HETATM   20  C   UNL     1     -10.091   3.593 -31.669  1.00  0.00     0.121 C 
HETATM   21  N   UNL     1     -10.911   2.406 -32.132  1.00  0.00    -0.059 N 
HETATM   22  C   UNL     1      -9.239   3.210 -30.455  1.00  0.00     0.046 C 
HETATM   23  C   UNL     1     -11.107   4.655 -31.200  1.00  0.00     0.046 C 
HETATM   24  C   UNL     1     -10.298   1.348 -33.023  1.00  0.00     0.121 C 
HETATM   25  H   UNL     1     -11.725   2.790 -32.635  1.00  0.00     0.279 HD
HETATM   26  H   UNL     1     -11.324   1.951 -31.305  1.00  0.00     0.279 HD
HETATM   27  C   UNL     1      -9.534   0.323 -32.177  1.00  0.00     0.046 C 
HETATM   28  C   UNL     1     -11.480   0.608 -33.683  1.00  0.00     0.046 C 
HETATM   29  C   UNL     1      -9.439   2.001 -34.121  1.00  0.00     0.063 C 
ENDBRANCH   1  18
TORSDOF 3
ENDMDL
MODEL 3
REMARK VINA RESULT:      -8.7      1.687      2.000
REMARK  3 active torsions:
REMARK  status: ('A' for Active; 'I' for Inactive)
REMARK    1  A    between atoms: C_11  and  N_12 
REMARK       I    between atoms: N_12  and  C_13 
REMARK    2  A    between atoms: C_13  and  C_14 
REMARK    3  A    between atoms: C_15  and  C_16 
ROOT
HETATM    1  N   UNL     1      -5.142   3.145 -33.014  1.00  0.00    -0.352 N 
HETATM    2  C   UNL     1      -6.016   2.200 -32.491  1.00  0.00     0.255 C 
HETATM    3  O   UNL     1      -5.917   1.784 -31.344  1.00  0.00    -0.268 OA
HETATM    4  H   UNL     1      -5.084   3.100 -34.027  1.00  0.00     0.163 HD
ENDROOT
BRANCH   2   5
HETATM    5  C   UNL     1      -7.046   1.758 -33.416  1.00  0.00     0.080 A 
HETATM    6  C   UNL     1      -7.186   0.497 -34.083  1.00  0.00     0.104 A 
HETATM    7  N   UNL     1      -8.323   0.464 -34.798  1.00  0.00    -0.174 NA
HETATM    8  N   UNL     1      -8.890   1.656 -34.611  1.00  0.00    -0.288 N 
HETATM    9  H   UNL     1      -9.783   1.834 -35.062  1.00  0.00     0.188 HD
HETATM   10  C   UNL     1      -8.165   2.478 -33.804  1.00  0.00     0.128 A 
BRANCH   6  11
HETATM   11  C   UNL     1      -6.291  -0.665 -34.094  1.00  0.00    -0.004 A 
HETATM   12  C   UNL     1      -6.742  -1.888 -34.620  1.00  0.00     0.017 A 
HETATM   13  C   UNL     1      -5.895  -2.998 -34.666  1.00  0.00     0.043 A 
HETATM   14  C   UNL     1      -4.595  -2.887 -34.193  1.00  0.00     0.116 A 
HETATM   15  F   UNL     1      -3.780  -3.948 -34.239  1.00  0.00    -0.206 F 
HETATM   16  C   UNL     1      -4.123  -1.685 -33.679  1.00  0.00     0.043 A 
HETATM   17  C   UNL     1      -4.969  -0.573 -33.634  1.00  0.00     0.017 A 
ENDBRANCH   6  11
ENDBRANCH   2   5
BRANCH   1  18
HETATM   18  C   UNL     1      -3.961   3.570 -32.277  1.00  0.00     0.089 C 
HETATM   19  C   UNL     1      -4.181   4.764 -31.335  1.00  0.00     0.063 C 
HETATM   20  C   UNL     1      -4.380   6.115 -32.029  1.00  0.00     0.121 C 
HETATM   21  N   UNL     1      -3.278   6.324 -33.049  1.00  0.00    -0.059 N 
HETATM   22  C   UNL     1      -5.753   6.288 -32.686  1.00  0.00     0.046 C 
HETATM   23  C   UNL     1      -4.221   7.246 -30.992  1.00  0.00     0.046 C 
HETATM   24  C   UNL     1      -2.864   5.202 -33.976  1.00  0.00     0.121 C 
HETATM   25  H   UNL     1      -2.438   6.605 -32.519  1.00  0.00     0.279 HD
HETATM   26  H   UNL     1      -3.506   7.158 -33.610  1.00  0.00     0.279 HD
HETATM   27  C   UNL     1      -3.797   5.149 -35.190  1.00  0.00     0.046 C 
HETATM   28  C   UNL     1      -1.458   5.573 -34.492  1.00  0.00     0.046 C 
HETATM   29  C   UNL     1      -2.780   3.872 -33.206  1.00  0.00     0.063 C 
ENDBRANCH   1  18
TORSDOF 3
ENDMDL
MODEL 4
REMARK VINA RESULT:      -8.6      2.404      3.883
REMARK  3 active torsions:
REMARK  status: ('A' for Active; 'I' for Inactive)
REMARK    1  A    between atoms: C_11  and  N_12 
REMARK       I    between atoms: N_12  and  C_13 
REMARK    2  A    between atoms: C_13  and  C_14 
REMARK    3  A    between atoms: C_15  and  C_16 
ROOT
HETATM    1  N   UNL     1      -5.428   3.877 -32.322  1.00  0.00    -0.352 N 
HETATM    2  C   UNL     1      -6.338   2.841 -32.497  1.00  0.00     0.255 C 
HETATM    3  O   UNL     1      -7.036   2.749 -33.499  1.00  0.00    -0.268 OA
HETATM    4  H   UNL     1      -5.228   4.054 -31.343  1.00  0.00     0.163 HD
ENDROOT
BRANCH   2   5
HETATM    5  C   UNL     1      -6.382   1.889 -31.400  1.00  0.00     0.080 A 
HETATM    6  C   UNL     1      -6.199   0.468 -31.426  1.00  0.00     0.104 A 
HETATM    7  N   UNL     1      -6.242  -0.037 -30.181  1.00  0.00    -0.174 NA
HETATM    8  N   UNL     1      -6.454   1.011 -29.385  1.00  0.00    -0.288 N 
HETATM    9  H   UNL     1      -6.505   0.845 -28.384  1.00  0.00     0.188 HD
HETATM   10  C   UNL     1      -6.560   2.189 -30.059  1.00  0.00     0.128 A 
BRANCH   6  11
HETATM   11  C   UNL     1      -6.007  -0.435 -32.566  1.00  0.00    -0.004 A 
HETATM   12  C   UNL     1      -4.752  -1.030 -32.782  1.00  0.00     0.017 A 
HETATM   13  C   UNL     1      -4.557  -1.916 -33.845  1.00  0.00     0.043 A 
HETATM   14  C   UNL     1      -5.618  -2.212 -34.690  1.00  0.00     0.116 A 
HETATM   15  F   UNL     1      -5.435  -3.063 -35.708  1.00  0.00    -0.206 F 
HETATM   16  C   UNL     1      -6.870  -1.645 -34.491  1.00  0.00     0.043 A 
HETATM   17  C   UNL     1      -7.067  -0.760 -33.426  1.00  0.00     0.017 A 
ENDBRANCH   6  11
ENDBRANCH   2   5
BRANCH   1  18
HETATM   18  C   UNL     1      -5.375   4.999 -33.248  1.00  0.00     0.089 C 
HETATM   19  C   UNL     1      -4.184   4.982 -34.219  1.00  0.00     0.063 C 
HETATM   20  C   UNL     1      -2.823   5.286 -33.585  1.00  0.00     0.121 C 
HETATM   21  N   UNL     1      -2.926   6.549 -32.752  1.00  0.00    -0.059 N 
HETATM   22  C   UNL     1      -2.249   4.141 -32.746  1.00  0.00     0.046 C 
HETATM   23  C   UNL     1      -1.803   5.596 -34.700  1.00  0.00     0.046 C 
HETATM   24  C   UNL     1      -4.106   6.767 -31.829  1.00  0.00     0.121 C 
HETATM   25  H   UNL     1      -2.910   7.339 -33.414  1.00  0.00     0.279 HD
HETATM   26  H   UNL     1      -2.054   6.658 -32.214  1.00  0.00     0.279 HD
HETATM   27  C   UNL     1      -3.867   6.060 -30.491  1.00  0.00     0.046 C 
HETATM   28  C   UNL     1      -4.151   8.283 -31.547  1.00  0.00     0.046 C 
HETATM   29  C   UNL     1      -5.415   6.347 -32.522  1.00  0.00     0.063 C 
ENDBRANCH   1  18
TORSDOF 3
ENDMDL
MODEL 5
REMARK VINA RESULT:      -8.6      2.432      4.246
REMARK  3 active torsions:
REMARK  status: ('A' for Active; 'I' for Inactive)
REMARK    1  A    between atoms: C_11  and  N_12 
REMARK       I    between atoms: N_12  and  C_13 
REMARK    2  A    between atoms: C_13  and  C_14 
REMARK    3  A    between atoms: C_15  and  C_16 
ROOT
HETATM    1  N   UNL     1      -6.348   1.319 -31.846  1.00  0.00    -0.352 N 
HETATM    2  C   UNL     1      -5.992   0.136 -31.209  1.00  0.00     0.255 C 
HETATM    3  O   UNL     1      -6.775  -0.484 -30.501  1.00  0.00    -0.268 OA
HETATM    4  H   UNL     1      -5.545   1.905 -32.051  1.00  0.00     0.163 HD
ENDROOT
BRANCH   2   5
HETATM    5  C   UNL     1      -4.627  -0.294 -31.462  1.00  0.00     0.080 A 
HETATM    6  C   UNL     1      -4.143  -1.275 -32.389  1.00  0.00     0.104 A 
HETATM    7  N   UNL     1      -2.800  -1.322 -32.368  1.00  0.00    -0.174 NA
HETATM    8  N   UNL     1      -2.431  -0.418 -31.459  1.00  0.00    -0.288 N 
HETATM    9  H   UNL     1      -1.437  -0.284 -31.298  1.00  0.00     0.188 HD
HETATM   10  C   UNL     1      -3.483   0.218 -30.874  1.00  0.00     0.128 A 
BRANCH   6  11
HETATM   11  C   UNL     1      -4.885  -2.180 -33.274  1.00  0.00    -0.004 A 
HETATM   12  C   UNL     1      -6.163  -1.815 -33.731  1.00  0.00     0.017 A 
HETATM   13  C   UNL     1      -6.873  -2.650 -34.598  1.00  0.00     0.043 A 
HETATM   14  C   UNL     1      -6.305  -3.847 -35.013  1.00  0.00     0.116 A 
HETATM   15  F   UNL     1      -6.982  -4.647 -35.846  1.00  0.00    -0.206 F 
HETATM   16  C   UNL     1      -5.038  -4.222 -34.583  1.00  0.00     0.043 A 
HETATM   17  C   UNL     1      -4.326  -3.387 -33.717  1.00  0.00     0.017 A 
ENDBRANCH   6  11
ENDBRANCH   2   5
BRANCH   1  18
HETATM   18  C   UNL     1      -7.620   1.971 -31.570  1.00  0.00     0.089 C 
HETATM   19  C   UNL     1      -8.819   1.407 -32.350  1.00  0.00     0.063 C 
HETATM   20  C   UNL     1      -8.837   1.737 -33.845  1.00  0.00     0.121 C 
HETATM   21  N   UNL     1      -8.619   3.225 -34.035  1.00  0.00    -0.059 N 
HETATM   22  C   UNL     1      -7.828   0.941 -34.678  1.00  0.00     0.046 C 
HETATM   23  C   UNL     1     -10.240   1.438 -34.413  1.00  0.00     0.046 C 
HETATM   24  C   UNL     1      -7.549   3.952 -33.250  1.00  0.00     0.121 C 
HETATM   25  H   UNL     1      -9.517   3.684 -33.818  1.00  0.00     0.279 HD
HETATM   26  H   UNL     1      -8.483   3.411 -35.039  1.00  0.00     0.279 HD
HETATM   27  C   UNL     1      -6.190   3.798 -33.941  1.00  0.00     0.046 C 
HETATM   28  C   UNL     1      -7.923   5.448 -33.302  1.00  0.00     0.046 C 
HETATM   29  C   UNL     1      -7.548   3.487 -31.783  1.00  0.00     0.063 C 
ENDBRANCH   1  18
TORSDOF 3
ENDMDL
MODEL 6
REMARK VINA RESULT:      -8.1      4.243      8.319
REMARK  3 active torsions:
REMARK  status: ('A' for Active; 'I' for Inactive)
REMARK    1  A    between atoms: C_11  and  N_12 
REMARK       I    between atoms: N_12  and  C_13 
REMARK    2  A    between atoms: C_13  and  C_14 
REMARK    3  A    between atoms: C_15  and  C_16 
ROOT
HETATM    1  N   UNL     1      -3.783   3.393 -32.443  1.00  0.00    -0.352 N 
HETATM    2  C   UNL     1      -2.615   4.096 -32.173  1.00  0.00     0.255 C 
HETATM    3  O   UNL     1      -1.854   3.773 -31.270  1.00  0.00    -0.268 OA
HETATM    4  H   UNL     1      -4.478   3.965 -32.912  1.00  0.00     0.163 HD
ENDROOT
BRANCH   2   5
HETATM    5  C   UNL     1      -2.380   5.231 -33.051  1.00  0.00     0.080 A 
HETATM    6  C   UNL     1      -1.701   6.463 -32.777  1.00  0.00     0.104 A 
HETATM    7  N   UNL     1      -1.634   7.221 -33.884  1.00  0.00    -0.174 NA
HETATM    8  N   UNL     1      -2.253   6.515 -34.831  1.00  0.00    -0.288 N 
HETATM    9  H   UNL     1      -2.301   6.912 -35.765  1.00  0.00     0.188 HD
HETATM   10  C   UNL     1      -2.733   5.321 -34.387  1.00  0.00     0.128 A 
BRANCH   6  11
HETATM   11  C   UNL     1      -1.133   6.965 -31.521  1.00  0.00    -0.004 A 
HETATM   12  C   UNL     1      -1.915   7.770 -30.675  1.00  0.00     0.017 A 
HETATM   13  C   UNL     1      -1.403   8.234 -29.461  1.00  0.00     0.043 A 
HETATM   14  C   UNL     1      -0.111   7.889 -29.088  1.00  0.00     0.116 A 
HETATM   15  F   UNL     1       0.382   8.330 -27.923  1.00  0.00    -0.206 F 
HETATM   16  C   UNL     1       0.677   7.086 -29.903  1.00  0.00     0.043 A 
HETATM   17  C   UNL     1       0.165   6.619 -31.117  1.00  0.00     0.017 A 
ENDBRANCH   6  11
ENDBRANCH   2   5
BRANCH   1  18
HETATM   18  C   UNL     1      -4.247   2.333 -31.560  1.00  0.00     0.089 C 
HETATM   19  C   UNL     1      -4.923   1.149 -32.269  1.00  0.00     0.063 C 
HETATM   20  C   UNL     1      -6.312   1.441 -32.844  1.00  0.00     0.121 C 
HETATM   21  N   UNL     1      -7.170   2.099 -31.781  1.00  0.00    -0.059 N 
HETATM   22  C   UNL     1      -6.300   2.291 -34.118  1.00  0.00     0.046 C 
HETATM   23  C   UNL     1      -7.009   0.108 -33.186  1.00  0.00     0.046 C 
HETATM   24  C   UNL     1      -6.608   3.207 -30.916  1.00  0.00     0.121 C 
HETATM   25  H   UNL     1      -7.478   1.347 -31.146  1.00  0.00     0.279 HD
HETATM   26  H   UNL     1      -8.043   2.425 -32.220  1.00  0.00     0.279 HD
HETATM   27  C   UNL     1      -6.713   4.551 -31.646  1.00  0.00     0.046 C 
HETATM   28  C   UNL     1      -7.522   3.285 -29.676  1.00  0.00     0.046 C 
HETATM   29  C   UNL     1      -5.177   2.863 -30.464  1.00  0.00     0.063 C 
ENDBRANCH   1  18
TORSDOF 3
ENDMDL
MODEL 7
REMARK VINA RESULT:      -8.0      3.152      5.598
REMARK  3 active torsions:
REMARK  status: ('A' for Active; 'I' for Inactive)
REMARK    1  A    between atoms: C_11  and  N_12 
REMARK       I    between atoms: N_12  and  C_13 
REMARK    2  A    between atoms: C_13  and  C_14 
REMARK    3  A    between atoms: C_15  and  C_16 
ROOT
HETATM    1  N   UNL     1      -8.666   3.257 -32.565  1.00  0.00    -0.352 N 
HETATM    2  C   UNL     1      -7.365   2.776 -32.644  1.00  0.00     0.255 C 
HETATM    3  O   UNL     1      -6.639   3.013 -33.601  1.00  0.00    -0.268 OA
HETATM    4  H   UNL     1      -9.252   2.689 -31.962  1.00  0.00     0.163 HD
ENDROOT
BRANCH   2   5
HETATM    5  C   UNL     1      -6.948   1.982 -31.500  1.00  0.00     0.080 A 
HETATM    6  C   UNL     1      -6.400   0.658 -31.468  1.00  0.00     0.104 A 
HETATM    7  N   UNL     1      -6.075   0.311 -30.211  1.00  0.00    -0.174 NA
HETATM    8  N   UNL     1      -6.408   1.362 -29.460  1.00  0.00    -0.288 N 
HETATM    9  H   UNL     1      -6.227   1.310 -28.462  1.00  0.00     0.188 HD
HETATM   10  C   UNL     1      -6.948   2.387 -30.175  1.00  0.00     0.128 A 
BRANCH   6  11
HETATM   11  C   UNL     1      -6.189  -0.300 -32.559  1.00  0.00    -0.004 A 
HETATM   12  C   UNL     1      -4.909  -0.836 -32.779  1.00  0.00     0.017 A 
HETATM   13  C   UNL     1      -4.693  -1.771 -33.794  1.00  0.00     0.043 A 
HETATM   14  C   UNL     1      -5.759  -2.177 -34.588  1.00  0.00     0.116 A 
HETATM   15  F   UNL     1      -5.556  -3.075 -35.559  1.00  0.00    -0.206 F 
HETATM   16  C   UNL     1      -7.035  -1.668 -34.382  1.00  0.00     0.043 A 
HETATM   17  C   UNL     1      -7.252  -0.734 -33.365  1.00  0.00     0.017 A 
ENDBRANCH   6  11
ENDBRANCH   2   5
BRANCH   1  18
HETATM   18  C   UNL     1      -9.291   3.931 -33.694  1.00  0.00     0.089 C 
HETATM   19  C   UNL     1     -10.276   5.049 -33.317  1.00  0.00     0.063 C 
HETATM   20  C   UNL     1     -11.601   4.574 -32.713  1.00  0.00     0.121 C 
HETATM   21  N   UNL     1     -12.197   3.494 -33.594  1.00  0.00    -0.059 N 
HETATM   22  C   UNL     1     -11.493   4.082 -31.267  1.00  0.00     0.046 C 
HETATM   23  C   UNL     1     -12.611   5.740 -32.728  1.00  0.00     0.046 C 
HETATM   24  C   UNL     1     -11.329   2.383 -34.143  1.00  0.00     0.121 C 
HETATM   25  H   UNL     1     -12.620   3.975 -34.403  1.00  0.00     0.279 HD
HETATM   26  H   UNL     1     -13.003   3.080 -33.104  1.00  0.00     0.279 HD
HETATM   27  C   UNL     1     -11.178   1.268 -33.102  1.00  0.00     0.046 C 
HETATM   28  C   UNL     1     -12.100   1.792 -35.341  1.00  0.00     0.046 C 
HETATM   29  C   UNL     1      -9.985   2.946 -34.640  1.00  0.00     0.063 C 
ENDBRANCH   1  18
TORSDOF 3
ENDMDL
MODEL 8
REMARK VINA RESULT:      -7.8      2.426      3.850
REMARK  3 active torsions:
REMARK  status: ('A' for Active; 'I' for Inactive)
REMARK    1  A    between atoms: C_11  and  N_12 
REMARK       I    between atoms: N_12  and  C_13 
REMARK    2  A    between atoms: C_13  and  C_14 
REMARK    3  A    between atoms: C_15  and  C_16 
ROOT
HETATM    1  N   UNL     1      -7.379   4.098 -32.763  1.00  0.00    -0.352 N 
HETATM    2  C   UNL     1      -8.461   4.162 -33.632  1.00  0.00     0.255 C 
HETATM    3  O   UNL     1      -8.518   4.977 -34.543  1.00  0.00    -0.268 OA
HETATM    4  H   UNL     1      -7.625   3.685 -31.869  1.00  0.00     0.163 HD
ENDROOT
BRANCH   2   5
HETATM    5  C   UNL     1      -9.503   3.184 -33.367  1.00  0.00     0.080 A 
HETATM    6  C   UNL     1      -9.415   1.753 -33.333  1.00  0.00     0.104 A 
HETATM    7  N   UNL     1     -10.594   1.216 -32.975  1.00  0.00    -0.174 NA
HETATM    8  N   UNL     1     -11.412   2.253 -32.795  1.00  0.00    -0.288 N 
HETATM    9  H   UNL     1     -12.365   2.062 -32.501  1.00  0.00     0.188 HD
HETATM   10  C   UNL     1     -10.818   3.456 -33.029  1.00  0.00     0.128 A 
BRANCH   6  11
HETATM   11  C   UNL     1      -8.283   0.873 -33.641  1.00  0.00    -0.004 A 
HETATM   12  C   UNL     1      -7.689   0.115 -32.617  1.00  0.00     0.017 A 
HETATM   13  C   UNL     1      -6.629  -0.751 -32.896  1.00  0.00     0.043 A 
HETATM   14  C   UNL     1      -6.165  -0.866 -34.199  1.00  0.00     0.116 A 
HETATM   15  F   UNL     1      -5.151  -1.698 -34.470  1.00  0.00    -0.206 F 
HETATM   16  C   UNL     1      -6.743  -0.135 -35.230  1.00  0.00     0.043 A 
HETATM   17  C   UNL     1      -7.805   0.730 -34.952  1.00  0.00     0.017 A 
ENDBRANCH   6  11
ENDBRANCH   2   5
BRANCH   1  18
HETATM   18  C   UNL     1      -6.330   5.106 -32.789  1.00  0.00     0.089 C 
HETATM   19  C   UNL     1      -4.948   4.592 -33.223  1.00  0.00     0.063 C 
HETATM   20  C   UNL     1      -4.233   3.703 -32.202  1.00  0.00     0.121 C 
HETATM   21  N   UNL     1      -4.243   4.382 -30.847  1.00  0.00    -0.059 N 
HETATM   22  C   UNL     1      -4.805   2.286 -32.091  1.00  0.00     0.046 C 
HETATM   23  C   UNL     1      -2.748   3.569 -32.598  1.00  0.00     0.046 C 
HETATM   24  C   UNL     1      -5.503   5.041 -30.327  1.00  0.00     0.121 C 
HETATM   25  H   UNL     1      -3.513   5.110 -30.878  1.00  0.00     0.279 HD
HETATM   26  H   UNL     1      -3.897   3.715 -30.143  1.00  0.00     0.279 HD
HETATM   27  C   UNL     1      -6.408   3.997 -29.664  1.00  0.00     0.046 C 
HETATM   28  C   UNL     1      -5.048   6.020 -29.225  1.00  0.00     0.046 C 
HETATM   29  C   UNL     1      -6.198   5.834 -31.448  1.00  0.00     0.063 C 
ENDBRANCH   1  18
TORSDOF 3
ENDMDL
MODEL 9
REMARK VINA RESULT:      -7.8     15.295     16.968
REMARK  3 active torsions:
REMARK  status: ('A' for Active; 'I' for Inactive)
REMARK    1  A    between atoms: C_11  and  N_12 
REMARK       I    between atoms: N_12  and  C_13 
REMARK    2  A    between atoms: C_13  and  C_14 
REMARK    3  A    between atoms: C_15  and  C_16 
ROOT
HETATM    1  N   UNL     1      -4.501 -14.833 -37.916  1.00  0.00    -0.352 N 
HETATM    2  C   UNL     1      -5.101 -15.487 -36.847  1.00  0.00     0.255 C 
HETATM    3  O   UNL     1      -4.998 -16.695 -36.681  1.00  0.00    -0.268 OA
HETATM    4  H   UNL     1      -4.970 -13.964 -38.151  1.00  0.00     0.163 HD
ENDROOT
BRANCH   2   5
HETATM    5  C   UNL     1      -5.847 -14.616 -35.953  1.00  0.00     0.080 A 
HETATM    6  C   UNL     1      -7.054 -13.884 -36.201  1.00  0.00     0.104 A 
HETATM    7  N   UNL     1      -7.463 -13.256 -35.086  1.00  0.00    -0.174 NA
HETATM    8  N   UNL     1      -6.555 -13.561 -34.158  1.00  0.00    -0.288 N 
HETATM    9  H   UNL     1      -6.689 -13.191 -33.222  1.00  0.00     0.188 HD
HETATM   10  C   UNL     1      -5.556 -14.361 -34.623  1.00  0.00     0.128 A 
BRANCH   6  11
HETATM   11  C   UNL     1      -7.824 -13.732 -37.440  1.00  0.00    -0.004 A 
HETATM   12  C   UNL     1      -8.549 -14.823 -37.950  1.00  0.00     0.017 A 
HETATM   13  C   UNL     1      -9.312 -14.691 -39.113  1.00  0.00     0.043 A 
HETATM   14  C   UNL     1      -9.357 -13.465 -39.764  1.00  0.00     0.116 A 
HETATM   15  F   UNL     1     -10.090 -13.334 -40.877  1.00  0.00    -0.206 F 
HETATM   16  C   UNL     1      -8.658 -12.370 -39.273  1.00  0.00     0.043 A 
HETATM   17  C   UNL     1      -7.896 -12.501 -38.109  1.00  0.00     0.017 A 
ENDBRANCH   6  11
ENDBRANCH   2   5
BRANCH   1  18
HETATM   18  C   UNL     1      -3.854 -15.576 -38.988  1.00  0.00     0.089 C 
HETATM   19  C   UNL     1      -2.344 -15.329 -39.129  1.00  0.00     0.063 C 
HETATM   20  C   UNL     1      -1.958 -13.955 -39.686  1.00  0.00     0.121 C 
HETATM   21  N   UNL     1      -2.751 -13.683 -40.949  1.00  0.00    -0.059 N 
HETATM   22  C   UNL     1      -2.128 -12.802 -38.693  1.00  0.00     0.046 C 
HETATM   23  C   UNL     1      -0.476 -13.980 -40.113  1.00  0.00     0.046 C 
HETATM   24  C   UNL     1      -4.233 -13.985 -41.007  1.00  0.00     0.121 C 
HETATM   25  H   UNL     1      -2.302 -14.228 -41.701  1.00  0.00     0.279 HD
HETATM   26  H   UNL     1      -2.596 -12.704 -41.228  1.00  0.00     0.279 HD
HETATM   27  C   UNL     1      -5.032 -12.821 -40.411  1.00  0.00     0.046 C 
HETATM   28  C   UNL     1      -4.593 -14.070 -42.505  1.00  0.00     0.046 C 
HETATM   29  C   UNL     1      -4.532 -15.340 -40.342  1.00  0.00     0.063 C 
ENDBRANCH   1  18
TORSDOF 3
ENDMDL
MODEL 10
REMARK VINA RESULT:      -7.7      4.215      6.768
REMARK  3 active torsions:
REMARK  status: ('A' for Active; 'I' for Inactive)
REMARK    1  A    between atoms: C_11  and  N_12 
REMARK       I    between atoms: N_12  and  C_13 
REMARK    2  A    between atoms: C_13  and  C_14 
REMARK    3  A    between atoms: C_15  and  C_16 
ROOT
HETATM    1  N   UNL     1      -8.328   1.758 -32.582  1.00  0.00    -0.352 N 
HETATM    2  C   UNL     1      -9.113   2.670 -31.887  1.00  0.00     0.255 C 
HETATM    3  O   UNL     1      -9.458   2.482 -30.728  1.00  0.00    -0.268 OA
HETATM    4  H   UNL     1      -8.449   1.830 -33.587  1.00  0.00     0.163 HD
ENDROOT
BRANCH   2   5
HETATM    5  C   UNL     1      -9.478   3.851 -32.650  1.00  0.00     0.080 A 
HETATM    6  C   UNL     1     -10.657   4.100 -33.427  1.00  0.00     0.104 A 
HETATM    7  N   UNL     1     -10.645   5.352 -33.916  1.00  0.00    -0.174 NA
HETATM    8  N   UNL     1      -9.503   5.886 -33.483  1.00  0.00    -0.288 N 
HETATM    9  H   UNL     1      -9.304   6.850 -33.735  1.00  0.00     0.188 HD
HETATM   10  C   UNL     1      -8.757   5.031 -32.732  1.00  0.00     0.128 A 
BRANCH   6  11
HETATM   11  C   UNL     1     -11.779   3.210 -33.745  1.00  0.00    -0.004 A 
HETATM   12  C   UNL     1     -11.680   2.326 -34.834  1.00  0.00     0.017 A 
HETATM   13  C   UNL     1     -12.726   1.450 -35.136  1.00  0.00     0.043 A 
HETATM   14  C   UNL     1     -13.868   1.451 -34.346  1.00  0.00     0.116 A 
HETATM   15  F   UNL     1     -14.870   0.610 -34.631  1.00  0.00    -0.206 F 
HETATM   16  C   UNL     1     -13.983   2.308 -33.259  1.00  0.00     0.043 A 
HETATM   17  C   UNL     1     -12.937   3.183 -32.955  1.00  0.00     0.017 A 
ENDBRANCH   6  11
ENDBRANCH   2   5
BRANCH   1  18
HETATM   18  C   UNL     1      -8.011   0.453 -32.020  1.00  0.00     0.089 C 
HETATM   19  C   UNL     1      -6.677   0.380 -31.261  1.00  0.00     0.063 C 
HETATM   20  C   UNL     1      -5.424   0.439 -32.139  1.00  0.00     0.121 C 
HETATM   21  N   UNL     1      -5.551  -0.567 -33.266  1.00  0.00    -0.059 N 
HETATM   22  C   UNL     1      -5.113   1.830 -32.700  1.00  0.00     0.046 C 
HETATM   23  C   UNL     1      -4.202  -0.006 -31.309  1.00  0.00     0.046 C 
HETATM   24  C   UNL     1      -6.846  -0.698 -34.038  1.00  0.00     0.121 C 
HETATM   25  H   UNL     1      -5.346  -1.492 -32.859  1.00  0.00     0.279 HD
HETATM   26  H   UNL     1      -4.778  -0.413 -33.930  1.00  0.00     0.279 HD
HETATM   27  C   UNL     1      -6.909   0.357 -35.148  1.00  0.00     0.046 C 
HETATM   28  C   UNL     1      -6.797  -2.081 -34.720  1.00  0.00     0.046 C 
HETATM   29  C   UNL     1      -8.050  -0.654 -33.079  1.00  0.00     0.063 C 
ENDBRANCH   1  18
TORSDOF 3
ENDMDL
