MODEL 1
REMARK VINA RESULT:      -8.6      0.000      0.000
REMARK  7 active torsions:
REMARK  status: ('A' for Active; 'I' for Inactive)
REMARK    1  A    between atoms: O_2  and  C_3 
REMARK    2  A    between atoms: C_5  and  C_6 
REMARK    3  A    between atoms: C_6  and  C_7 
REMARK       I    between atoms: C_7  and  N_8 
REMARK    4  A    between atoms: N_8  and  C_9 
REMARK    5  A    between atoms: C_9  and  C_10 
REMARK    6  A    between atoms: C_13  and  N_14 
REMARK       I    between atoms: N_14  and  C_15 
REMARK    7  A    between atoms: C_15  and  C_16 
ROOT
HETATM    1  C   UNL     1      -6.322   2.477 -33.771  1.00  0.00    -0.040 A 
HETATM    2  C   UNL     1      -6.023   3.734 -34.309  1.00  0.00     0.011 A 
HETATM    3  C   UNL     1      -4.951   4.488 -33.814  1.00  0.00     0.030 A 
HETATM    4  C   UNL     1      -4.155   3.993 -32.781  1.00  0.00     0.035 A 
HETATM    5  C   UNL     1      -4.462   2.744 -32.230  1.00  0.00     0.030 A 
HETATM    6  C   UNL     1      -5.534   1.992 -32.720  1.00  0.00     0.011 A 
ENDROOT
BRANCH   1   7
HETATM    7  C   UNL     1      -7.429   1.634 -34.344  1.00  0.00     0.161 C 
BRANCH   7   8
HETATM    8  N   UNL     1      -6.889   0.426 -34.926  1.00  0.00    -0.357 N 
HETATM    9  C   UNL     1      -7.171  -0.807 -34.381  1.00  0.00     0.222 C 
HETATM   10  O   UNL     1      -7.843  -0.952 -33.364  1.00  0.00    -0.273 OA
HETATM   11  H   UNL     1      -6.567   0.468 -35.884  1.00  0.00     0.162 HD
BRANCH   9  12
HETATM   12  C   UNL     1      -6.563  -1.973 -35.136  1.00  0.00     0.141 C 
BRANCH  12  13
HETATM   13  C   UNL     1      -5.491  -2.761 -34.416  1.00  0.00    -0.047 A 
HETATM   14  C   UNL     1      -4.618  -2.202 -33.471  1.00  0.00     0.044 A 
HETATM   15  C   UNL     1      -3.640  -2.980 -32.836  1.00  0.00     0.068 A 
HETATM   16  C   UNL     1      -3.527  -4.333 -33.153  1.00  0.00     0.037 A 
HETATM   17  C   UNL     1      -4.385  -4.903 -34.094  1.00  0.00     0.003 A 
HETATM   18  C   UNL     1      -5.359  -4.124 -34.718  1.00  0.00     0.007 A 
BRANCH  15  19
HETATM   19  O   UNL     1      -2.868  -2.301 -31.934  1.00  0.00    -0.356 OA
HETATM   20  C   UNL     1      -3.100  -0.903 -31.812  1.00  0.00     0.210 C 
ENDBRANCH  15  19
ENDBRANCH  12  13
ENDBRANCH   9  12
ENDBRANCH   7   8
ENDBRANCH   1   7
BRANCH   4  21
HETATM   21  N   UNL     1      -3.028   4.659 -32.267  1.00  0.00    -0.321 N 
HETATM   22  C   UNL     1      -1.836   4.952 -32.906  1.00  0.00     0.279 C 
HETATM   23  O   UNL     1      -1.588   4.741 -34.088  1.00  0.00    -0.265 OA
HETATM   24  H   UNL     1      -3.059   4.934 -31.291  1.00  0.00     0.169 HD
BRANCH  22  25
HETATM   25  C   UNL     1      -0.859   5.550 -32.010  1.00  0.00     0.142 A 
HETATM   26  O   UNL     1      -0.238   4.766 -31.068  1.00  0.00    -0.317 OA
HETATM   27  C   UNL     1       0.632   5.565 -30.396  1.00  0.00     0.143 A 
HETATM   28  C   UNL     1       0.583   6.850 -30.882  1.00  0.00     0.027 A 
HETATM   29  C   UNL     1      -0.378   6.843 -31.921  1.00  0.00     0.045 A 
ENDBRANCH  22  25
ENDBRANCH   4  21
TORSDOF 7
ENDMDL
MODEL 2
REMARK VINA RESULT:      -8.3      1.682      2.019
REMARK  7 active torsions:
REMARK  status: ('A' for Active; 'I' for Inactive)
REMARK    1  A    between atoms: O_2  and  C_3 
REMARK    2  A    between atoms: C_5  and  C_6 
REMARK    3  A    between atoms: C_6  and  C_7 
REMARK       I    between atoms: C_7  and  N_8 
REMARK    4  A    between atoms: N_8  and  C_9 
REMARK    5  A    between atoms: C_9  and  C_10 
REMARK    6  A    between atoms: C_13  and  N_14 
REMARK       I    between atoms: N_14  and  C_15 
REMARK    7  A    between atoms: C_15  and  C_16 
ROOT
HETATM    1  C   UNL     1      -7.084   2.576 -31.272  1.00  0.00    -0.040 A 
HETATM    2  C   UNL     1      -7.008   3.960 -31.469  1.00  0.00     0.011 A 
HETATM    3  C   UNL     1      -5.785   4.632 -31.352  1.00  0.00     0.030 A 
HETATM    4  C   UNL     1      -4.618   3.931 -31.045  1.00  0.00     0.035 A 
HETATM    5  C   UNL     1      -4.695   2.551 -30.831  1.00  0.00     0.030 A 
HETATM    6  C   UNL     1      -5.916   1.878 -30.944  1.00  0.00     0.011 A 
ENDROOT
BRANCH   1   7
HETATM    7  C   UNL     1      -8.382   1.839 -31.464  1.00  0.00     0.161 C 
BRANCH   7   8
HETATM    8  N   UNL     1      -8.216   0.774 -32.427  1.00  0.00    -0.357 N 
HETATM    9  C   UNL     1      -8.214   1.039 -33.779  1.00  0.00     0.222 C 
HETATM   10  O   UNL     1      -8.397   2.160 -34.242  1.00  0.00    -0.273 OA
HETATM   11  H   UNL     1      -7.805  -0.093 -32.104  1.00  0.00     0.162 HD
BRANCH   9  12
HETATM   12  C   UNL     1      -7.985  -0.182 -34.650  1.00  0.00     0.141 C 
BRANCH  12  13
HETATM   13  C   UNL     1      -6.714  -0.963 -34.401  1.00  0.00    -0.047 A 
HETATM   14  C   UNL     1      -5.545  -0.397 -33.872  1.00  0.00     0.044 A 
HETATM   15  C   UNL     1      -4.393  -1.169 -33.666  1.00  0.00     0.068 A 
HETATM   16  C   UNL     1      -4.406  -2.523 -33.998  1.00  0.00     0.037 A 
HETATM   17  C   UNL     1      -5.560  -3.100 -34.528  1.00  0.00     0.003 A 
HETATM   18  C   UNL     1      -6.704  -2.328 -34.727  1.00  0.00     0.007 A 
BRANCH  15  19
HETATM   19  O   UNL     1      -3.334  -0.483 -33.138  1.00  0.00    -0.356 OA
HETATM   20  C   UNL     1      -3.020  -0.736 -31.774  1.00  0.00     0.210 C 
ENDBRANCH  15  19
ENDBRANCH  12  13
ENDBRANCH   9  12
ENDBRANCH   7   8
ENDBRANCH   1   7
BRANCH   4  21
HETATM   21  N   UNL     1      -3.343   4.521 -30.966  1.00  0.00    -0.321 N 
HETATM   22  C   UNL     1      -2.334   4.519 -31.913  1.00  0.00     0.279 C 
HETATM   23  O   UNL     1      -2.416   4.054 -33.044  1.00  0.00    -0.265 OA
HETATM   24  H   UNL     1      -3.099   4.978 -30.094  1.00  0.00     0.169 HD
BRANCH  22  25
HETATM   25  C   UNL     1      -1.112   5.135 -31.421  1.00  0.00     0.142 A 
HETATM   26  O   UNL     1      -0.326   4.455 -30.524  1.00  0.00    -0.317 OA
HETATM   27  C   UNL     1       0.750   5.243 -30.259  1.00  0.00     0.143 A 
HETATM   28  C   UNL     1       0.672   6.420 -30.964  1.00  0.00     0.027 A 
HETATM   29  C   UNL     1      -0.527   6.354 -31.712  1.00  0.00     0.045 A 
ENDBRANCH  22  25
ENDBRANCH   4  21
TORSDOF 7
ENDMDL
MODEL 3
REMARK VINA RESULT:      -8.3      2.302      3.111
REMARK  7 active torsions:
REMARK  status: ('A' for Active; 'I' for Inactive)
REMARK    1  A    between atoms: O_2  and  C_3 
REMARK    2  A    between atoms: C_5  and  C_6 
REMARK    3  A    between atoms: C_6  and  C_7 
REMARK       I    between atoms: C_7  and  N_8 
REMARK    4  A    between atoms: N_8  and  C_9 
REMARK    5  A    between atoms: C_9  and  C_10 
REMARK    6  A    between atoms: C_13  and  N_14 
REMARK       I    between atoms: N_14  and  C_15 
REMARK    7  A    between atoms: C_15  and  C_16 
ROOT
HETATM    1  C   UNL     1      -7.634   3.340 -30.674  1.00  0.00    -0.040 A 
HETATM    2  C   UNL     1      -7.399   4.582 -31.274  1.00  0.00     0.011 A 
HETATM    3  C   UNL     1      -6.110   5.129 -31.306  1.00  0.00     0.030 A 
HETATM    4  C   UNL     1      -5.035   4.439 -30.746  1.00  0.00     0.035 A 
HETATM    5  C   UNL     1      -5.270   3.205 -30.131  1.00  0.00     0.030 A 
HETATM    6  C   UNL     1      -6.557   2.659 -30.094  1.00  0.00     0.011 A 
ENDROOT
BRANCH   1   7
HETATM    7  C   UNL     1      -9.004   2.716 -30.697  1.00  0.00     0.161 C 
BRANCH   7   8
HETATM    8  N   UNL     1      -8.940   1.389 -31.266  1.00  0.00    -0.357 N 
HETATM    9  C   UNL     1      -8.881   1.208 -32.630  1.00  0.00     0.222 C 
HETATM   10  O   UNL     1      -8.926   2.136 -33.432  1.00  0.00    -0.273 OA
HETATM   11  H   UNL     1      -8.638   0.633 -30.665  1.00  0.00     0.162 HD
BRANCH   9  12
HETATM   12  C   UNL     1      -8.775  -0.243 -33.060  1.00  0.00     0.141 C 
BRANCH  12  13
HETATM   13  C   UNL     1      -7.384  -0.770 -33.329  1.00  0.00    -0.047 A 
HETATM   14  C   UNL     1      -7.107  -1.814 -34.225  1.00  0.00     0.044 A 
HETATM   15  C   UNL     1      -5.796  -2.265 -34.433  1.00  0.00     0.068 A 
HETATM   16  C   UNL     1      -4.747  -1.670 -33.732  1.00  0.00     0.037 A 
HETATM   17  C   UNL     1      -5.006  -0.634 -32.835  1.00  0.00     0.003 A 
HETATM   18  C   UNL     1      -6.312  -0.187 -32.636  1.00  0.00     0.007 A 
BRANCH  15  19
HETATM   19  O   UNL     1      -5.680  -3.282 -35.339  1.00  0.00    -0.356 OA
HETATM   20  C   UNL     1      -6.535  -4.405 -35.160  1.00  0.00     0.210 C 
ENDBRANCH  15  19
ENDBRANCH  12  13
ENDBRANCH   9  12
ENDBRANCH   7   8
ENDBRANCH   1   7
BRANCH   4  21
HETATM   21  N   UNL     1      -3.703   4.890 -30.787  1.00  0.00    -0.321 N 
HETATM   22  C   UNL     1      -2.665   4.440 -31.584  1.00  0.00     0.279 C 
HETATM   23  O   UNL     1      -2.759   3.599 -32.471  1.00  0.00    -0.265 OA
HETATM   24  H   UNL     1      -3.440   5.613 -30.125  1.00  0.00     0.169 HD
BRANCH  22  25
HETATM   25  C   UNL     1      -1.399   5.075 -31.257  1.00  0.00     0.142 A 
HETATM   26  O   UNL     1      -0.422   4.345 -30.624  1.00  0.00    -0.317 OA
HETATM   27  C   UNL     1       0.650   5.167 -30.466  1.00  0.00     0.143 A 
HETATM   28  C   UNL     1       0.382   6.414 -30.979  1.00  0.00     0.027 A 
HETATM   29  C   UNL     1      -0.937   6.357 -31.487  1.00  0.00     0.045 A 
ENDBRANCH  22  25
ENDBRANCH   4  21
TORSDOF 7
ENDMDL
MODEL 4
REMARK VINA RESULT:      -8.1      1.437      2.049
REMARK  7 active torsions:
REMARK  status: ('A' for Active; 'I' for Inactive)
REMARK    1  A    between atoms: O_2  and  C_3 
REMARK    2  A    between atoms: C_5  and  C_6 
REMARK    3  A    between atoms: C_6  and  C_7 
REMARK       I    between atoms: C_7  and  N_8 
REMARK    4  A    between atoms: N_8  and  C_9 
REMARK    5  A    between atoms: C_9  and  C_10 
REMARK    6  A    between atoms: C_13  and  N_14 
REMARK       I    between atoms: N_14  and  C_15 
REMARK    7  A    between atoms: C_15  and  C_16 
ROOT
HETATM    1  C   UNL     1      -5.458   3.680 -33.142  1.00  0.00    -0.040 A 
HETATM    2  C   UNL     1      -5.064   3.087 -31.938  1.00  0.00     0.011 A 
HETATM    3  C   UNL     1      -4.037   3.645 -31.168  1.00  0.00     0.030 A 
HETATM    4  C   UNL     1      -3.393   4.811 -31.585  1.00  0.00     0.035 A 
HETATM    5  C   UNL     1      -3.773   5.396 -32.797  1.00  0.00     0.030 A 
HETATM    6  C   UNL     1      -4.796   4.837 -33.570  1.00  0.00     0.011 A 
ENDROOT
BRANCH   1   7
HETATM    7  C   UNL     1      -6.607   3.123 -33.939  1.00  0.00     0.161 C 
BRANCH   7   8
HETATM    8  N   UNL     1      -6.902   1.773 -33.518  1.00  0.00    -0.357 N 
HETATM    9  C   UNL     1      -7.030   0.758 -34.440  1.00  0.00     0.222 C 
HETATM   10  O   UNL     1      -6.954   0.939 -35.651  1.00  0.00    -0.273 OA
HETATM   11  H   UNL     1      -6.712   1.528 -32.554  1.00  0.00     0.162 HD
BRANCH   9  12
HETATM   12  C   UNL     1      -7.297  -0.605 -33.829  1.00  0.00     0.141 C 
BRANCH  12  13
HETATM   13  C   UNL     1      -6.139  -1.578 -33.813  1.00  0.00    -0.047 A 
HETATM   14  C   UNL     1      -5.044  -1.468 -32.942  1.00  0.00     0.044 A 
HETATM   15  C   UNL     1      -3.995  -2.398 -32.974  1.00  0.00     0.068 A 
HETATM   16  C   UNL     1      -4.037  -3.448 -33.890  1.00  0.00     0.037 A 
HETATM   17  C   UNL     1      -5.116  -3.569 -34.764  1.00  0.00     0.003 A 
HETATM   18  C   UNL     1      -6.159  -2.643 -34.725  1.00  0.00     0.007 A 
BRANCH  15  19
HETATM   19  O   UNL     1      -3.001  -2.167 -32.063  1.00  0.00    -0.356 OA
HETATM   20  C   UNL     1      -2.599  -0.816 -31.878  1.00  0.00     0.210 C 
ENDBRANCH  15  19
ENDBRANCH  12  13
ENDBRANCH   9  12
ENDBRANCH   7   8
ENDBRANCH   1   7
BRANCH   4  21
HETATM   21  N   UNL     1      -2.393   5.467 -30.844  1.00  0.00    -0.321 N 
HETATM   22  C   UNL     1      -1.019   5.365 -30.972  1.00  0.00     0.279 C 
HETATM   23  O   UNL     1      -0.428   4.724 -31.834  1.00  0.00    -0.265 OA
HETATM   24  H   UNL     1      -2.700   6.067 -30.085  1.00  0.00     0.169 HD
BRANCH  22  25
HETATM   25  C   UNL     1      -0.310   6.110 -29.945  1.00  0.00     0.142 A 
HETATM   26  O   UNL     1       0.081   5.470 -28.795  1.00  0.00    -0.317 OA
HETATM   27  C   UNL     1       0.738   6.384 -28.033  1.00  0.00     0.143 A 
HETATM   28  C   UNL     1       0.775   7.604 -28.666  1.00  0.00     0.027 A 
HETATM   29  C   UNL     1       0.098   7.430 -29.897  1.00  0.00     0.045 A 
ENDBRANCH  22  25
ENDBRANCH   4  21
TORSDOF 7
ENDMDL
MODEL 5
REMARK VINA RESULT:      -8.0      1.967      3.177
REMARK  7 active torsions:
REMARK  status: ('A' for Active; 'I' for Inactive)
REMARK    1  A    between atoms: O_2  and  C_3 
REMARK    2  A    between atoms: C_5  and  C_6 
REMARK    3  A    between atoms: C_6  and  C_7 
REMARK       I    between atoms: C_7  and  N_8 
REMARK    4  A    between atoms: N_8  and  C_9 
REMARK    5  A    between atoms: C_9  and  C_10 
REMARK    6  A    between atoms: C_13  and  N_14 
REMARK       I    between atoms: N_14  and  C_15 
REMARK    7  A    between atoms: C_15  and  C_16 
ROOT
HETATM    1  C   UNL     1      -4.827   3.903 -33.133  1.00  0.00    -0.040 A 
HETATM    2  C   UNL     1      -3.835   3.113 -32.541  1.00  0.00     0.011 A 
HETATM    3  C   UNL     1      -2.854   3.690 -31.725  1.00  0.00     0.030 A 
HETATM    4  C   UNL     1      -2.854   5.064 -31.480  1.00  0.00     0.035 A 
HETATM    5  C   UNL     1      -3.834   5.857 -32.085  1.00  0.00     0.030 A 
HETATM    6  C   UNL     1      -4.813   5.284 -32.903  1.00  0.00     0.011 A 
ENDROOT
BRANCH   1   7
HETATM    7  C   UNL     1      -5.924   3.280 -33.954  1.00  0.00     0.161 C 
BRANCH   7   8
HETATM    8  N   UNL     1      -6.196   1.939 -33.492  1.00  0.00    -0.357 N 
HETATM    9  C   UNL     1      -7.157   1.703 -32.533  1.00  0.00     0.222 C 
HETATM   10  O   UNL     1      -7.794   2.600 -31.989  1.00  0.00    -0.273 OA
HETATM   11  H   UNL     1      -5.902   1.169 -34.080  1.00  0.00     0.162 HD
BRANCH   9  12
HETATM   12  C   UNL     1      -7.347   0.238 -32.192  1.00  0.00     0.141 C 
BRANCH  12  13
HETATM   13  C   UNL     1      -6.315  -0.724 -32.735  1.00  0.00    -0.047 A 
HETATM   14  C   UNL     1      -6.530  -1.548 -33.851  1.00  0.00     0.044 A 
HETATM   15  C   UNL     1      -5.537  -2.424 -34.309  1.00  0.00     0.068 A 
HETATM   16  C   UNL     1      -4.314  -2.484 -33.643  1.00  0.00     0.037 A 
HETATM   17  C   UNL     1      -4.085  -1.674 -32.531  1.00  0.00     0.003 A 
HETATM   18  C   UNL     1      -5.076  -0.801 -32.082  1.00  0.00     0.007 A 
BRANCH  15  19
HETATM   19  O   UNL     1      -5.888  -3.158 -35.409  1.00  0.00    -0.356 OA
HETATM   20  C   UNL     1      -6.079  -4.554 -35.217  1.00  0.00     0.210 C 
ENDBRANCH  15  19
ENDBRANCH  12  13
ENDBRANCH   9  12
ENDBRANCH   7   8
ENDBRANCH   1   7
BRANCH   4  21
HETATM   21  N   UNL     1      -1.941   5.712 -30.629  1.00  0.00    -0.321 N 
HETATM   22  C   UNL     1      -0.572   5.534 -30.539  1.00  0.00     0.279 C 
HETATM   23  O   UNL     1       0.104   4.814 -31.266  1.00  0.00    -0.265 OA
HETATM   24  H   UNL     1      -2.323   6.371 -29.958  1.00  0.00     0.169 HD
BRANCH  22  25
HETATM   25  C   UNL     1       0.018   6.303 -29.455  1.00  0.00     0.142 A 
HETATM   26  O   UNL     1       0.213   5.707 -28.233  1.00  0.00    -0.317 OA
HETATM   27  C   UNL     1       0.794   6.633 -27.426  1.00  0.00     0.143 A 
HETATM   28  C   UNL     1       0.974   7.817 -28.101  1.00  0.00     0.027 A 
HETATM   29  C   UNL     1       0.473   7.607 -29.407  1.00  0.00     0.045 A 
ENDBRANCH  22  25
ENDBRANCH   4  21
TORSDOF 7
ENDMDL
MODEL 6
REMARK VINA RESULT:      -7.6      3.814      9.460
REMARK  7 active torsions:
REMARK  status: ('A' for Active; 'I' for Inactive)
REMARK    1  A    between atoms: O_2  and  C_3 
REMARK    2  A    between atoms: C_5  and  C_6 
REMARK    3  A    between atoms: C_6  and  C_7 
REMARK       I    between atoms: C_7  and  N_8 
REMARK    4  A    between atoms: N_8  and  C_9 
REMARK    5  A    between atoms: C_9  and  C_10 
REMARK    6  A    between atoms: C_13  and  N_14 
REMARK       I    between atoms: N_14  and  C_15 
REMARK    7  A    between atoms: C_15  and  C_16 
ROOT
HETATM    1  C   UNL     1      -6.599   2.574 -30.848  1.00  0.00    -0.040 A 
HETATM    2  C   UNL     1      -7.637   3.503 -30.976  1.00  0.00     0.011 A 
HETATM    3  C   UNL     1      -8.860   3.135 -31.551  1.00  0.00     0.030 A 
HETATM    4  C   UNL     1      -9.067   1.829 -31.999  1.00  0.00     0.035 A 
HETATM    5  C   UNL     1      -8.025   0.904 -31.888  1.00  0.00     0.030 A 
HETATM    6  C   UNL     1      -6.802   1.270 -31.318  1.00  0.00     0.011 A 
ENDROOT
BRANCH   1   7
HETATM    7  C   UNL     1      -5.308   2.945 -30.170  1.00  0.00     0.161 C 
BRANCH   7   8
HETATM    8  N   UNL     1      -4.449   3.661 -31.085  1.00  0.00    -0.357 N 
HETATM    9  C   UNL     1      -3.303   3.078 -31.580  1.00  0.00     0.222 C 
HETATM   10  O   UNL     1      -2.922   1.960 -31.246  1.00  0.00    -0.273 OA
HETATM   11  H   UNL     1      -4.843   4.449 -31.583  1.00  0.00     0.162 HD
BRANCH   9  12
HETATM   12  C   UNL     1      -2.538   3.946 -32.560  1.00  0.00     0.141 C 
BRANCH  12  13
HETATM   13  C   UNL     1      -1.553   4.930 -31.968  1.00  0.00    -0.047 A 
HETATM   14  C   UNL     1      -0.870   4.716 -30.761  1.00  0.00     0.044 A 
HETATM   15  C   UNL     1       0.030   5.665 -30.258  1.00  0.00     0.068 A 
HETATM   16  C   UNL     1       0.247   6.847 -30.965  1.00  0.00     0.037 A 
HETATM   17  C   UNL     1      -0.426   7.076 -32.165  1.00  0.00     0.003 A 
HETATM   18  C   UNL     1      -1.317   6.126 -32.663  1.00  0.00     0.007 A 
BRANCH  15  19
HETATM   19  O   UNL     1       0.625   5.316 -29.077  1.00  0.00    -0.356 OA
HETATM   20  C   UNL     1       0.591   6.279 -28.031  1.00  0.00     0.210 C 
ENDBRANCH  15  19
ENDBRANCH  12  13
ENDBRANCH   9  12
ENDBRANCH   7   8
ENDBRANCH   1   7
BRANCH   4  21
HETATM   21  N   UNL     1     -10.282   1.364 -32.533  1.00  0.00    -0.321 N 
HETATM   22  C   UNL     1     -10.887   1.712 -33.728  1.00  0.00     0.279 C 
HETATM   23  O   UNL     1     -10.408   2.451 -34.582  1.00  0.00    -0.265 OA
HETATM   24  H   UNL     1     -10.819   0.717 -31.965  1.00  0.00     0.169 HD
BRANCH  22  25
HETATM   25  C   UNL     1     -12.200   1.106 -33.883  1.00  0.00     0.142 A 
HETATM   26  O   UNL     1     -12.440  -0.132 -33.340  1.00  0.00    -0.317 OA
HETATM   27  C   UNL     1     -13.736  -0.440 -33.608  1.00  0.00     0.143 A 
HETATM   28  C   UNL     1     -14.337   0.573 -34.318  1.00  0.00     0.027 A 
HETATM   29  C   UNL     1     -13.348   1.569 -34.498  1.00  0.00     0.045 A 
ENDBRANCH  22  25
ENDBRANCH   4  21
TORSDOF 7
ENDMDL
MODEL 7
REMARK VINA RESULT:      -7.6      3.203      5.846
REMARK  7 active torsions:
REMARK  status: ('A' for Active; 'I' for Inactive)
REMARK    1  A    between atoms: O_2  and  C_3 
REMARK    2  A    between atoms: C_5  and  C_6 
REMARK    3  A    between atoms: C_6  and  C_7 
REMARK       I    between atoms: C_7  and  N_8 
REMARK    4  A    between atoms: N_8  and  C_9 
REMARK    5  A    between atoms: C_9  and  C_10 
REMARK    6  A    between atoms: C_13  and  N_14 
REMARK       I    between atoms: N_14  and  C_15 
REMARK    7  A    between atoms: C_15  and  C_16 
ROOT
HETATM    1  C   UNL     1      -5.172   1.713 -32.740  1.00  0.00    -0.040 A 
HETATM    2  C   UNL     1      -5.416   3.054 -33.055  1.00  0.00     0.011 A 
HETATM    3  C   UNL     1      -4.652   4.076 -32.478  1.00  0.00     0.030 A 
HETATM    4  C   UNL     1      -3.624   3.773 -31.584  1.00  0.00     0.035 A 
HETATM    5  C   UNL     1      -3.389   2.434 -31.254  1.00  0.00     0.030 A 
HETATM    6  C   UNL     1      -4.154   1.412 -31.826  1.00  0.00     0.011 A 
ENDROOT
BRANCH   1   7
HETATM    7  C   UNL     1      -5.944   0.608 -33.409  1.00  0.00     0.161 C 
BRANCH   7   8
HETATM    8  N   UNL     1      -7.329   0.645 -32.998  1.00  0.00    -0.357 N 
HETATM    9  C   UNL     1      -8.336   0.318 -33.878  1.00  0.00     0.222 C 
HETATM   10  O   UNL     1      -8.130   0.028 -35.053  1.00  0.00    -0.273 OA
HETATM   11  H   UNL     1      -7.526   0.614 -32.006  1.00  0.00     0.162 HD
BRANCH   9  12
HETATM   12  C   UNL     1      -9.727   0.365 -33.276  1.00  0.00     0.141 C 
BRANCH  12  13
HETATM   13  C   UNL     1     -10.723   1.285 -33.946  1.00  0.00    -0.047 A 
HETATM   14  C   UNL     1     -12.059   0.936 -34.195  1.00  0.00     0.044 A 
HETATM   15  C   UNL     1     -12.938   1.828 -34.823  1.00  0.00     0.068 A 
HETATM   16  C   UNL     1     -12.478   3.085 -35.213  1.00  0.00     0.037 A 
HETATM   17  C   UNL     1     -11.152   3.447 -34.975  1.00  0.00     0.003 A 
HETATM   18  C   UNL     1     -10.283   2.556 -34.346  1.00  0.00     0.007 A 
BRANCH  15  19
HETATM   19  O   UNL     1     -14.210   1.352 -34.994  1.00  0.00    -0.356 OA
HETATM   20  C   UNL     1     -14.781   0.640 -33.903  1.00  0.00     0.210 C 
ENDBRANCH  15  19
ENDBRANCH  12  13
ENDBRANCH   9  12
ENDBRANCH   7   8
ENDBRANCH   1   7
BRANCH   4  21
HETATM   21  N   UNL     1      -2.774   4.733 -31.006  1.00  0.00    -0.321 N 
HETATM   22  C   UNL     1      -1.507   5.115 -31.410  1.00  0.00     0.279 C 
HETATM   23  O   UNL     1      -0.930   4.723 -32.418  1.00  0.00    -0.265 OA
HETATM   24  H   UNL     1      -3.099   5.187 -30.159  1.00  0.00     0.169 HD
BRANCH  22  25
HETATM   25  C   UNL     1      -0.892   6.058 -30.489  1.00  0.00     0.142 A 
HETATM   26  O   UNL     1      -1.665   6.669 -29.532  1.00  0.00    -0.317 OA
HETATM   27  C   UNL     1      -0.841   7.466 -28.803  1.00  0.00     0.143 A 
HETATM   28  C   UNL     1       0.449   7.386 -29.273  1.00  0.00     0.027 A 
HETATM   29  C   UNL     1       0.417   6.481 -30.360  1.00  0.00     0.045 A 
ENDBRANCH  22  25
ENDBRANCH   4  21
TORSDOF 7
ENDMDL
MODEL 8
REMARK VINA RESULT:      -7.5      4.165      7.553
REMARK  7 active torsions:
REMARK  status: ('A' for Active; 'I' for Inactive)
REMARK    1  A    between atoms: O_2  and  C_3 
REMARK    2  A    between atoms: C_5  and  C_6 
REMARK    3  A    between atoms: C_6  and  C_7 
REMARK       I    between atoms: C_7  and  N_8 
REMARK    4  A    between atoms: N_8  and  C_9 
REMARK    5  A    between atoms: C_9  and  C_10 
REMARK    6  A    between atoms: C_13  and  N_14 
REMARK       I    between atoms: N_14  and  C_15 
REMARK    7  A    between atoms: C_15  and  C_16 
ROOT
HETATM    1  C   UNL     1      -6.602   1.743 -30.560  1.00  0.00    -0.040 A 
HETATM    2  C   UNL     1      -7.080   2.965 -30.074  1.00  0.00     0.011 A 
HETATM    3  C   UNL     1      -8.400   3.365 -30.318  1.00  0.00     0.030 A 
HETATM    4  C   UNL     1      -9.265   2.546 -31.044  1.00  0.00     0.035 A 
HETATM    5  C   UNL     1      -8.784   1.333 -31.546  1.00  0.00     0.030 A 
HETATM    6  C   UNL     1      -7.466   0.933 -31.307  1.00  0.00     0.011 A 
ENDROOT
BRANCH   1   7
HETATM    7  C   UNL     1      -5.207   1.277 -30.243  1.00  0.00     0.161 C 
BRANCH   7   8
HETATM    8  N   UNL     1      -4.757   0.328 -31.236  1.00  0.00    -0.357 N 
HETATM    9  C   UNL     1      -3.926   0.720 -32.261  1.00  0.00     0.222 C 
HETATM   10  O   UNL     1      -3.562   1.881 -32.422  1.00  0.00    -0.273 OA
HETATM   11  H   UNL     1      -4.806  -0.656 -31.003  1.00  0.00     0.162 HD
BRANCH   9  12
HETATM   12  C   UNL     1      -3.514  -0.406 -33.191  1.00  0.00     0.141 C 
BRANCH  12  13
HETATM   13  C   UNL     1      -4.628  -1.253 -33.764  1.00  0.00    -0.047 A 
HETATM   14  C   UNL     1      -4.531  -2.640 -33.954  1.00  0.00     0.044 A 
HETATM   15  C   UNL     1      -5.595  -3.375 -34.493  1.00  0.00     0.068 A 
HETATM   16  C   UNL     1      -6.771  -2.718 -34.853  1.00  0.00     0.037 A 
HETATM   17  C   UNL     1      -6.882  -1.339 -34.673  1.00  0.00     0.003 A 
HETATM   18  C   UNL     1      -5.821  -0.613 -34.132  1.00  0.00     0.007 A 
BRANCH  15  19
HETATM   19  O   UNL     1      -5.359  -4.717 -34.614  1.00  0.00    -0.356 OA
HETATM   20  C   UNL     1      -4.202  -5.227 -33.963  1.00  0.00     0.210 C 
ENDBRANCH  15  19
ENDBRANCH  12  13
ENDBRANCH   9  12
ENDBRANCH   7   8
ENDBRANCH   1   7
BRANCH   4  21
HETATM   21  N   UNL     1     -10.618   2.847 -31.284  1.00  0.00    -0.321 N 
HETATM   22  C   UNL     1     -11.233   3.151 -32.485  1.00  0.00     0.279 C 
HETATM   23  O   UNL     1     -10.696   3.132 -33.587  1.00  0.00    -0.265 OA
HETATM   24  H   UNL     1     -11.231   2.889 -30.476  1.00  0.00     0.169 HD
BRANCH  22  25
HETATM   25  C   UNL     1     -12.629   3.520 -32.316  1.00  0.00     0.142 A 
HETATM   26  O   UNL     1     -13.610   2.610 -32.622  1.00  0.00    -0.317 OA
HETATM   27  C   UNL     1     -14.803   3.201 -32.348  1.00  0.00     0.143 A 
HETATM   28  C   UNL     1     -14.612   4.478 -31.876  1.00  0.00     0.027 A 
HETATM   29  C   UNL     1     -13.212   4.687 -31.857  1.00  0.00     0.045 A 
ENDBRANCH  22  25
ENDBRANCH   4  21
TORSDOF 7
ENDMDL
MODEL 9
REMARK VINA RESULT:      -7.4      4.572      8.900
REMARK  7 active torsions:
REMARK  status: ('A' for Active; 'I' for Inactive)
REMARK    1  A    between atoms: O_2  and  C_3 
REMARK    2  A    between atoms: C_5  and  C_6 
REMARK    3  A    between atoms: C_6  and  C_7 
REMARK       I    between atoms: C_7  and  N_8 
REMARK    4  A    between atoms: N_8  and  C_9 
REMARK    5  A    between atoms: C_9  and  C_10 
REMARK    6  A    between atoms: C_13  and  N_14 
REMARK       I    between atoms: N_14  and  C_15 
REMARK    7  A    between atoms: C_15  and  C_16 
ROOT
HETATM    1  C   UNL     1      -8.264   2.668 -31.280  1.00  0.00    -0.040 A 
HETATM    2  C   UNL     1      -6.899   2.639 -31.587  1.00  0.00     0.011 A 
HETATM    3  C   UNL     1      -6.311   1.488 -32.125  1.00  0.00     0.030 A 
HETATM    4  C   UNL     1      -7.080   0.350 -32.374  1.00  0.00     0.035 A 
HETATM    5  C   UNL     1      -8.441   0.371 -32.052  1.00  0.00     0.030 A 
HETATM    6  C   UNL     1      -9.029   1.518 -31.510  1.00  0.00     0.011 A 
ENDROOT
BRANCH   1   7
HETATM    7  C   UNL     1      -8.915   3.924 -30.766  1.00  0.00     0.161 C 
BRANCH   7   8
HETATM    8  N   UNL     1     -10.178   4.142 -31.432  1.00  0.00    -0.357 N 
HETATM    9  C   UNL     1     -10.228   4.731 -32.676  1.00  0.00     0.222 C 
HETATM   10  O   UNL     1      -9.231   5.141 -33.264  1.00  0.00    -0.273 OA
HETATM   11  H   UNL     1     -10.974   3.598 -31.123  1.00  0.00     0.162 HD
BRANCH   9  12
HETATM   12  C   UNL     1     -11.626   4.848 -33.252  1.00  0.00     0.141 C 
BRANCH  12  13
HETATM   13  C   UNL     1     -12.298   3.557 -33.665  1.00  0.00    -0.047 A 
HETATM   14  C   UNL     1     -13.373   2.983 -32.969  1.00  0.00     0.044 A 
HETATM   15  C   UNL     1     -13.956   1.782 -33.396  1.00  0.00     0.068 A 
HETATM   16  C   UNL     1     -13.456   1.141 -34.529  1.00  0.00     0.037 A 
HETATM   17  C   UNL     1     -12.386   1.698 -35.230  1.00  0.00     0.003 A 
HETATM   18  C   UNL     1     -11.813   2.895 -34.803  1.00  0.00     0.007 A 
BRANCH  15  19
HETATM   19  O   UNL     1     -14.998   1.348 -32.624  1.00  0.00    -0.356 OA
HETATM   20  C   UNL     1     -16.080   2.252 -32.436  1.00  0.00     0.210 C 
ENDBRANCH  15  19
ENDBRANCH  12  13
ENDBRANCH   9  12
ENDBRANCH   7   8
ENDBRANCH   1   7
BRANCH   4  21
HETATM   21  N   UNL     1      -6.580  -0.824 -32.965  1.00  0.00    -0.321 N 
HETATM   22  C   UNL     1      -6.659  -1.224 -34.287  1.00  0.00     0.279 C 
HETATM   23  O   UNL     1      -7.126  -0.560 -35.207  1.00  0.00    -0.265 OA
HETATM   24  H   UNL     1      -6.134  -1.497 -32.350  1.00  0.00     0.169 HD
BRANCH  22  25
HETATM   25  C   UNL     1      -6.126  -2.560 -34.496  1.00  0.00     0.142 A 
HETATM   26  O   UNL     1      -4.813  -2.819 -34.187  1.00  0.00    -0.317 OA
HETATM   27  C   UNL     1      -4.593  -4.134 -34.451  1.00  0.00     0.143 A 
HETATM   28  C   UNL     1      -5.736  -4.728 -34.930  1.00  0.00     0.027 A 
HETATM   29  C   UNL     1      -6.724  -3.716 -34.962  1.00  0.00     0.045 A 
ENDBRANCH  22  25
ENDBRANCH   4  21
TORSDOF 7
ENDMDL
MODEL 10
REMARK VINA RESULT:      -7.4      2.150      2.856
REMARK  7 active torsions:
REMARK  status: ('A' for Active; 'I' for Inactive)
REMARK    1  A    between atoms: O_2  and  C_3 
REMARK    2  A    between atoms: C_5  and  C_6 
REMARK    3  A    between atoms: C_6  and  C_7 
REMARK       I    between atoms: C_7  and  N_8 
REMARK    4  A    between atoms: N_8  and  C_9 
REMARK    5  A    between atoms: C_9  and  C_10 
REMARK    6  A    between atoms: C_13  and  N_14 
REMARK       I    between atoms: N_14  and  C_15 
REMARK    7  A    between atoms: C_15  and  C_16 
ROOT
HETATM    1  C   UNL     1      -7.308   3.619 -31.711  1.00  0.00    -0.040 A 
HETATM    2  C   UNL     1      -7.244   4.450 -30.587  1.00  0.00     0.011 A 
HETATM    3  C   UNL     1      -6.017   4.959 -30.143  1.00  0.00     0.030 A 
HETATM    4  C   UNL     1      -4.836   4.652 -30.820  1.00  0.00     0.035 A 
HETATM    5  C   UNL     1      -4.896   3.807 -31.933  1.00  0.00     0.030 A 
HETATM    6  C   UNL     1      -6.120   3.294 -32.376  1.00  0.00     0.011 A 
ENDROOT
BRANCH   1   7
HETATM    7  C   UNL     1      -8.631   3.125 -32.233  1.00  0.00     0.161 C 
BRANCH   7   8
HETATM    8  N   UNL     1      -8.427   2.054 -33.181  1.00  0.00    -0.357 N 
HETATM    9  C   UNL     1      -8.530   0.737 -32.791  1.00  0.00     0.222 C 
HETATM   10  O   UNL     1      -8.749   0.397 -31.632  1.00  0.00    -0.273 OA
HETATM   11  H   UNL     1      -8.510   2.274 -34.165  1.00  0.00     0.162 HD
BRANCH   9  12
HETATM   12  C   UNL     1      -8.330  -0.261 -33.916  1.00  0.00     0.141 C 
BRANCH  12  13
HETATM   13  C   UNL     1      -6.988  -0.954 -33.975  1.00  0.00    -0.047 A 
HETATM   14  C   UNL     1      -6.805  -2.255 -34.469  1.00  0.00     0.044 A 
HETATM   15  C   UNL     1      -5.537  -2.850 -34.497  1.00  0.00     0.068 A 
HETATM   16  C   UNL     1      -4.436  -2.141 -34.019  1.00  0.00     0.037 A 
HETATM   17  C   UNL     1      -4.601  -0.848 -33.521  1.00  0.00     0.003 A 
HETATM   18  C   UNL     1      -5.865  -0.260 -33.500  1.00  0.00     0.007 A 
BRANCH  15  19
HETATM   19  O   UNL     1      -5.512  -4.117 -35.012  1.00  0.00    -0.356 OA
HETATM   20  C   UNL     1      -4.747  -5.084 -34.303  1.00  0.00     0.210 C 
ENDBRANCH  15  19
ENDBRANCH  12  13
ENDBRANCH   9  12
ENDBRANCH   7   8
ENDBRANCH   1   7
BRANCH   4  21
HETATM   21  N   UNL     1      -3.574   5.167 -30.475  1.00  0.00    -0.321 N 
HETATM   22  C   UNL     1      -2.917   6.263 -31.004  1.00  0.00     0.279 C 
HETATM   23  O   UNL     1      -3.377   7.038 -31.835  1.00  0.00    -0.265 OA
HETATM   24  H   UNL     1      -3.043   4.658 -29.775  1.00  0.00     0.169 HD
BRANCH  22  25
HETATM   25  C   UNL     1      -1.572   6.415 -30.471  1.00  0.00     0.142 A 
HETATM   26  O   UNL     1      -0.764   5.311 -30.353  1.00  0.00    -0.317 OA
HETATM   27  C   UNL     1       0.427   5.741 -29.860  1.00  0.00     0.143 A 
HETATM   28  C   UNL     1       0.403   7.099 -29.652  1.00  0.00     0.027 A 
HETATM   29  C   UNL     1      -0.885   7.536 -30.044  1.00  0.00     0.045 A 
ENDBRANCH  22  25
ENDBRANCH   4  21
TORSDOF 7
ENDMDL
