MODEL 1
REMARK VINA RESULT:      -8.9      0.000      0.000
REMARK  2 active torsions:
REMARK  status: ('A' for Active; 'I' for Inactive)
REMARK    1  A    between atoms: C_4  and  C_5 
REMARK    2  A    between atoms: C_11  and  C_12 
ROOT
HETATM    1  C   UNL     1      -7.678   2.391 -31.244  1.00  0.00     0.098 A 
HETATM    2  N   UNL     1      -7.806   2.619 -29.921  1.00  0.00    -0.172 NA
HETATM    3  N   UNL     1      -6.595   3.030 -29.518  1.00  0.00    -0.261 N 
HETATM    4  H   UNL     1      -6.463   3.252 -28.538  1.00  0.00     0.191 HD
HETATM    5  C   UNL     1      -5.691   3.066 -30.528  1.00  0.00     0.133 A 
HETATM    6  C   UNL     1      -6.345   2.680 -31.670  1.00  0.00     0.028 A 
HETATM    7  C   UNL     1      -5.620   2.581 -32.964  1.00  0.00     0.067 C 
HETATM    8  C   UNL     1      -4.266   3.312 -32.911  1.00  0.00     0.117 C 
HETATM    9  C   UNL     1      -3.574   3.341 -31.551  1.00  0.00     0.224 C 
HETATM   10  O   UNL     1      -2.353   3.465 -31.452  1.00  0.00    -0.273 OA
HETATM   11  N   UNL     1      -4.361   3.363 -30.425  1.00  0.00    -0.312 N 
HETATM   12  H   UNL     1      -3.895   3.495 -29.535  1.00  0.00     0.170 HD
ENDROOT
BRANCH   7  13
HETATM   13  C   UNL     1      -5.474   1.111 -33.333  1.00  0.00    -0.046 A 
HETATM   14  C   UNL     1      -4.464   0.369 -32.685  1.00  0.00     0.047 A 
HETATM   15  C   UNL     1      -4.339  -0.973 -32.972  1.00  0.00     0.105 A 
HETATM   16  C   UNL     1      -5.166  -1.602 -33.869  1.00  0.00     0.105 A 
HETATM   17  O   UNL     1      -3.427  -1.820 -32.423  1.00  0.00    -0.323 OA
HETATM   18  O   UNL     1      -4.876  -2.923 -34.006  1.00  0.00    -0.323 OA
HETATM   19  C   UNL     1      -6.171  -0.924 -34.521  1.00  0.00     0.040 A 
HETATM   20  C   UNL     1      -3.781  -3.057 -33.077  1.00  0.00     0.352 A 
HETATM   21  C   UNL     1      -6.332   0.439 -34.239  1.00  0.00     0.011 A 
ENDBRANCH   7  13
BRANCH   1  22
HETATM   22  C   UNL     1      -8.805   1.855 -32.013  1.00  0.00    -0.005 A 
HETATM   23  C   UNL     1      -9.647   2.681 -32.765  1.00  0.00     0.014 A 
HETATM   24  C   UNL     1     -10.698   2.135 -33.509  1.00  0.00     0.001 A 
HETATM   25  C   UNL     1     -10.925   0.760 -33.498  1.00  0.00     0.000 A 
HETATM   26  C   UNL     1     -10.107  -0.072 -32.739  1.00  0.00     0.001 A 
HETATM   27  C   UNL     1      -9.055   0.473 -32.001  1.00  0.00     0.014 A 
ENDBRANCH   1  22
TORSDOF 2
ENDMDL
MODEL 2
REMARK VINA RESULT:      -8.7      2.011      2.481
REMARK  2 active torsions:
REMARK  status: ('A' for Active; 'I' for Inactive)
REMARK    1  A    between atoms: C_4  and  C_5 
REMARK    2  A    between atoms: C_11  and  C_12 
ROOT
HETATM    1  C   UNL     1      -6.977   0.829 -31.561  1.00  0.00     0.098 A 
HETATM    2  N   UNL     1      -7.129   0.894 -30.222  1.00  0.00    -0.172 NA
HETATM    3  N   UNL     1      -5.916   0.624 -29.719  1.00  0.00    -0.261 N 
HETATM    4  H   UNL     1      -5.803   0.612 -28.712  1.00  0.00     0.191 HD
HETATM    5  C   UNL     1      -4.992   0.380 -30.681  1.00  0.00     0.133 A 
HETATM    6  C   UNL     1      -5.623   0.518 -31.891  1.00  0.00     0.028 A 
HETATM    7  C   UNL     1      -4.888   0.280 -33.162  1.00  0.00     0.067 C 
HETATM    8  C   UNL     1      -3.364   0.274 -32.942  1.00  0.00     0.117 C 
HETATM    9  C   UNL     1      -2.887  -0.225 -31.580  1.00  0.00     0.224 C 
HETATM   10  O   UNL     1      -1.764  -0.705 -31.428  1.00  0.00    -0.273 OA
HETATM   11  N   UNL     1      -3.693  -0.001 -30.490  1.00  0.00    -0.312 N 
HETATM   12  H   UNL     1      -3.318  -0.236 -29.579  1.00  0.00     0.170 HD
ENDROOT
BRANCH   7  13
HETATM   13  C   UNL     1      -5.392  -1.014 -33.786  1.00  0.00    -0.046 A 
HETATM   14  C   UNL     1      -4.550  -2.144 -33.722  1.00  0.00     0.047 A 
HETATM   15  C   UNL     1      -5.001  -3.338 -34.243  1.00  0.00     0.105 A 
HETATM   16  C   UNL     1      -6.241  -3.454 -34.820  1.00  0.00     0.105 A 
HETATM   17  O   UNL     1      -4.314  -4.511 -34.246  1.00  0.00    -0.323 OA
HETATM   18  O   UNL     1      -6.490  -4.713 -35.268  1.00  0.00    -0.323 OA
HETATM   19  C   UNL     1      -7.101  -2.383 -34.899  1.00  0.00     0.040 A 
HETATM   20  C   UNL     1      -5.269  -5.381 -34.890  1.00  0.00     0.352 A 
HETATM   21  C   UNL     1      -6.676  -1.159 -34.365  1.00  0.00     0.011 A 
ENDBRANCH   7  13
BRANCH   1  22
HETATM   22  C   UNL     1      -8.134   1.004 -32.443  1.00  0.00    -0.005 A 
HETATM   23  C   UNL     1      -8.160   1.982 -33.444  1.00  0.00     0.014 A 
HETATM   24  C   UNL     1      -9.269   2.106 -34.287  1.00  0.00     0.001 A 
HETATM   25  C   UNL     1     -10.368   1.262 -34.130  1.00  0.00     0.000 A 
HETATM   26  C   UNL     1     -10.363   0.296 -33.128  1.00  0.00     0.001 A 
HETATM   27  C   UNL     1      -9.253   0.170 -32.289  1.00  0.00     0.014 A 
ENDBRANCH   1  22
TORSDOF 2
ENDMDL
MODEL 3
REMARK VINA RESULT:      -8.7      2.860      5.227
REMARK  2 active torsions:
REMARK  status: ('A' for Active; 'I' for Inactive)
REMARK    1  A    between atoms: C_4  and  C_5 
REMARK    2  A    between atoms: C_11  and  C_12 
ROOT
HETATM    1  C   UNL     1      -4.546  -0.850 -33.043  1.00  0.00     0.098 A 
HETATM    2  N   UNL     1      -3.300  -0.470 -33.392  1.00  0.00    -0.172 NA
HETATM    3  N   UNL     1      -3.040   0.609 -32.639  1.00  0.00    -0.261 N 
HETATM    4  H   UNL     1      -2.143   1.068 -32.749  1.00  0.00     0.191 HD
HETATM    5  C   UNL     1      -4.072   0.941 -31.826  1.00  0.00     0.133 A 
HETATM    6  C   UNL     1      -5.065   0.018 -32.034  1.00  0.00     0.028 A 
HETATM    7  C   UNL     1      -6.360   0.119 -31.312  1.00  0.00     0.067 C 
HETATM    8  C   UNL     1      -6.263   1.073 -30.107  1.00  0.00     0.117 C 
HETATM    9  C   UNL     1      -5.278   2.231 -30.248  1.00  0.00     0.224 C 
HETATM   10  O   UNL     1      -5.417   3.276 -29.613  1.00  0.00    -0.273 OA
HETATM   11  N   UNL     1      -4.146   2.029 -31.001  1.00  0.00    -0.312 N 
HETATM   12  H   UNL     1      -3.448   2.763 -30.997  1.00  0.00     0.170 HD
ENDROOT
BRANCH   7  13
HETATM   13  C   UNL     1      -7.441   0.536 -32.299  1.00  0.00    -0.046 A 
HETATM   14  C   UNL     1      -8.737   0.010 -32.115  1.00  0.00     0.047 A 
HETATM   15  C   UNL     1      -9.742   0.406 -32.972  1.00  0.00     0.105 A 
HETATM   16  C   UNL     1      -9.514   1.292 -33.994  1.00  0.00     0.105 A 
HETATM   17  O   UNL     1     -11.038  -0.003 -32.916  1.00  0.00    -0.323 OA
HETATM   18  O   UNL     1     -10.636   1.549 -34.719  1.00  0.00    -0.323 OA
HETATM   19  C   UNL     1      -8.270   1.839 -34.210  1.00  0.00     0.040 A 
HETATM   20  C   UNL     1     -11.600   0.734 -34.022  1.00  0.00     0.352 A 
HETATM   21  C   UNL     1      -7.231   1.467 -33.347  1.00  0.00     0.011 A 
ENDBRANCH   7  13
BRANCH   1  22
HETATM   22  C   UNL     1      -5.193  -1.973 -33.727  1.00  0.00    -0.005 A 
HETATM   23  C   UNL     1      -6.494  -1.882 -34.233  1.00  0.00     0.014 A 
HETATM   24  C   UNL     1      -7.073  -2.964 -34.904  1.00  0.00     0.001 A 
HETATM   25  C   UNL     1      -6.362  -4.152 -35.065  1.00  0.00     0.000 A 
HETATM   26  C   UNL     1      -5.073  -4.263 -34.551  1.00  0.00     0.001 A 
HETATM   27  C   UNL     1      -4.494  -3.181 -33.885  1.00  0.00     0.014 A 
ENDBRANCH   1  22
TORSDOF 2
ENDMDL
MODEL 4
REMARK VINA RESULT:      -8.4      2.683      5.109
REMARK  2 active torsions:
REMARK  status: ('A' for Active; 'I' for Inactive)
REMARK    1  A    between atoms: C_4  and  C_5 
REMARK    2  A    between atoms: C_11  and  C_12 
ROOT
HETATM    1  C   UNL     1      -4.601   0.687 -32.579  1.00  0.00     0.098 A 
HETATM    2  N   UNL     1      -3.368   1.184 -32.811  1.00  0.00    -0.172 NA
HETATM    3  N   UNL     1      -3.263   2.247 -32.001  1.00  0.00    -0.261 N 
HETATM    4  H   UNL     1      -2.403   2.784 -32.020  1.00  0.00     0.191 HD
HETATM    5  C   UNL     1      -4.380   2.457 -31.264  1.00  0.00     0.133 A 
HETATM    6  C   UNL     1      -5.270   1.464 -31.586  1.00  0.00     0.028 A 
HETATM    7  C   UNL     1      -6.622   1.426 -30.969  1.00  0.00     0.067 C 
HETATM    8  C   UNL     1      -6.703   2.332 -29.727  1.00  0.00     0.117 C 
HETATM    9  C   UNL     1      -5.813   3.572 -29.744  1.00  0.00     0.224 C 
HETATM   10  O   UNL     1      -6.092   4.574 -29.085  1.00  0.00    -0.273 OA
HETATM   11  N   UNL     1      -4.613   3.499 -30.409  1.00  0.00    -0.312 N 
HETATM   12  H   UNL     1      -3.984   4.288 -30.320  1.00  0.00     0.170 HD
ENDROOT
BRANCH   7  13
HETATM   13  C   UNL     1      -7.654   1.794 -32.026  1.00  0.00    -0.046 A 
HETATM   14  C   UNL     1      -8.804   0.983 -32.131  1.00  0.00     0.047 A 
HETATM   15  C   UNL     1      -9.772   1.321 -33.052  1.00  0.00     0.105 A 
HETATM   16  C   UNL     1      -9.645   2.418 -33.867  1.00  0.00     0.105 A 
HETATM   17  O   UNL     1     -10.935   0.648 -33.263  1.00  0.00    -0.323 OA
HETATM   18  O   UNL     1     -10.708   2.572 -34.700  1.00  0.00    -0.323 OA
HETATM   19  C   UNL     1      -8.547   3.244 -33.797  1.00  0.00     0.040 A 
HETATM   20  C   UNL     1     -11.528   1.454 -34.303  1.00  0.00     0.352 A 
HETATM   21  C   UNL     1      -7.552   2.935 -32.860  1.00  0.00     0.011 A 
ENDBRANCH   7  13
BRANCH   1  22
HETATM   22  C   UNL     1      -5.092  -0.456 -33.354  1.00  0.00    -0.005 A 
HETATM   23  C   UNL     1      -4.482  -1.713 -33.287  1.00  0.00     0.014 A 
HETATM   24  C   UNL     1      -4.991  -2.791 -34.019  1.00  0.00     0.001 A 
HETATM   25  C   UNL     1      -6.108  -2.618 -34.835  1.00  0.00     0.000 A 
HETATM   26  C   UNL     1      -6.714  -1.369 -34.926  1.00  0.00     0.001 A 
HETATM   27  C   UNL     1      -6.208  -0.295 -34.192  1.00  0.00     0.014 A 
ENDBRANCH   1  22
TORSDOF 2
ENDMDL
MODEL 5
REMARK VINA RESULT:      -8.3      2.750      5.028
REMARK  2 active torsions:
REMARK  status: ('A' for Active; 'I' for Inactive)
REMARK    1  A    between atoms: C_4  and  C_5 
REMARK    2  A    between atoms: C_11  and  C_12 
ROOT
HETATM    1  C   UNL     1      -7.876   0.688 -32.392  1.00  0.00     0.098 A 
HETATM    2  N   UNL     1      -8.788   0.241 -31.504  1.00  0.00    -0.172 NA
HETATM    3  N   UNL     1      -9.472   1.331 -31.127  1.00  0.00    -0.261 N 
HETATM    4  H   UNL     1     -10.214   1.223 -30.445  1.00  0.00     0.191 HD
HETATM    5  C   UNL     1      -9.031   2.461 -31.731  1.00  0.00     0.133 A 
HETATM    6  C   UNL     1      -8.011   2.098 -32.574  1.00  0.00     0.028 A 
HETATM    7  C   UNL     1      -7.282   3.120 -33.370  1.00  0.00     0.067 C 
HETATM    8  C   UNL     1      -8.050   4.454 -33.417  1.00  0.00     0.117 C 
HETATM    9  C   UNL     1      -8.900   4.780 -32.191  1.00  0.00     0.224 C 
HETATM   10  O   UNL     1      -9.179   5.941 -31.891  1.00  0.00    -0.273 OA
HETATM   11  N   UNL     1      -9.466   3.736 -31.500  1.00  0.00    -0.312 N 
HETATM   12  H   UNL     1     -10.116   3.968 -30.758  1.00  0.00     0.170 HD
ENDROOT
BRANCH   7  13
HETATM   13  C   UNL     1      -5.879   3.276 -32.800  1.00  0.00    -0.046 A 
HETATM   14  C   UNL     1      -4.926   3.965 -33.580  1.00  0.00     0.047 A 
HETATM   15  C   UNL     1      -3.661   4.155 -33.067  1.00  0.00     0.105 A 
HETATM   16  C   UNL     1      -3.306   3.692 -31.825  1.00  0.00     0.105 A 
HETATM   17  O   UNL     1      -2.643   4.806 -33.691  1.00  0.00    -0.323 OA
HETATM   18  O   UNL     1      -2.016   3.985 -31.511  1.00  0.00    -0.323 OA
HETATM   19  C   UNL     1      -4.201   3.021 -31.024  1.00  0.00     0.040 A 
HETATM   20  C   UNL     1      -1.606   4.702 -32.693  1.00  0.00     0.352 A 
HETATM   21  C   UNL     1      -5.500   2.825 -31.512  1.00  0.00     0.011 A 
ENDBRANCH   7  13
BRANCH   1  22
HETATM   22  C   UNL     1      -6.894  -0.235 -32.968  1.00  0.00    -0.005 A 
HETATM   23  C   UNL     1      -5.673  -0.504 -32.339  1.00  0.00     0.014 A 
HETATM   24  C   UNL     1      -4.769  -1.410 -32.902  1.00  0.00     0.001 A 
HETATM   25  C   UNL     1      -5.071  -2.048 -34.104  1.00  0.00     0.000 A 
HETATM   26  C   UNL     1      -6.274  -1.777 -34.750  1.00  0.00     0.001 A 
HETATM   27  C   UNL     1      -7.178  -0.875 -34.186  1.00  0.00     0.014 A 
ENDBRANCH   1  22
TORSDOF 2
ENDMDL
MODEL 6
REMARK VINA RESULT:      -8.2     15.049     16.712
REMARK  2 active torsions:
REMARK  status: ('A' for Active; 'I' for Inactive)
REMARK    1  A    between atoms: C_4  and  C_5 
REMARK    2  A    between atoms: C_11  and  C_12 
ROOT
HETATM    1  C   UNL     1      -7.362 -13.263 -37.835  1.00  0.00     0.098 A 
HETATM    2  N   UNL     1      -7.505 -13.649 -36.550  1.00  0.00    -0.172 NA
HETATM    3  N   UNL     1      -6.273 -13.579 -36.026  1.00  0.00    -0.261 N 
HETATM    4  H   UNL     1      -6.147 -13.838 -35.054  1.00  0.00     0.191 HD
HETATM    5  C   UNL     1      -5.343 -13.172 -36.924  1.00  0.00     0.133 A 
HETATM    6  C   UNL     1      -5.999 -12.936 -38.106  1.00  0.00     0.028 A 
HETATM    7  C   UNL     1      -5.251 -12.504 -39.316  1.00  0.00     0.067 C 
HETATM    8  C   UNL     1      -3.839 -12.003 -38.960  1.00  0.00     0.117 C 
HETATM    9  C   UNL     1      -3.183 -12.658 -37.747  1.00  0.00     0.224 C 
HETATM   10  O   UNL     1      -1.960 -12.705 -37.624  1.00  0.00    -0.273 OA
HETATM   11  N   UNL     1      -3.994 -13.077 -36.720  1.00  0.00    -0.312 N 
HETATM   12  H   UNL     1      -3.542 -13.407 -35.876  1.00  0.00     0.170 HD
ENDROOT
BRANCH   7  13
HETATM   13  C   UNL     1      -5.227 -13.653 -40.314  1.00  0.00    -0.046 A 
HETATM   14  C   UNL     1      -4.847 -13.362 -41.642  1.00  0.00     0.047 A 
HETATM   15  C   UNL     1      -4.778 -14.393 -42.553  1.00  0.00     0.105 A 
HETATM   16  C   UNL     1      -5.070 -15.688 -42.205  1.00  0.00     0.105 A 
HETATM   17  O   UNL     1      -4.419 -14.274 -43.859  1.00  0.00    -0.323 OA
HETATM   18  O   UNL     1      -4.939 -16.549 -43.249  1.00  0.00    -0.323 OA
HETATM   19  C   UNL     1      -5.438 -16.024 -40.922  1.00  0.00     0.040 A 
HETATM   20  C   UNL     1      -4.514 -15.647 -44.292  1.00  0.00     0.352 A 
HETATM   21  C   UNL     1      -5.503 -14.999 -39.969  1.00  0.00     0.011 A 
ENDBRANCH   7  13
BRANCH   1  22
HETATM   22  C   UNL     1      -8.512 -13.286 -38.743  1.00  0.00    -0.005 A 
HETATM   23  C   UNL     1      -8.997 -12.124 -39.354  1.00  0.00     0.014 A 
HETATM   24  C   UNL     1     -10.080 -12.184 -40.236  1.00  0.00     0.001 A 
HETATM   25  C   UNL     1     -10.697 -13.404 -40.508  1.00  0.00     0.000 A 
HETATM   26  C   UNL     1     -10.237 -14.566 -39.895  1.00  0.00     0.001 A 
HETATM   27  C   UNL     1      -9.152 -14.506 -39.017  1.00  0.00     0.014 A 
ENDBRANCH   1  22
TORSDOF 2
ENDMDL
MODEL 7
REMARK VINA RESULT:      -8.2      2.477      4.913
REMARK  2 active torsions:
REMARK  status: ('A' for Active; 'I' for Inactive)
REMARK    1  A    between atoms: C_4  and  C_5 
REMARK    2  A    between atoms: C_11  and  C_12 
ROOT
HETATM    1  C   UNL     1      -7.061   3.665 -33.234  1.00  0.00     0.098 A 
HETATM    2  N   UNL     1      -7.484   4.682 -34.013  1.00  0.00    -0.172 NA
HETATM    3  N   UNL     1      -8.752   4.379 -34.325  1.00  0.00    -0.261 N 
HETATM    4  H   UNL     1      -9.267   5.016 -34.921  1.00  0.00     0.191 HD
HETATM    5  C   UNL     1      -9.158   3.204 -33.784  1.00  0.00     0.133 A 
HETATM    6  C   UNL     1      -8.108   2.711 -33.053  1.00  0.00     0.028 A 
HETATM    7  C   UNL     1      -8.217   1.404 -32.352  1.00  0.00     0.067 C 
HETATM    8  C   UNL     1      -9.682   0.945 -32.236  1.00  0.00     0.117 C 
HETATM    9  C   UNL     1     -10.611   1.382 -33.365  1.00  0.00     0.224 C 
HETATM   10  O   UNL     1     -11.628   0.747 -33.645  1.00  0.00    -0.273 OA
HETATM   11  N   UNL     1     -10.361   2.585 -33.980  1.00  0.00    -0.312 N 
HETATM   12  H   UNL     1     -11.046   2.916 -34.650  1.00  0.00     0.170 HD
ENDROOT
BRANCH   7  13
HETATM   13  C   UNL     1      -7.343   0.386 -33.072  1.00  0.00    -0.046 A 
HETATM   14  C   UNL     1      -6.259  -0.169 -32.360  1.00  0.00     0.047 A 
HETATM   15  C   UNL     1      -5.479  -1.123 -32.977  1.00  0.00     0.105 A 
HETATM   16  C   UNL     1      -5.728  -1.543 -34.260  1.00  0.00     0.105 A 
HETATM   17  O   UNL     1      -4.412  -1.756 -32.420  1.00  0.00    -0.323 OA
HETATM   18  O   UNL     1      -4.845  -2.488 -34.678  1.00  0.00    -0.323 OA
HETATM   19  C   UNL     1      -6.777  -1.037 -34.993  1.00  0.00     0.040 A 
HETATM   20  C   UNL     1      -4.021  -2.627 -33.502  1.00  0.00     0.352 A 
HETATM   21  C   UNL     1      -7.597  -0.076 -34.387  1.00  0.00     0.011 A 
ENDBRANCH   7  13
BRANCH   1  22
HETATM   22  C   UNL     1      -5.675   3.628 -32.759  1.00  0.00    -0.005 A 
HETATM   23  C   UNL     1      -5.341   3.147 -31.488  1.00  0.00     0.014 A 
HETATM   24  C   UNL     1      -4.005   3.101 -31.074  1.00  0.00     0.001 A 
HETATM   25  C   UNL     1      -2.992   3.546 -31.922  1.00  0.00     0.000 A 
HETATM   26  C   UNL     1      -3.312   4.044 -33.182  1.00  0.00     0.001 A 
HETATM   27  C   UNL     1      -4.644   4.086 -33.596  1.00  0.00     0.014 A 
ENDBRANCH   1  22
TORSDOF 2
ENDMDL
MODEL 8
REMARK VINA RESULT:      -8.1      2.663      4.635
REMARK  2 active torsions:
REMARK  status: ('A' for Active; 'I' for Inactive)
REMARK    1  A    between atoms: C_4  and  C_5 
REMARK    2  A    between atoms: C_11  and  C_12 
ROOT
HETATM    1  C   UNL     1      -6.940  -0.445 -33.575  1.00  0.00     0.098 A 
HETATM    2  N   UNL     1      -6.568  -1.322 -34.531  1.00  0.00    -0.172 NA
HETATM    3  N   UNL     1      -5.305  -1.655 -34.226  1.00  0.00    -0.261 N 
HETATM    4  H   UNL     1      -4.820  -2.309 -34.830  1.00  0.00     0.191 HD
HETATM    5  C   UNL     1      -4.849  -1.021 -33.118  1.00  0.00     0.133 A 
HETATM    6  C   UNL     1      -5.874  -0.241 -32.647  1.00  0.00     0.028 A 
HETATM    7  C   UNL     1      -5.686   0.618 -31.448  1.00  0.00     0.067 C 
HETATM    8  C   UNL     1      -4.431   0.213 -30.653  1.00  0.00     0.117 C 
HETATM    9  C   UNL     1      -3.279  -0.366 -31.471  1.00  0.00     0.224 C 
HETATM   10  O   UNL     1      -2.115  -0.302 -31.077  1.00  0.00    -0.273 OA
HETATM   11  N   UNL     1      -3.585  -1.087 -32.600  1.00  0.00    -0.312 N 
HETATM   12  H   UNL     1      -2.822  -1.558 -33.071  1.00  0.00     0.170 HD
ENDROOT
BRANCH   7  13
HETATM   13  C   UNL     1      -5.651   2.075 -31.889  1.00  0.00    -0.046 A 
HETATM   14  C   UNL     1      -4.481   2.541 -32.525  1.00  0.00     0.047 A 
HETATM   15  C   UNL     1      -4.442   3.845 -32.970  1.00  0.00     0.105 A 
HETATM   16  C   UNL     1      -5.505   4.697 -32.809  1.00  0.00     0.105 A 
HETATM   17  O   UNL     1      -3.395   4.433 -33.608  1.00  0.00    -0.323 OA
HETATM   18  O   UNL     1      -5.262   5.934 -33.318  1.00  0.00    -0.323 OA
HETATM   19  C   UNL     1      -6.671   4.289 -32.202  1.00  0.00     0.040 A 
HETATM   20  C   UNL     1      -3.927   5.755 -33.834  1.00  0.00     0.352 A 
HETATM   21  C   UNL     1      -6.746   2.964 -31.752  1.00  0.00     0.011 A 
ENDBRANCH   7  13
BRANCH   1  22
HETATM   22  C   UNL     1      -8.259   0.191 -33.633  1.00  0.00    -0.005 A 
HETATM   23  C   UNL     1      -8.496   1.336 -34.400  1.00  0.00     0.014 A 
HETATM   24  C   UNL     1      -9.773   1.904 -34.455  1.00  0.00     0.001 A 
HETATM   25  C   UNL     1     -10.823   1.339 -33.733  1.00  0.00     0.000 A 
HETATM   26  C   UNL     1     -10.598   0.210 -32.950  1.00  0.00     0.001 A 
HETATM   27  C   UNL     1      -9.324  -0.359 -32.900  1.00  0.00     0.014 A 
ENDBRANCH   1  22
TORSDOF 2
ENDMDL
MODEL 9
REMARK VINA RESULT:      -8.1      3.541      5.823
REMARK  2 active torsions:
REMARK  status: ('A' for Active; 'I' for Inactive)
REMARK    1  A    between atoms: C_4  and  C_5 
REMARK    2  A    between atoms: C_11  and  C_12 
ROOT
HETATM    1  C   UNL     1      -6.514   2.241 -32.936  1.00  0.00     0.098 A 
HETATM    2  N   UNL     1      -5.557   3.144 -33.238  1.00  0.00    -0.172 NA
HETATM    3  N   UNL     1      -5.916   4.262 -32.591  1.00  0.00    -0.261 N 
HETATM    4  H   UNL     1      -5.331   5.084 -32.688  1.00  0.00     0.191 HD
HETATM    5  C   UNL     1      -7.069   4.117 -31.894  1.00  0.00     0.133 A 
HETATM    6  C   UNL     1      -7.487   2.822 -32.068  1.00  0.00     0.028 A 
HETATM    7  C   UNL     1      -8.754   2.343 -31.454  1.00  0.00     0.067 C 
HETATM    8  C   UNL     1      -9.249   3.304 -30.357  1.00  0.00     0.117 C 
HETATM    9  C   UNL     1      -8.907   4.779 -30.555  1.00  0.00     0.224 C 
HETATM   10  O   UNL     1      -9.588   5.672 -30.051  1.00  0.00    -0.273 OA
HETATM   11  N   UNL     1      -7.735   5.090 -31.201  1.00  0.00    -0.312 N 
HETATM   12  H   UNL     1      -7.464   6.066 -31.228  1.00  0.00     0.170 HD
ENDROOT
BRANCH   7  13
HETATM   13  C   UNL     1      -9.785   2.134 -32.554  1.00  0.00    -0.046 A 
HETATM   14  C   UNL     1     -10.125   3.245 -33.354  1.00  0.00     0.047 A 
HETATM   15  C   UNL     1     -11.025   3.070 -34.383  1.00  0.00     0.105 A 
HETATM   16  C   UNL     1     -11.597   1.851 -34.646  1.00  0.00     0.105 A 
HETATM   17  O   UNL     1     -11.442   4.037 -35.244  1.00  0.00    -0.323 OA
HETATM   18  O   UNL     1     -12.453   1.895 -35.701  1.00  0.00    -0.323 OA
HETATM   19  C   UNL     1     -11.292   0.736 -33.899  1.00  0.00     0.040 A 
HETATM   20  C   UNL     1     -12.341   3.281 -36.083  1.00  0.00     0.352 A 
HETATM   21  C   UNL     1     -10.369   0.879 -32.855  1.00  0.00     0.011 A 
ENDBRANCH   7  13
BRANCH   1  22
HETATM   22  C   UNL     1      -6.481   0.905 -33.536  1.00  0.00    -0.005 A 
HETATM   23  C   UNL     1      -5.761  -0.148 -32.960  1.00  0.00     0.014 A 
HETATM   24  C   UNL     1      -5.772  -1.419 -33.543  1.00  0.00     0.001 A 
HETATM   25  C   UNL     1      -6.492  -1.648 -34.715  1.00  0.00     0.000 A 
HETATM   26  C   UNL     1      -7.198  -0.605 -35.309  1.00  0.00     0.001 A 
HETATM   27  C   UNL     1      -7.191   0.662 -34.724  1.00  0.00     0.014 A 
ENDBRANCH   1  22
TORSDOF 2
ENDMDL
MODEL 10
REMARK VINA RESULT:      -8.0      2.999      5.600
REMARK  2 active torsions:
REMARK  status: ('A' for Active; 'I' for Inactive)
REMARK    1  A    between atoms: C_4  and  C_5 
REMARK    2  A    between atoms: C_11  and  C_12 
ROOT
HETATM    1  C   UNL     1      -8.890   0.295 -33.320  1.00  0.00     0.098 A 
HETATM    2  N   UNL     1      -9.942  -0.360 -32.786  1.00  0.00    -0.172 NA
HETATM    3  N   UNL     1     -10.921   0.553 -32.713  1.00  0.00    -0.261 N 
HETATM    4  H   UNL     1     -11.815   0.271 -32.327  1.00  0.00     0.191 HD
HETATM    5  C   UNL     1     -10.539   1.770 -33.171  1.00  0.00     0.133 A 
HETATM    6  C   UNL     1      -9.239   1.653 -33.593  1.00  0.00     0.028 A 
HETATM    7  C   UNL     1      -8.504   2.830 -34.127  1.00  0.00     0.067 C 
HETATM    8  C   UNL     1      -9.463   3.978 -34.490  1.00  0.00     0.117 C 
HETATM    9  C   UNL     1     -10.734   4.081 -33.649  1.00  0.00     0.224 C 
HETATM   10  O   UNL     1     -11.330   5.148 -33.510  1.00  0.00    -0.273 OA
HETATM   11  N   UNL     1     -11.278   2.920 -33.155  1.00  0.00    -0.312 N 
HETATM   12  H   UNL     1     -12.178   2.987 -32.695  1.00  0.00     0.170 HD
ENDROOT
BRANCH   7  13
HETATM   13  C   UNL     1      -7.450   3.251 -33.113  1.00  0.00    -0.046 A 
HETATM   14  C   UNL     1      -6.106   3.293 -33.541  1.00  0.00     0.047 A 
HETATM   15  C   UNL     1      -5.139   3.711 -32.653  1.00  0.00     0.105 A 
HETATM   16  C   UNL     1      -5.448   4.084 -31.368  1.00  0.00     0.105 A 
HETATM   17  O   UNL     1      -3.810   3.816 -32.920  1.00  0.00    -0.323 OA
HETATM   18  O   UNL     1      -4.351   4.463 -30.659  1.00  0.00    -0.323 OA
HETATM   19  C   UNL     1      -6.743   4.067 -30.905  1.00  0.00     0.040 A 
HETATM   20  C   UNL     1      -3.318   4.302 -31.653  1.00  0.00     0.352 A 
HETATM   21  C   UNL     1      -7.751   3.660 -31.790  1.00  0.00     0.011 A 
ENDBRANCH   7  13
BRANCH   1  22
HETATM   22  C   UNL     1      -7.603  -0.386 -33.482  1.00  0.00    -0.005 A 
HETATM   23  C   UNL     1      -7.300  -1.134 -34.626  1.00  0.00     0.014 A 
HETATM   24  C   UNL     1      -6.052  -1.750 -34.762  1.00  0.00     0.001 A 
HETATM   25  C   UNL     1      -5.099  -1.636 -33.751  1.00  0.00     0.000 A 
HETATM   26  C   UNL     1      -5.393  -0.911 -32.600  1.00  0.00     0.001 A 
HETATM   27  C   UNL     1      -6.638  -0.292 -32.466  1.00  0.00     0.014 A 
ENDBRANCH   1  22
TORSDOF 2
ENDMDL
