MODEL 1
REMARK VINA RESULT:      -8.9      0.000      0.000
REMARK  5 active torsions:
REMARK  status: ('A' for Active; 'I' for Inactive)
REMARK    1  A    between atoms: C_2  and  C_3 
REMARK    2  A    between atoms: C_3  and  C_4 
REMARK    3  A    between atoms: C_7  and  N_8 
REMARK       I    between atoms: N_8  and  C_9 
REMARK       I    between atoms: C_9  and  N_10 
REMARK    4  A    between atoms: N_10  and  N_11 
REMARK       I    between atoms: N_11  and  C_12 
REMARK    5  A    between atoms: C_12  and  C_13 
ROOT
HETATM    1  N   UNL     1      -5.179   4.084 -34.046  1.00  0.00    -0.337 N 
HETATM    2  C   UNL     1      -6.522   3.968 -33.776  1.00  0.00     0.335 C 
HETATM    3  N   UNL     1      -7.045   2.729 -34.023  1.00  0.00    -0.249 N 
HETATM    4  O   UNL     1      -7.219   4.880 -33.342  1.00  0.00    -0.246 OA
HETATM    5  H   UNL     1      -4.879   3.468 -34.789  1.00  0.00     0.164 HD
HETATM    6  H   UNL     1      -8.035   2.580 -33.835  1.00  0.00     0.192 HD
ENDROOT
BRANCH   3   7
HETATM    7  N   UNL     1      -6.257   1.586 -34.241  1.00  0.00    -0.262 N 
HETATM    8  C   UNL     1      -6.558   0.481 -33.452  1.00  0.00     0.272 C 
HETATM    9  O   UNL     1      -7.571   0.439 -32.757  1.00  0.00    -0.266 OA
HETATM   10  H   UNL     1      -5.285   1.754 -34.479  1.00  0.00     0.190 HD
BRANCH   8  11
HETATM   11  C   UNL     1      -5.564  -0.592 -33.471  1.00  0.00     0.061 A 
HETATM   12  C   UNL     1      -5.758  -1.924 -33.975  1.00  0.00     0.008 A 
HETATM   13  C   UNL     1      -4.558  -2.619 -33.815  1.00  0.00     0.043 A 
HETATM   14  C   UNL     1      -6.851  -2.608 -34.553  1.00  0.00     0.015 A 
HETATM   15  C   UNL     1      -4.396  -3.955 -34.202  1.00  0.00     0.030 A 
HETATM   16  N   UNL     1      -3.662  -1.749 -33.243  1.00  0.00    -0.364 N 
HETATM   17  C   UNL     1      -5.496  -4.606 -34.768  1.00  0.00     0.002 A 
HETATM   18  C   UNL     1      -6.708  -3.945 -34.942  1.00  0.00     0.001 A 
HETATM   19  H   UNL     1      -2.703  -1.983 -33.023  1.00  0.00     0.165 HD
HETATM   20  C   UNL     1      -4.252  -0.529 -33.028  1.00  0.00     0.106 A 
ENDBRANCH   8  11
ENDBRANCH   3   7
BRANCH   1  21
HETATM   21  C   UNL     1      -4.528   5.388 -33.946  1.00  0.00     0.086 C 
HETATM   22  C   UNL     1      -4.043   5.653 -32.516  1.00  0.00     0.026 C 
HETATM   23  C   UNL     1      -2.765   4.895 -32.159  1.00  0.00     0.006 C 
HETATM   24  C   UNL     1      -1.632   5.123 -33.172  1.00  0.00    -0.014 C 
HETATM   25  C   UNL     1      -2.133   4.755 -34.580  1.00  0.00     0.006 C 
HETATM   26  C   UNL     1      -3.396   5.523 -34.979  1.00  0.00     0.026 C 
BRANCH  24  27
HETATM   27  C   UNL     1      -1.052   6.556 -33.158  1.00  0.00     0.004 C 
BRANCH  27  28
HETATM   28  C   UNL     1      -0.786   7.104 -31.755  1.00  0.00    -0.004 C 
HETATM   29  C   UNL     1       0.472   6.491 -31.155  1.00  0.00     0.005 C 
ENDBRANCH  27  28
ENDBRANCH  24  27
ENDBRANCH   1  21
TORSDOF 5
ENDMDL
MODEL 2
REMARK VINA RESULT:      -8.5      1.888      8.160
REMARK  5 active torsions:
REMARK  status: ('A' for Active; 'I' for Inactive)
REMARK    1  A    between atoms: C_2  and  C_3 
REMARK    2  A    between atoms: C_3  and  C_4 
REMARK    3  A    between atoms: C_7  and  N_8 
REMARK       I    between atoms: N_8  and  C_9 
REMARK       I    between atoms: C_9  and  N_10 
REMARK    4  A    between atoms: N_10  and  N_11 
REMARK       I    between atoms: N_11  and  C_12 
REMARK    5  A    between atoms: C_12  and  C_13 
ROOT
HETATM    1  N   UNL     1      -6.942   1.914 -31.954  1.00  0.00    -0.337 N 
HETATM    2  C   UNL     1      -7.729   2.850 -31.325  1.00  0.00     0.335 C 
HETATM    3  N   UNL     1      -7.110   4.046 -31.092  1.00  0.00    -0.249 N 
HETATM    4  O   UNL     1      -8.895   2.660 -30.994  1.00  0.00    -0.246 OA
HETATM    5  H   UNL     1      -5.961   2.024 -31.738  1.00  0.00     0.164 HD
HETATM    6  H   UNL     1      -7.645   4.783 -30.634  1.00  0.00     0.192 HD
ENDROOT
BRANCH   3   7
HETATM    7  N   UNL     1      -5.895   4.420 -31.692  1.00  0.00    -0.262 N 
HETATM    8  C   UNL     1      -5.990   5.315 -32.752  1.00  0.00     0.272 C 
HETATM    9  O   UNL     1      -7.040   5.897 -33.014  1.00  0.00    -0.266 OA
HETATM   10  H   UNL     1      -5.181   3.699 -31.736  1.00  0.00     0.190 HD
BRANCH   8  11
HETATM   11  C   UNL     1      -4.775   5.470 -33.551  1.00  0.00     0.061 A 
HETATM   12  C   UNL     1      -3.574   6.151 -33.152  1.00  0.00     0.008 A 
HETATM   13  C   UNL     1      -2.660   6.054 -34.202  1.00  0.00     0.043 A 
HETATM   14  C   UNL     1      -3.178   6.848 -31.988  1.00  0.00     0.015 A 
HETATM   15  C   UNL     1      -1.377   6.614 -34.149  1.00  0.00     0.030 A 
HETATM   16  N   UNL     1      -3.271   5.338 -35.203  1.00  0.00    -0.364 N 
HETATM   17  C   UNL     1      -1.016   7.300 -32.986  1.00  0.00     0.002 A 
HETATM   18  C   UNL     1      -1.902   7.417 -31.919  1.00  0.00     0.001 A 
HETATM   19  H   UNL     1      -2.833   5.105 -36.084  1.00  0.00     0.165 HD
HETATM   20  C   UNL     1      -4.542   4.983 -34.828  1.00  0.00     0.106 A 
ENDBRANCH   8  11
ENDBRANCH   3   7
BRANCH   1  21
HETATM   21  C   UNL     1      -7.442   0.555 -32.145  1.00  0.00     0.086 C 
HETATM   22  C   UNL     1      -8.195   0.427 -33.475  1.00  0.00     0.026 C 
HETATM   23  C   UNL     1      -7.269   0.347 -34.689  1.00  0.00     0.006 C 
HETATM   24  C   UNL     1      -6.203  -0.752 -34.556  1.00  0.00    -0.014 C 
HETATM   25  C   UNL     1      -5.411  -0.531 -33.255  1.00  0.00     0.006 C 
HETATM   26  C   UNL     1      -6.309  -0.476 -32.017  1.00  0.00     0.026 C 
BRANCH  24  27
HETATM   27  C   UNL     1      -6.768  -2.190 -34.611  1.00  0.00     0.004 C 
BRANCH  27  28
HETATM   28  C   UNL     1      -5.743  -3.244 -35.034  1.00  0.00    -0.004 C 
HETATM   29  C   UNL     1      -6.408  -4.594 -35.264  1.00  0.00     0.005 C 
ENDBRANCH  27  28
ENDBRANCH  24  27
ENDBRANCH   1  21
TORSDOF 5
ENDMDL
MODEL 3
REMARK VINA RESULT:      -8.4      3.862      6.303
REMARK  5 active torsions:
REMARK  status: ('A' for Active; 'I' for Inactive)
REMARK    1  A    between atoms: C_2  and  C_3 
REMARK    2  A    between atoms: C_3  and  C_4 
REMARK    3  A    between atoms: C_7  and  N_8 
REMARK       I    between atoms: N_8  and  C_9 
REMARK       I    between atoms: C_9  and  N_10 
REMARK    4  A    between atoms: N_10  and  N_11 
REMARK       I    between atoms: N_11  and  C_12 
REMARK    5  A    between atoms: C_12  and  C_13 
ROOT
HETATM    1  N   UNL     1      -6.271   1.090 -31.982  1.00  0.00    -0.337 N 
HETATM    2  C   UNL     1      -5.181   1.637 -31.347  1.00  0.00     0.335 C 
HETATM    3  N   UNL     1      -4.327   0.722 -30.798  1.00  0.00    -0.249 N 
HETATM    4  O   UNL     1      -4.962   2.841 -31.268  1.00  0.00    -0.246 OA
HETATM    5  H   UNL     1      -6.552   0.207 -31.579  1.00  0.00     0.164 HD
HETATM    6  H   UNL     1      -3.496   1.067 -30.319  1.00  0.00     0.192 HD
ENDROOT
BRANCH   3   7
HETATM    7  N   UNL     1      -4.367  -0.651 -31.096  1.00  0.00    -0.262 N 
HETATM    8  C   UNL     1      -3.385  -1.114 -31.966  1.00  0.00     0.272 C 
HETATM    9  O   UNL     1      -2.428  -0.415 -32.290  1.00  0.00    -0.266 OA
HETATM   10  H   UNL     1      -5.292  -1.067 -31.153  1.00  0.00     0.190 HD
BRANCH   8  11
HETATM   11  C   UNL     1      -3.603  -2.458 -32.498  1.00  0.00     0.061 A 
HETATM   12  C   UNL     1      -4.593  -2.840 -33.469  1.00  0.00     0.008 A 
HETATM   13  C   UNL     1      -4.451  -4.208 -33.706  1.00  0.00     0.043 A 
HETATM   14  C   UNL     1      -5.604  -2.145 -34.168  1.00  0.00     0.015 A 
HETATM   15  C   UNL     1      -5.264  -4.912 -34.603  1.00  0.00     0.030 A 
HETATM   16  N   UNL     1      -3.414  -4.648 -32.920  1.00  0.00    -0.364 N 
HETATM   17  C   UNL     1      -6.258  -4.198 -35.278  1.00  0.00     0.002 A 
HETATM   18  C   UNL     1      -6.429  -2.833 -35.066  1.00  0.00     0.001 A 
HETATM   19  H   UNL     1      -3.082  -5.603 -32.900  1.00  0.00     0.165 HD
HETATM   20  C   UNL     1      -2.897  -3.610 -32.188  1.00  0.00     0.106 A 
ENDBRANCH   8  11
ENDBRANCH   3   7
BRANCH   1  21
HETATM   21  C   UNL     1      -7.323   1.962 -32.498  1.00  0.00     0.086 C 
HETATM   22  C   UNL     1      -7.484   1.793 -34.014  1.00  0.00     0.026 C 
HETATM   23  C   UNL     1      -8.233   0.518 -34.405  1.00  0.00     0.006 C 
HETATM   24  C   UNL     1      -9.586   0.378 -33.692  1.00  0.00    -0.014 C 
HETATM   25  C   UNL     1      -9.366   0.460 -32.171  1.00  0.00     0.006 C 
HETATM   26  C   UNL     1      -8.646   1.741 -31.745  1.00  0.00     0.026 C 
BRANCH  24  27
HETATM   27  C   UNL     1     -10.648   1.406 -34.144  1.00  0.00     0.004 C 
BRANCH  27  28
HETATM   28  C   UNL     1     -12.085   1.008 -33.799  1.00  0.00    -0.004 C 
HETATM   29  C   UNL     1     -13.063   1.532 -34.842  1.00  0.00     0.005 C 
ENDBRANCH  27  28
ENDBRANCH  24  27
ENDBRANCH   1  21
TORSDOF 5
ENDMDL
MODEL 4
REMARK VINA RESULT:      -8.3      1.289      1.475
REMARK  5 active torsions:
REMARK  status: ('A' for Active; 'I' for Inactive)
REMARK    1  A    between atoms: C_2  and  C_3 
REMARK    2  A    between atoms: C_3  and  C_4 
REMARK    3  A    between atoms: C_7  and  N_8 
REMARK       I    between atoms: N_8  and  C_9 
REMARK       I    between atoms: C_9  and  N_10 
REMARK    4  A    between atoms: N_10  and  N_11 
REMARK       I    between atoms: N_11  and  C_12 
REMARK    5  A    between atoms: C_12  and  C_13 
ROOT
HETATM    1  N   UNL     1      -5.482   3.521 -32.275  1.00  0.00    -0.337 N 
HETATM    2  C   UNL     1      -6.800   3.249 -31.994  1.00  0.00     0.335 C 
HETATM    3  N   UNL     1      -7.130   1.924 -32.056  1.00  0.00    -0.249 N 
HETATM    4  O   UNL     1      -7.632   4.101 -31.701  1.00  0.00    -0.246 OA
HETATM    5  H   UNL     1      -5.077   2.854 -32.918  1.00  0.00     0.164 HD
HETATM    6  H   UNL     1      -8.093   1.659 -31.851  1.00  0.00     0.192 HD
ENDROOT
BRANCH   3   7
HETATM    7  N   UNL     1      -6.180   0.889 -32.101  1.00  0.00    -0.262 N 
HETATM    8  C   UNL     1      -5.864   0.407 -33.366  1.00  0.00     0.272 C 
HETATM    9  O   UNL     1      -6.235   0.982 -34.388  1.00  0.00    -0.266 OA
HETATM   10  H   UNL     1      -6.204   0.230 -31.329  1.00  0.00     0.190 HD
BRANCH   8  11
HETATM   11  C   UNL     1      -5.111  -0.846 -33.389  1.00  0.00     0.061 A 
HETATM   12  C   UNL     1      -5.532  -2.082 -33.990  1.00  0.00     0.008 A 
HETATM   13  C   UNL     1      -4.516  -3.018 -33.796  1.00  0.00     0.043 A 
HETATM   14  C   UNL     1      -6.693  -2.494 -34.682  1.00  0.00     0.015 A 
HETATM   15  C   UNL     1      -4.599  -4.338 -34.257  1.00  0.00     0.030 A 
HETATM   16  N   UNL     1      -3.509  -2.383 -33.111  1.00  0.00    -0.364 N 
HETATM   17  C   UNL     1      -5.761  -4.717 -34.936  1.00  0.00     0.002 A 
HETATM   18  C   UNL     1      -6.796  -3.810 -35.147  1.00  0.00     0.001 A 
HETATM   19  H   UNL     1      -2.638  -2.823 -32.844  1.00  0.00     0.165 HD
HETATM   20  C   UNL     1      -3.852  -1.080 -32.857  1.00  0.00     0.106 A 
ENDBRANCH   8  11
ENDBRANCH   3   7
BRANCH   1  21
HETATM   21  C   UNL     1      -5.030   4.907 -32.368  1.00  0.00     0.086 C 
HETATM   22  C   UNL     1      -3.619   5.066 -31.789  1.00  0.00     0.026 C 
HETATM   23  C   UNL     1      -2.521   4.558 -32.723  1.00  0.00     0.006 C 
HETATM   24  C   UNL     1      -2.606   5.166 -34.132  1.00  0.00    -0.014 C 
HETATM   25  C   UNL     1      -4.007   4.902 -34.710  1.00  0.00     0.006 C 
HETATM   26  C   UNL     1      -5.129   5.427 -33.811  1.00  0.00     0.026 C 
BRANCH  24  27
HETATM   27  C   UNL     1      -2.269   6.673 -34.191  1.00  0.00     0.004 C 
BRANCH  27  28
HETATM   28  C   UNL     1      -1.073   7.076 -33.325  1.00  0.00    -0.004 C 
HETATM   29  C   UNL     1      -1.491   8.055 -32.235  1.00  0.00     0.005 C 
ENDBRANCH  27  28
ENDBRANCH  24  27
ENDBRANCH   1  21
TORSDOF 5
ENDMDL
MODEL 5
REMARK VINA RESULT:      -8.1      3.013      5.074
REMARK  5 active torsions:
REMARK  status: ('A' for Active; 'I' for Inactive)
REMARK    1  A    between atoms: C_2  and  C_3 
REMARK    2  A    between atoms: C_3  and  C_4 
REMARK    3  A    between atoms: C_7  and  N_8 
REMARK       I    between atoms: N_8  and  C_9 
REMARK       I    between atoms: C_9  and  N_10 
REMARK    4  A    between atoms: N_10  and  N_11 
REMARK       I    between atoms: N_11  and  C_12 
REMARK    5  A    between atoms: C_12  and  C_13 
ROOT
HETATM    1  N   UNL     1      -1.623   6.326 -32.221  1.00  0.00    -0.337 N 
HETATM    2  C   UNL     1      -2.064   6.507 -33.510  1.00  0.00     0.335 C 
HETATM    3  N   UNL     1      -2.771   5.453 -34.020  1.00  0.00    -0.249 N 
HETATM    4  O   UNL     1      -1.863   7.519 -34.172  1.00  0.00    -0.246 OA
HETATM    5  H   UNL     1      -1.450   5.355 -32.003  1.00  0.00     0.164 HD
HETATM    6  H   UNL     1      -3.130   5.530 -34.970  1.00  0.00     0.192 HD
ENDROOT
BRANCH   3   7
HETATM    7  N   UNL     1      -3.275   4.404 -33.231  1.00  0.00    -0.262 N 
HETATM    8  C   UNL     1      -4.612   4.508 -32.863  1.00  0.00     0.272 C 
HETATM    9  O   UNL     1      -5.355   5.351 -33.360  1.00  0.00    -0.266 OA
HETATM   10  H   UNL     1      -2.625   3.996 -32.566  1.00  0.00     0.190 HD
BRANCH   8  11
HETATM   11  C   UNL     1      -5.046   3.585 -31.816  1.00  0.00     0.061 A 
HETATM   12  C   UNL     1      -5.389   2.199 -31.990  1.00  0.00     0.008 A 
HETATM   13  C   UNL     1      -5.736   1.686 -30.740  1.00  0.00     0.043 A 
HETATM   14  C   UNL     1      -5.440   1.331 -33.103  1.00  0.00     0.015 A 
HETATM   15  C   UNL     1      -6.129   0.355 -30.546  1.00  0.00     0.030 A 
HETATM   16  N   UNL     1      -5.606   2.710 -29.833  1.00  0.00    -0.364 N 
HETATM   17  C   UNL     1      -6.172  -0.479 -31.667  1.00  0.00     0.002 A 
HETATM   18  C   UNL     1      -5.834  -0.001 -32.929  1.00  0.00     0.001 A 
HETATM   19  H   UNL     1      -5.782   2.618 -28.842  1.00  0.00     0.165 HD
HETATM   20  C   UNL     1      -5.195   3.856 -30.464  1.00  0.00     0.106 A 
ENDBRANCH   8  11
ENDBRANCH   3   7
BRANCH   1  21
HETATM   21  C   UNL     1      -0.749   7.322 -31.606  1.00  0.00     0.086 C 
HETATM   22  C   UNL     1      -1.460   8.044 -30.455  1.00  0.00     0.026 C 
HETATM   23  C   UNL     1      -1.546   7.209 -29.178  1.00  0.00     0.006 C 
HETATM   24  C   UNL     1      -0.180   6.669 -28.724  1.00  0.00    -0.014 C 
HETATM   25  C   UNL     1       0.455   5.874 -29.878  1.00  0.00     0.006 C 
HETATM   26  C   UNL     1       0.583   6.694 -31.164  1.00  0.00     0.026 C 
BRANCH  24  27
HETATM   27  C   UNL     1       0.791   7.758 -28.214  1.00  0.00     0.004 C 
BRANCH  27  28
HETATM   28  C   UNL     1       1.470   7.411 -26.887  1.00  0.00    -0.004 C 
HETATM   29  C   UNL     1       1.991   8.663 -26.194  1.00  0.00     0.005 C 
ENDBRANCH  27  28
ENDBRANCH  24  27
ENDBRANCH   1  21
TORSDOF 5
ENDMDL
MODEL 6
REMARK VINA RESULT:      -8.0     15.852     18.493
REMARK  5 active torsions:
REMARK  status: ('A' for Active; 'I' for Inactive)
REMARK    1  A    between atoms: C_2  and  C_3 
REMARK    2  A    between atoms: C_3  and  C_4 
REMARK    3  A    between atoms: C_7  and  N_8 
REMARK       I    between atoms: N_8  and  C_9 
REMARK       I    between atoms: C_9  and  N_10 
REMARK    4  A    between atoms: N_10  and  N_11 
REMARK       I    between atoms: N_11  and  C_12 
REMARK    5  A    between atoms: C_12  and  C_13 
ROOT
HETATM    1  N   UNL     1      -4.736 -13.132 -38.981  1.00  0.00    -0.337 N 
HETATM    2  C   UNL     1      -3.786 -13.054 -37.991  1.00  0.00     0.335 C 
HETATM    3  N   UNL     1      -2.943 -14.129 -37.931  1.00  0.00    -0.249 N 
HETATM    4  O   UNL     1      -3.673 -12.111 -37.215  1.00  0.00    -0.246 OA
HETATM    5  H   UNL     1      -4.999 -14.084 -39.193  1.00  0.00     0.164 HD
HETATM    6  H   UNL     1      -2.212 -14.127 -37.220  1.00  0.00     0.192 HD
ENDROOT
BRANCH   3   7
HETATM    7  N   UNL     1      -2.836 -15.089 -38.952  1.00  0.00    -0.262 N 
HETATM    8  C   UNL     1      -1.828 -14.874 -39.885  1.00  0.00     0.272 C 
HETATM    9  O   UNL     1      -0.961 -14.019 -39.715  1.00  0.00    -0.266 OA
HETATM   10  H   UNL     1      -3.710 -15.493 -39.275  1.00  0.00     0.190 HD
BRANCH   8  11
HETATM   11  C   UNL     1      -1.906 -15.696 -41.092  1.00  0.00     0.061 A 
HETATM   12  C   UNL     1      -2.767 -15.472 -42.221  1.00  0.00     0.008 A 
HETATM   13  C   UNL     1      -2.517 -16.479 -43.154  1.00  0.00     0.043 A 
HETATM   14  C   UNL     1      -3.745 -14.503 -42.535  1.00  0.00     0.015 A 
HETATM   15  C   UNL     1      -3.189 -16.564 -44.380  1.00  0.00     0.030 A 
HETATM   16  N   UNL     1      -1.537 -17.284 -42.625  1.00  0.00    -0.364 N 
HETATM   17  C   UNL     1      -4.153 -15.592 -44.661  1.00  0.00     0.002 A 
HETATM   18  C   UNL     1      -4.431 -14.574 -43.753  1.00  0.00     0.001 A 
HETATM   19  H   UNL     1      -1.150 -18.091 -43.095  1.00  0.00     0.165 HD
HETATM   20  C   UNL     1      -1.163 -16.829 -41.387  1.00  0.00     0.106 A 
ENDBRANCH   8  11
ENDBRANCH   3   7
BRANCH   1  21
HETATM   21  C   UNL     1      -5.777 -12.110 -39.070  1.00  0.00     0.086 C 
HETATM   22  C   UNL     1      -6.178 -11.859 -40.528  1.00  0.00     0.026 C 
HETATM   23  C   UNL     1      -7.083 -12.949 -41.103  1.00  0.00     0.006 C 
HETATM   24  C   UNL     1      -8.321 -13.218 -40.233  1.00  0.00    -0.014 C 
HETATM   25  C   UNL     1      -7.867 -13.557 -38.802  1.00  0.00     0.006 C 
HETATM   26  C   UNL     1      -6.983 -12.468 -38.187  1.00  0.00     0.026 C 
BRANCH  24  27
HETATM   27  C   UNL     1      -9.347 -12.062 -40.219  1.00  0.00     0.004 C 
BRANCH  27  28
HETATM   28  C   UNL     1     -10.804 -12.526 -40.186  1.00  0.00    -0.004 C 
HETATM   29  C   UNL     1     -10.935 -13.959 -40.684  1.00  0.00     0.005 C 
ENDBRANCH  27  28
ENDBRANCH  24  27
ENDBRANCH   1  21
TORSDOF 5
ENDMDL
MODEL 7
REMARK VINA RESULT:      -8.0      2.525      7.760
REMARK  5 active torsions:
REMARK  status: ('A' for Active; 'I' for Inactive)
REMARK    1  A    between atoms: C_2  and  C_3 
REMARK    2  A    between atoms: C_3  and  C_4 
REMARK    3  A    between atoms: C_7  and  N_8 
REMARK       I    between atoms: N_8  and  C_9 
REMARK       I    between atoms: C_9  and  N_10 
REMARK    4  A    between atoms: N_10  and  N_11 
REMARK       I    between atoms: N_11  and  C_12 
REMARK    5  A    between atoms: C_12  and  C_13 
ROOT
HETATM    1  N   UNL     1      -6.509   2.404 -30.878  1.00  0.00    -0.337 N 
HETATM    2  C   UNL     1      -7.067   3.265 -29.963  1.00  0.00     0.335 C 
HETATM    3  N   UNL     1      -6.172   4.099 -29.352  1.00  0.00    -0.249 N 
HETATM    4  O   UNL     1      -8.264   3.312 -29.701  1.00  0.00    -0.246 OA
HETATM    5  H   UNL     1      -5.556   2.160 -30.649  1.00  0.00     0.164 HD
HETATM    6  H   UNL     1      -6.527   4.766 -28.668  1.00  0.00     0.192 HD
ENDROOT
BRANCH   3   7
HETATM    7  N   UNL     1      -4.857   4.292 -29.808  1.00  0.00    -0.262 N 
HETATM    8  C   UNL     1      -4.564   5.558 -30.305  1.00  0.00     0.272 C 
HETATM    9  O   UNL     1      -5.341   6.501 -30.167  1.00  0.00    -0.266 OA
HETATM   10  H   UNL     1      -4.417   3.491 -30.250  1.00  0.00     0.190 HD
BRANCH   8  11
HETATM   11  C   UNL     1      -3.305   5.667 -31.039  1.00  0.00     0.061 A 
HETATM   12  C   UNL     1      -3.125   5.489 -32.454  1.00  0.00     0.008 A 
HETATM   13  C   UNL     1      -1.774   5.692 -32.741  1.00  0.00     0.043 A 
HETATM   14  C   UNL     1      -3.991   5.168 -33.523  1.00  0.00     0.015 A 
HETATM   15  C   UNL     1      -1.248   5.593 -34.035  1.00  0.00     0.030 A 
HETATM   16  N   UNL     1      -1.151   5.990 -31.553  1.00  0.00    -0.364 N 
HETATM   17  C   UNL     1      -2.130   5.272 -35.072  1.00  0.00     0.002 A 
HETATM   18  C   UNL     1      -3.482   5.061 -34.823  1.00  0.00     0.001 A 
HETATM   19  H   UNL     1      -0.165   6.196 -31.465  1.00  0.00     0.165 HD
HETATM   20  C   UNL     1      -2.055   5.976 -30.523  1.00  0.00     0.106 A 
ENDBRANCH   8  11
ENDBRANCH   3   7
BRANCH   1  21
HETATM   21  C   UNL     1      -7.337   1.376 -31.506  1.00  0.00     0.086 C 
HETATM   22  C   UNL     1      -7.401   1.574 -33.024  1.00  0.00     0.026 C 
HETATM   23  C   UNL     1      -6.136   1.115 -33.749  1.00  0.00     0.006 C 
HETATM   24  C   UNL     1      -5.738  -0.327 -33.401  1.00  0.00    -0.014 C 
HETATM   25  C   UNL     1      -5.593  -0.456 -31.875  1.00  0.00     0.006 C 
HETATM   26  C   UNL     1      -6.857  -0.033 -31.122  1.00  0.00     0.026 C 
BRANCH  24  27
HETATM   27  C   UNL     1      -6.707  -1.400 -33.948  1.00  0.00     0.004 C 
BRANCH  27  28
HETATM   28  C   UNL     1      -6.049  -2.410 -34.889  1.00  0.00    -0.004 C 
HETATM   29  C   UNL     1      -6.708  -3.778 -34.772  1.00  0.00     0.005 C 
ENDBRANCH  27  28
ENDBRANCH  24  27
ENDBRANCH   1  21
TORSDOF 5
ENDMDL
MODEL 8
REMARK VINA RESULT:      -7.8      1.295      2.163
REMARK  5 active torsions:
REMARK  status: ('A' for Active; 'I' for Inactive)
REMARK    1  A    between atoms: C_2  and  C_3 
REMARK    2  A    between atoms: C_3  and  C_4 
REMARK    3  A    between atoms: C_7  and  N_8 
REMARK       I    between atoms: N_8  and  C_9 
REMARK       I    between atoms: C_9  and  N_10 
REMARK    4  A    between atoms: N_10  and  N_11 
REMARK       I    between atoms: N_11  and  C_12 
REMARK    5  A    between atoms: C_12  and  C_13 
ROOT
HETATM    1  N   UNL     1      -5.886   3.524 -33.101  1.00  0.00    -0.337 N 
HETATM    2  C   UNL     1      -7.251   3.610 -33.237  1.00  0.00     0.335 C 
HETATM    3  N   UNL     1      -7.809   2.616 -33.992  1.00  0.00    -0.249 N 
HETATM    4  O   UNL     1      -7.941   4.489 -32.730  1.00  0.00    -0.246 OA
HETATM    5  H   UNL     1      -5.444   3.086 -33.898  1.00  0.00     0.164 HD
HETATM    6  H   UNL     1      -8.820   2.622 -34.123  1.00  0.00     0.192 HD
ENDROOT
BRANCH   3   7
HETATM    7  N   UNL     1      -7.127   1.441 -34.352  1.00  0.00    -0.262 N 
HETATM    8  C   UNL     1      -7.491   0.290 -33.662  1.00  0.00     0.272 C 
HETATM    9  O   UNL     1      -8.480   0.259 -32.933  1.00  0.00    -0.266 OA
HETATM   10  H   UNL     1      -6.152   1.555 -34.613  1.00  0.00     0.190 HD
BRANCH   8  11
HETATM   11  C   UNL     1      -6.590  -0.850 -33.827  1.00  0.00     0.061 A 
HETATM   12  C   UNL     1      -5.395  -1.108 -33.069  1.00  0.00     0.008 A 
HETATM   13  C   UNL     1      -4.844  -2.301 -33.537  1.00  0.00     0.043 A 
HETATM   14  C   UNL     1      -4.727  -0.430 -32.025  1.00  0.00     0.015 A 
HETATM   15  C   UNL     1      -3.665  -2.850 -33.017  1.00  0.00     0.030 A 
HETATM   16  N   UNL     1      -5.668  -2.761 -34.535  1.00  0.00    -0.364 N 
HETATM   17  C   UNL     1      -3.025  -2.155 -31.986  1.00  0.00     0.002 A 
HETATM   18  C   UNL     1      -3.545  -0.962 -31.495  1.00  0.00     0.001 A 
HETATM   19  H   UNL     1      -5.515  -3.620 -35.047  1.00  0.00     0.165 HD
HETATM   20  C   UNL     1      -6.718  -1.900 -34.722  1.00  0.00     0.106 A 
ENDBRANCH   8  11
ENDBRANCH   3   7
BRANCH   1  21
HETATM   21  C   UNL     1      -5.154   4.594 -32.428  1.00  0.00     0.086 C 
HETATM   22  C   UNL     1      -4.114   4.023 -31.457  1.00  0.00     0.026 C 
HETATM   23  C   UNL     1      -2.862   3.492 -32.155  1.00  0.00     0.006 C 
HETATM   24  C   UNL     1      -2.222   4.523 -33.099  1.00  0.00    -0.014 C 
HETATM   25  C   UNL     1      -3.276   4.999 -34.114  1.00  0.00     0.006 C 
HETATM   26  C   UNL     1      -4.531   5.565 -33.444  1.00  0.00     0.026 C 
BRANCH  24  27
HETATM   27  C   UNL     1      -1.579   5.728 -32.376  1.00  0.00     0.004 C 
BRANCH  27  28
HETATM   28  C   UNL     1      -0.409   5.354 -31.464  1.00  0.00    -0.004 C 
HETATM   29  C   UNL     1       0.534   6.534 -31.271  1.00  0.00     0.005 C 
ENDBRANCH  27  28
ENDBRANCH  24  27
ENDBRANCH   1  21
TORSDOF 5
ENDMDL
MODEL 9
REMARK VINA RESULT:      -7.4      5.288      9.383
REMARK  5 active torsions:
REMARK  status: ('A' for Active; 'I' for Inactive)
REMARK    1  A    between atoms: C_2  and  C_3 
REMARK    2  A    between atoms: C_3  and  C_4 
REMARK    3  A    between atoms: C_7  and  N_8 
REMARK       I    between atoms: N_8  and  C_9 
REMARK       I    between atoms: C_9  and  N_10 
REMARK    4  A    between atoms: N_10  and  N_11 
REMARK       I    between atoms: N_11  and  C_12 
REMARK    5  A    between atoms: C_12  and  C_13 
ROOT
HETATM    1  N   UNL     1      -4.581   5.437 -29.130  1.00  0.00    -0.337 N 
HETATM    2  C   UNL     1      -5.596   5.277 -28.216  1.00  0.00     0.335 C 
HETATM    3  N   UNL     1      -5.200   5.358 -26.910  1.00  0.00    -0.249 N 
HETATM    4  O   UNL     1      -6.770   5.084 -28.516  1.00  0.00    -0.246 OA
HETATM    5  H   UNL     1      -3.688   5.122 -28.776  1.00  0.00     0.164 HD
HETATM    6  H   UNL     1      -5.910   5.253 -26.186  1.00  0.00     0.192 HD
ENDROOT
BRANCH   3   7
HETATM    7  N   UNL     1      -3.948   5.854 -26.509  1.00  0.00    -0.262 N 
HETATM    8  C   UNL     1      -3.891   7.219 -26.248  1.00  0.00     0.272 C 
HETATM    9  O   UNL     1      -4.907   7.906 -26.174  1.00  0.00    -0.266 OA
HETATM   10  H   UNL     1      -3.138   5.414 -26.934  1.00  0.00     0.190 HD
BRANCH   8  11
HETATM   11  C   UNL     1      -2.545   7.776 -26.121  1.00  0.00     0.061 A 
HETATM   12  C   UNL     1      -1.506   7.728 -27.114  1.00  0.00     0.008 A 
HETATM   13  C   UNL     1      -0.390   8.385 -26.594  1.00  0.00     0.043 A 
HETATM   14  C   UNL     1      -1.410   7.180 -28.412  1.00  0.00     0.015 A 
HETATM   15  C   UNL     1       0.811   8.523 -27.303  1.00  0.00     0.030 A 
HETATM   16  N   UNL     1      -0.730   8.825 -25.338  1.00  0.00    -0.364 N 
HETATM   17  C   UNL     1       0.875   7.968 -28.584  1.00  0.00     0.002 A 
HETATM   18  C   UNL     1      -0.217   7.304 -29.134  1.00  0.00     0.001 A 
HETATM   19  H   UNL     1      -0.111   9.347 -24.732  1.00  0.00     0.165 HD
HETATM   20  C   UNL     1      -2.019   8.465 -25.039  1.00  0.00     0.106 A 
ENDBRANCH   8  11
ENDBRANCH   3   7
BRANCH   1  21
HETATM   21  C   UNL     1      -4.849   5.246 -30.553  1.00  0.00     0.086 C 
HETATM   22  C   UNL     1      -3.889   6.080 -31.410  1.00  0.00     0.026 C 
HETATM   23  C   UNL     1      -2.487   5.479 -31.508  1.00  0.00     0.006 C 
HETATM   24  C   UNL     1      -2.496   4.012 -31.966  1.00  0.00    -0.014 C 
HETATM   25  C   UNL     1      -3.396   3.195 -31.023  1.00  0.00     0.006 C 
HETATM   26  C   UNL     1      -4.818   3.755 -30.928  1.00  0.00     0.026 C 
BRANCH  24  27
HETATM   27  C   UNL     1      -2.926   3.813 -33.438  1.00  0.00     0.004 C 
BRANCH  27  28
HETATM   28  C   UNL     1      -2.429   4.908 -34.384  1.00  0.00    -0.004 C 
HETATM   29  C   UNL     1      -3.553   5.409 -35.280  1.00  0.00     0.005 C 
ENDBRANCH  27  28
ENDBRANCH  24  27
ENDBRANCH   1  21
TORSDOF 5
ENDMDL
MODEL 10
REMARK VINA RESULT:      -7.4      3.369      6.051
REMARK  5 active torsions:
REMARK  status: ('A' for Active; 'I' for Inactive)
REMARK    1  A    between atoms: C_2  and  C_3 
REMARK    2  A    between atoms: C_3  and  C_4 
REMARK    3  A    between atoms: C_7  and  N_8 
REMARK       I    between atoms: N_8  and  C_9 
REMARK       I    between atoms: C_9  and  N_10 
REMARK    4  A    between atoms: N_10  and  N_11 
REMARK       I    between atoms: N_11  and  C_12 
REMARK    5  A    between atoms: C_12  and  C_13 
ROOT
HETATM    1  N   UNL     1      -6.668   3.307 -31.513  1.00  0.00    -0.337 N 
HETATM    2  C   UNL     1      -5.635   3.995 -30.921  1.00  0.00     0.335 C 
HETATM    3  N   UNL     1      -4.657   3.200 -30.390  1.00  0.00    -0.249 N 
HETATM    4  O   UNL     1      -5.563   5.218 -30.865  1.00  0.00    -0.246 OA
HETATM    5  H   UNL     1      -6.825   2.403 -31.089  1.00  0.00     0.164 HD
HETATM    6  H   UNL     1      -3.860   3.653 -29.943  1.00  0.00     0.192 HD
ENDROOT
BRANCH   3   7
HETATM    7  N   UNL     1      -4.537   1.828 -30.669  1.00  0.00    -0.262 N 
HETATM    8  C   UNL     1      -3.662   1.490 -31.696  1.00  0.00     0.272 C 
HETATM    9  O   UNL     1      -2.894   2.315 -32.188  1.00  0.00    -0.266 OA
HETATM   10  H   UNL     1      -5.382   1.276 -30.560  1.00  0.00     0.190 HD
BRANCH   8  11
HETATM   11  C   UNL     1      -3.760   0.112 -32.174  1.00  0.00     0.061 A 
HETATM   12  C   UNL     1      -4.728  -0.399 -33.106  1.00  0.00     0.008 A 
HETATM   13  C   UNL     1      -4.459  -1.755 -33.298  1.00  0.00     0.043 A 
HETATM   14  C   UNL     1      -5.816   0.169 -33.805  1.00  0.00     0.015 A 
HETATM   15  C   UNL     1      -5.219  -2.568 -34.149  1.00  0.00     0.030 A 
HETATM   16  N   UNL     1      -3.368  -2.063 -32.523  1.00  0.00    -0.364 N 
HETATM   17  C   UNL     1      -6.291  -1.978 -34.825  1.00  0.00     0.002 A 
HETATM   18  C   UNL     1      -6.589  -0.629 -34.657  1.00  0.00     0.001 A 
HETATM   19  H   UNL     1      -2.945  -2.981 -32.476  1.00  0.00     0.165 HD
HETATM   20  C   UNL     1      -2.938  -0.954 -31.840  1.00  0.00     0.106 A 
ENDBRANCH   8  11
ENDBRANCH   3   7
BRANCH   1  21
HETATM   21  C   UNL     1      -7.836   4.034 -32.005  1.00  0.00     0.086 C 
HETATM   22  C   UNL     1      -8.052   3.780 -33.501  1.00  0.00     0.026 C 
HETATM   23  C   UNL     1      -8.672   2.415 -33.800  1.00  0.00     0.006 C 
HETATM   24  C   UNL     1      -9.964   2.159 -33.009  1.00  0.00    -0.014 C 
HETATM   25  C   UNL     1      -9.679   2.333 -31.508  1.00  0.00     0.006 C 
HETATM   26  C   UNL     1      -9.086   3.704 -31.172  1.00  0.00     0.026 C 
BRANCH  24  27
HETATM   27  C   UNL     1     -11.156   3.044 -33.443  1.00  0.00     0.004 C 
BRANCH  27  28
HETATM   28  C   UNL     1     -12.492   2.302 -33.498  1.00  0.00    -0.004 C 
HETATM   29  C   UNL     1     -13.543   3.001 -32.647  1.00  0.00     0.005 C 
ENDBRANCH  27  28
ENDBRANCH  24  27
ENDBRANCH   1  21
TORSDOF 5
ENDMDL
