MODEL 1
REMARK VINA RESULT:      -7.4      0.000      0.000
REMARK  3 active torsions:
REMARK  status: ('A' for Active; 'I' for Inactive)
REMARK    1  A    between atoms: C_4  and  C_5 
REMARK    2  A    between atoms: C_5  and  N_6 
REMARK    3  A    between atoms: N_10  and  S_11 
ROOT
HETATM    1  N   UNL     1      -5.528  -0.564 -32.661  1.00  0.00    -0.063 N 
HETATM    2  H   UNL     1      -6.228  -1.276 -32.911  1.00  0.00     0.280 HD
HETATM    3  C   UNL     1      -5.973   0.771 -33.242  1.00  0.00     0.267 C 
HETATM    4  C   UNL     1      -7.358   1.228 -32.667  1.00  0.00     0.067 C 
HETATM    5  N   UNL     1      -7.808   2.586 -33.233  1.00  0.00    -0.300 N 
HETATM    6  C   UNL     1      -9.158   2.999 -32.729  1.00  0.00     0.136 C 
HETATM    7  C   UNL     1     -10.205   1.981 -33.162  1.00  0.00     0.021 C 
HETATM    8  C   UNL     1      -9.854   0.578 -32.694  1.00  0.00     0.004 C 
HETATM    9  C   UNL     1      -8.439   0.201 -33.126  1.00  0.00     0.033 C 
HETATM   10  C   UNL     1      -7.210   1.267 -31.124  1.00  0.00     0.035 C 
HETATM   11  C   UNL     1      -6.680  -0.046 -30.535  1.00  0.00     0.030 C 
HETATM   12  C   UNL     1      -5.373  -0.497 -31.171  1.00  0.00     0.235 C 
ENDROOT
BRANCH   5  13
HETATM   13  S   UNL     1      -6.657   3.846 -33.335  1.00  0.00     0.225 S 
HETATM   14  C   UNL     1      -7.624   5.317 -33.636  1.00  0.00     0.186 C 
HETATM   15  O   UNL     1      -6.020   3.935 -32.042  1.00  0.00    -0.206 OA
HETATM   16  O   UNL     1      -5.874   3.592 -34.527  1.00  0.00    -0.206 OA
ENDBRANCH   5  13
BRANCH   1  17
HETATM   17  C   UNL     1      -4.271  -1.071 -33.347  1.00  0.00     0.299 C 
BRANCH  17  18
HETATM   18  C   UNL     1      -4.383  -2.504 -33.716  1.00  0.00     0.079 A 
HETATM   19  O   UNL     1      -5.451  -2.838 -34.502  1.00  0.00    -0.318 OA
HETATM   20  C   UNL     1      -5.363  -4.176 -34.744  1.00  0.00     0.049 A 
HETATM   21  C   UNL     1      -6.414  -4.774 -35.594  1.00  0.00     0.076 C 
HETATM   22  C   UNL     1      -4.253  -4.698 -34.118  1.00  0.00     0.035 A 
HETATM   23  C   UNL     1      -3.620  -3.620 -33.453  1.00  0.00     0.037 A 
ENDBRANCH  17  18
ENDBRANCH   1  17
TORSDOF 3
ENDMDL
MODEL 2
REMARK VINA RESULT:      -7.3      2.667      6.463
REMARK  3 active torsions:
REMARK  status: ('A' for Active; 'I' for Inactive)
REMARK    1  A    between atoms: C_4  and  C_5 
REMARK    2  A    between atoms: C_5  and  N_6 
REMARK    3  A    between atoms: N_10  and  S_11 
ROOT
HETATM    1  N   UNL     1      -8.900   0.052 -33.419  1.00  0.00    -0.063 N 
HETATM    2  H   UNL     1      -9.198  -0.858 -33.795  1.00  0.00     0.280 HD
HETATM    3  C   UNL     1      -7.634  -0.157 -32.599  1.00  0.00     0.267 C 
HETATM    4  C   UNL     1      -6.463  -0.733 -33.468  1.00  0.00     0.067 C 
HETATM    5  N   UNL     1      -5.172  -0.930 -32.654  1.00  0.00    -0.300 N 
HETATM    6  C   UNL     1      -4.067  -1.533 -33.466  1.00  0.00     0.136 C 
HETATM    7  C   UNL     1      -4.483  -2.914 -33.959  1.00  0.00     0.021 C 
HETATM    8  C   UNL     1      -5.778  -2.861 -34.754  1.00  0.00     0.004 C 
HETATM    9  C   UNL     1      -6.873  -2.155 -33.958  1.00  0.00     0.033 C 
HETATM   10  C   UNL     1      -6.255   0.252 -34.647  1.00  0.00     0.035 C 
HETATM   11  C   UNL     1      -7.542   0.538 -35.429  1.00  0.00     0.030 C 
HETATM   12  C   UNL     1      -8.680   1.023 -34.541  1.00  0.00     0.235 C 
ENDROOT
BRANCH   5  13
HETATM   13  S   UNL     1      -4.689   0.312 -31.583  1.00  0.00     0.225 S 
HETATM   14  C   UNL     1      -2.990  -0.071 -31.185  1.00  0.00     0.186 C 
HETATM   15  O   UNL     1      -4.751   1.550 -32.324  1.00  0.00    -0.206 OA
HETATM   16  O   UNL     1      -5.465   0.138 -30.373  1.00  0.00    -0.206 OA
ENDBRANCH   5  13
BRANCH   1  17
HETATM   17  C   UNL     1     -10.069   0.453 -32.535  1.00  0.00     0.299 C 
BRANCH  17  18
HETATM   18  C   UNL     1     -11.276   0.782 -33.332  1.00  0.00     0.079 A 
HETATM   19  O   UNL     1     -11.332   2.052 -33.836  1.00  0.00    -0.318 OA
HETATM   20  C   UNL     1     -12.493   2.146 -34.546  1.00  0.00     0.049 A 
HETATM   21  C   UNL     1     -12.771   3.439 -35.205  1.00  0.00     0.076 C 
HETATM   22  C   UNL     1     -13.176   0.951 -34.495  1.00  0.00     0.035 A 
HETATM   23  C   UNL     1     -12.393   0.070 -33.711  1.00  0.00     0.037 A 
ENDBRANCH  17  18
ENDBRANCH   1  17
TORSDOF 3
ENDMDL
MODEL 3
REMARK VINA RESULT:      -7.1      3.454      5.691
REMARK  3 active torsions:
REMARK  status: ('A' for Active; 'I' for Inactive)
REMARK    1  A    between atoms: C_4  and  C_5 
REMARK    2  A    between atoms: C_5  and  N_6 
REMARK    3  A    between atoms: N_10  and  S_11 
ROOT
HETATM    1  N   UNL     1      -5.130   2.830 -31.395  1.00  0.00    -0.063 N 
HETATM    2  H   UNL     1      -4.327   2.412 -31.883  1.00  0.00     0.280 HD
HETATM    3  C   UNL     1      -6.373   2.622 -32.249  1.00  0.00     0.267 C 
HETATM    4  C   UNL     1      -6.679   1.101 -32.476  1.00  0.00     0.067 C 
HETATM    5  N   UNL     1      -7.945   0.879 -33.323  1.00  0.00    -0.300 N 
HETATM    6  C   UNL     1      -8.209  -0.572 -33.590  1.00  0.00     0.136 C 
HETATM    7  C   UNL     1      -7.051  -1.171 -34.378  1.00  0.00     0.021 C 
HETATM    8  C   UNL     1      -5.724  -0.982 -33.660  1.00  0.00     0.004 C 
HETATM    9  C   UNL     1      -5.507   0.486 -33.301  1.00  0.00     0.033 C 
HETATM   10  C   UNL     1      -6.804   0.456 -31.072  1.00  0.00     0.035 C 
HETATM   11  C   UNL     1      -5.595   0.731 -30.171  1.00  0.00     0.030 C 
HETATM   12  C   UNL     1      -5.282   2.215 -30.036  1.00  0.00     0.235 C 
ENDROOT
BRANCH   5  13
HETATM   13  S   UNL     1      -9.332   1.814 -32.972  1.00  0.00     0.225 S 
HETATM   14  C   UNL     1     -10.705   0.797 -33.488  1.00  0.00     0.186 C 
HETATM   15  O   UNL     1      -9.365   1.991 -31.539  1.00  0.00    -0.206 OA
HETATM   16  O   UNL     1      -9.289   2.962 -33.855  1.00  0.00    -0.206 OA
ENDBRANCH   5  13
BRANCH   1  17
HETATM   17  C   UNL     1      -4.753   4.300 -31.320  1.00  0.00     0.299 C 
BRANCH  17  18
HETATM   18  C   UNL     1      -3.404   4.553 -31.885  1.00  0.00     0.079 A 
HETATM   19  O   UNL     1      -3.337   4.664 -33.247  1.00  0.00    -0.318 OA
HETATM   20  C   UNL     1      -2.034   4.914 -33.561  1.00  0.00     0.049 A 
HETATM   21  C   UNL     1      -1.712   5.088 -34.992  1.00  0.00     0.076 C 
HETATM   22  C   UNL     1      -1.272   4.960 -32.414  1.00  0.00     0.035 A 
HETATM   23  C   UNL     1      -2.155   4.726 -31.332  1.00  0.00     0.037 A 
ENDBRANCH  17  18
ENDBRANCH   1  17
TORSDOF 3
ENDMDL
MODEL 4
REMARK VINA RESULT:      -7.1      1.491      1.999
REMARK  3 active torsions:
REMARK  status: ('A' for Active; 'I' for Inactive)
REMARK    1  A    between atoms: C_4  and  C_5 
REMARK    2  A    between atoms: C_5  and  N_6 
REMARK    3  A    between atoms: N_10  and  S_11 
ROOT
HETATM    1  N   UNL     1      -6.977   0.303 -33.312  1.00  0.00    -0.063 N 
HETATM    2  H   UNL     1      -7.588  -0.258 -33.921  1.00  0.00     0.280 HD
HETATM    3  C   UNL     1      -7.188   1.775 -33.644  1.00  0.00     0.267 C 
HETATM    4  C   UNL     1      -8.670   2.224 -33.396  1.00  0.00     0.067 C 
HETATM    5  N   UNL     1      -8.890   3.714 -33.710  1.00  0.00    -0.300 N 
HETATM    6  C   UNL     1     -10.317   4.134 -33.529  1.00  0.00     0.136 C 
HETATM    7  C   UNL     1     -11.211   3.354 -34.485  1.00  0.00     0.021 C 
HETATM    8  C   UNL     1     -11.057   1.852 -34.301  1.00  0.00     0.004 C 
HETATM    9  C   UNL     1      -9.588   1.444 -34.387  1.00  0.00     0.033 C 
HETATM   10  C   UNL     1      -8.995   1.892 -31.917  1.00  0.00     0.035 C 
HETATM   11  C   UNL     1      -8.706   0.433 -31.547  1.00  0.00     0.030 C 
HETATM   12  C   UNL     1      -7.280   0.011 -31.873  1.00  0.00     0.235 C 
ENDROOT
BRANCH   5  13
HETATM   13  S   UNL     1      -7.728   4.841 -33.160  1.00  0.00     0.225 S 
HETATM   14  C   UNL     1      -8.636   6.367 -32.966  1.00  0.00     0.186 C 
HETATM   15  O   UNL     1      -7.272   4.375 -31.871  1.00  0.00    -0.206 OA
HETATM   16  O   UNL     1      -6.791   5.031 -34.248  1.00  0.00    -0.206 OA
ENDBRANCH   5  13
BRANCH   1  17
HETATM   17  C   UNL     1      -5.586  -0.157 -33.711  1.00  0.00     0.299 C 
BRANCH  17  18
HETATM   18  C   UNL     1      -5.573  -1.583 -34.122  1.00  0.00     0.079 A 
HETATM   19  O   UNL     1      -4.455  -2.293 -33.782  1.00  0.00    -0.318 OA
HETATM   20  C   UNL     1      -4.646  -3.569 -34.223  1.00  0.00     0.049 A 
HETATM   21  C   UNL     1      -3.564  -4.539 -33.955  1.00  0.00     0.076 C 
HETATM   22  C   UNL     1      -5.871  -3.676 -34.844  1.00  0.00     0.035 A 
HETATM   23  C   UNL     1      -6.469  -2.394 -34.780  1.00  0.00     0.037 A 
ENDBRANCH  17  18
ENDBRANCH   1  17
TORSDOF 3
ENDMDL
MODEL 5
REMARK VINA RESULT:      -7.0      1.925      2.479
REMARK  3 active torsions:
REMARK  status: ('A' for Active; 'I' for Inactive)
REMARK    1  A    between atoms: C_4  and  C_5 
REMARK    2  A    between atoms: C_5  and  N_6 
REMARK    3  A    between atoms: N_10  and  S_11 
ROOT
HETATM    1  N   UNL     1      -7.667   0.649 -33.741  1.00  0.00    -0.063 N 
HETATM    2  H   UNL     1      -8.280  -0.032 -34.209  1.00  0.00     0.280 HD
HETATM    3  C   UNL     1      -8.233   2.043 -33.972  1.00  0.00     0.267 C 
HETATM    4  C   UNL     1      -9.675   2.196 -33.376  1.00  0.00     0.067 C 
HETATM    5  N   UNL     1     -10.250   3.607 -33.587  1.00  0.00    -0.300 N 
HETATM    6  C   UNL     1     -11.650   3.741 -33.068  1.00  0.00     0.136 C 
HETATM    7  C   UNL     1     -12.570   2.783 -33.815  1.00  0.00     0.021 C 
HETATM    8  C   UNL     1     -12.086   1.345 -33.715  1.00  0.00     0.004 C 
HETATM    9  C   UNL     1     -10.627   1.233 -34.150  1.00  0.00     0.033 C 
HETATM   10  C   UNL     1      -9.577   1.832 -31.872  1.00  0.00     0.035 C 
HETATM   11  C   UNL     1      -8.929   0.465 -31.622  1.00  0.00     0.030 C 
HETATM   12  C   UNL     1      -7.564   0.327 -32.280  1.00  0.00     0.235 C 
ENDROOT
BRANCH   5  13
HETATM   13  S   UNL     1      -9.236   4.951 -33.286  1.00  0.00     0.225 S 
HETATM   14  C   UNL     1     -10.359   6.317 -33.037  1.00  0.00     0.186 C 
HETATM   15  O   UNL     1      -8.525   4.671 -32.061  1.00  0.00    -0.206 OA
HETATM   16  O   UNL     1      -8.514   5.205 -34.516  1.00  0.00    -0.206 OA
ENDBRANCH   5  13
BRANCH   1  17
HETATM   17  C   UNL     1      -6.343   0.466 -34.464  1.00  0.00     0.299 C 
BRANCH  17  18
HETATM   18  C   UNL     1      -5.841  -0.926 -34.353  1.00  0.00     0.079 A 
HETATM   19  O   UNL     1      -6.656  -1.899 -34.863  1.00  0.00    -0.318 OA
HETATM   20  C   UNL     1      -6.014  -3.088 -34.685  1.00  0.00     0.049 A 
HETATM   21  C   UNL     1      -6.701  -4.301 -35.176  1.00  0.00     0.076 C 
HETATM   22  C   UNL     1      -4.802  -2.883 -34.064  1.00  0.00     0.035 A 
HETATM   23  C   UNL     1      -4.690  -1.488 -33.847  1.00  0.00     0.037 A 
ENDBRANCH  17  18
ENDBRANCH   1  17
TORSDOF 3
ENDMDL
MODEL 6
REMARK VINA RESULT:      -7.0      3.462      6.077
REMARK  3 active torsions:
REMARK  status: ('A' for Active; 'I' for Inactive)
REMARK    1  A    between atoms: C_4  and  C_5 
REMARK    2  A    between atoms: C_5  and  N_6 
REMARK    3  A    between atoms: N_10  and  S_11 
ROOT
HETATM    1  N   UNL     1      -4.706   2.617 -31.203  1.00  0.00    -0.063 N 
HETATM    2  H   UNL     1      -3.742   2.272 -31.106  1.00  0.00     0.280 HD
HETATM    3  C   UNL     1      -5.292   2.055 -32.491  1.00  0.00     0.267 C 
HETATM    4  C   UNL     1      -5.334   0.488 -32.479  1.00  0.00     0.067 C 
HETATM    5  N   UNL     1      -5.942  -0.092 -33.769  1.00  0.00    -0.300 N 
HETATM    6  C   UNL     1      -5.933  -1.590 -33.785  1.00  0.00     0.136 C 
HETATM    7  C   UNL     1      -4.498  -2.098 -33.717  1.00  0.00     0.021 C 
HETATM    8  C   UNL     1      -3.768  -1.562 -32.496  1.00  0.00     0.004 C 
HETATM    9  C   UNL     1      -3.867  -0.040 -32.431  1.00  0.00     0.033 C 
HETATM   10  C   UNL     1      -6.143   0.072 -31.223  1.00  0.00     0.035 C 
HETATM   11  C   UNL     1      -5.615   0.702 -29.929  1.00  0.00     0.030 C 
HETATM   12  C   UNL     1      -5.516   2.219 -30.005  1.00  0.00     0.235 C 
ENDROOT
BRANCH   5  13
HETATM   13  S   UNL     1      -7.360   0.630 -34.394  1.00  0.00     0.225 S 
HETATM   14  C   UNL     1      -8.676   0.014 -33.355  1.00  0.00     0.186 C 
HETATM   15  O   UNL     1      -7.218   2.056 -34.212  1.00  0.00    -0.206 OA
HETATM   16  O   UNL     1      -7.557   0.072 -35.716  1.00  0.00    -0.206 OA
ENDBRANCH   5  13
BRANCH   1  17
HETATM   17  C   UNL     1      -4.519   4.122 -31.294  1.00  0.00     0.299 C 
BRANCH  17  18
HETATM   18  C   UNL     1      -3.188   4.481 -31.844  1.00  0.00     0.079 A 
HETATM   19  O   UNL     1      -3.123   4.635 -33.201  1.00  0.00    -0.318 OA
HETATM   20  C   UNL     1      -1.839   4.980 -33.500  1.00  0.00     0.049 A 
HETATM   21  C   UNL     1      -1.523   5.217 -34.924  1.00  0.00     0.076 C 
HETATM   22  C   UNL     1      -1.086   5.043 -32.348  1.00  0.00     0.035 A 
HETATM   23  C   UNL     1      -1.955   4.720 -31.279  1.00  0.00     0.037 A 
ENDBRANCH  17  18
ENDBRANCH   1  17
TORSDOF 3
ENDMDL
MODEL 7
REMARK VINA RESULT:      -6.9      5.684      7.647
REMARK  3 active torsions:
REMARK  status: ('A' for Active; 'I' for Inactive)
REMARK    1  A    between atoms: C_4  and  C_5 
REMARK    2  A    between atoms: C_5  and  N_6 
REMARK    3  A    between atoms: N_10  and  S_11 
ROOT
HETATM    1  N   UNL     1      -3.529   5.123 -33.542  1.00  0.00    -0.063 N 
HETATM    2  H   UNL     1      -3.191   4.194 -33.256  1.00  0.00     0.280 HD
HETATM    3  C   UNL     1      -3.375   6.074 -32.362  1.00  0.00     0.267 C 
HETATM    4  C   UNL     1      -1.878   6.215 -31.916  1.00  0.00     0.067 C 
HETATM    5  N   UNL     1      -1.708   7.188 -30.737  1.00  0.00    -0.300 N 
HETATM    6  C   UNL     1      -0.287   7.283 -30.270  1.00  0.00     0.136 C 
HETATM    7  C   UNL     1       0.186   5.921 -29.778  1.00  0.00     0.021 C 
HETATM    8  C   UNL     1       0.034   4.852 -30.848  1.00  0.00     0.004 C 
HETATM    9  C   UNL     1      -1.393   4.829 -31.391  1.00  0.00     0.033 C 
HETATM   10  C   UNL     1      -1.082   6.676 -33.164  1.00  0.00     0.035 C 
HETATM   11  C   UNL     1      -1.296   5.774 -34.384  1.00  0.00     0.030 C 
HETATM   12  C   UNL     1      -2.765   5.599 -34.741  1.00  0.00     0.235 C 
ENDROOT
BRANCH   5  13
HETATM   13  S   UNL     1      -2.556   8.673 -30.780  1.00  0.00     0.225 S 
HETATM   14  C   UNL     1      -1.975   9.566 -29.347  1.00  0.00     0.186 C 
HETATM   15  O   UNL     1      -2.143   9.355 -31.983  1.00  0.00    -0.206 OA
HETATM   16  O   UNL     1      -3.952   8.356 -30.554  1.00  0.00    -0.206 OA
ENDBRANCH   5  13
BRANCH   1  17
HETATM   17  C   UNL     1      -4.993   4.869 -33.856  1.00  0.00     0.299 C 
BRANCH  17  18
HETATM   18  C   UNL     1      -5.379   3.461 -33.591  1.00  0.00     0.079 A 
HETATM   19  O   UNL     1      -6.286   2.916 -34.457  1.00  0.00    -0.318 OA
HETATM   20  C   UNL     1      -6.488   1.627 -34.061  1.00  0.00     0.049 A 
HETATM   21  C   UNL     1      -7.431   0.820 -34.863  1.00  0.00     0.076 C 
HETATM   22  C   UNL     1      -5.723   1.348 -32.950  1.00  0.00     0.035 A 
HETATM   23  C   UNL     1      -5.007   2.532 -32.645  1.00  0.00     0.037 A 
ENDBRANCH  17  18
ENDBRANCH   1  17
TORSDOF 3
ENDMDL
MODEL 8
REMARK VINA RESULT:      -6.8      2.396      6.451
REMARK  3 active torsions:
REMARK  status: ('A' for Active; 'I' for Inactive)
REMARK    1  A    between atoms: C_4  and  C_5 
REMARK    2  A    between atoms: C_5  and  N_6 
REMARK    3  A    between atoms: N_10  and  S_11 
ROOT
HETATM    1  N   UNL     1      -8.723   0.024 -33.196  1.00  0.00    -0.063 N 
HETATM    2  H   UNL     1      -9.167  -0.846 -33.518  1.00  0.00     0.280 HD
HETATM    3  C   UNL     1      -7.383  -0.325 -32.564  1.00  0.00     0.267 C 
HETATM    4  C   UNL     1      -6.416  -1.016 -33.587  1.00  0.00     0.067 C 
HETATM    5  N   UNL     1      -5.051  -1.357 -32.964  1.00  0.00    -0.300 N 
HETATM    6  C   UNL     1      -4.143  -2.068 -33.921  1.00  0.00     0.136 C 
HETATM    7  C   UNL     1      -4.770  -3.392 -34.340  1.00  0.00     0.021 C 
HETATM    8  C   UNL     1      -6.153  -3.195 -34.942  1.00  0.00     0.004 C 
HETATM    9  C   UNL     1      -7.041  -2.383 -34.003  1.00  0.00     0.033 C 
HETATM   10  C   UNL     1      -6.275  -0.050 -34.791  1.00  0.00     0.035 C 
HETATM   11  C   UNL     1      -7.622   0.378 -35.383  1.00  0.00     0.030 C 
HETATM   12  C   UNL     1      -8.563   0.974 -34.345  1.00  0.00     0.235 C 
ENDROOT
BRANCH   5  13
HETATM   13  S   UNL     1      -4.289  -0.181 -31.983  1.00  0.00     0.225 S 
HETATM   14  C   UNL     1      -2.647  -0.824 -31.702  1.00  0.00     0.186 C 
HETATM   15  O   UNL     1      -4.214   1.030 -32.765  1.00  0.00    -0.206 OA
HETATM   16  O   UNL     1      -4.981  -0.195 -30.711  1.00  0.00    -0.206 OA
ENDBRANCH   5  13
BRANCH   1  17
HETATM   17  C   UNL     1      -9.704   0.540 -32.157  1.00  0.00     0.299 C 
BRANCH  17  18
HETATM   18  C   UNL     1      -9.424   1.950 -31.786  1.00  0.00     0.079 A 
HETATM   19  O   UNL     1      -8.421   2.141 -30.875  1.00  0.00    -0.318 OA
HETATM   20  C   UNL     1      -8.307   3.486 -30.688  1.00  0.00     0.049 A 
HETATM   21  C   UNL     1      -7.266   3.945 -29.744  1.00  0.00     0.076 C 
HETATM   22  C   UNL     1      -9.229   4.152 -31.466  1.00  0.00     0.035 A 
HETATM   23  C   UNL     1      -9.950   3.161 -32.174  1.00  0.00     0.037 A 
ENDBRANCH  17  18
ENDBRANCH   1  17
TORSDOF 3
ENDMDL
MODEL 9
REMARK VINA RESULT:      -6.8      4.160      5.676
REMARK  3 active torsions:
REMARK  status: ('A' for Active; 'I' for Inactive)
REMARK    1  A    between atoms: C_4  and  C_5 
REMARK    2  A    between atoms: C_5  and  N_6 
REMARK    3  A    between atoms: N_10  and  S_11 
ROOT
HETATM    1  N   UNL     1      -4.516   2.847 -32.666  1.00  0.00    -0.063 N 
HETATM    2  H   UNL     1      -3.822   2.453 -33.315  1.00  0.00     0.280 HD
HETATM    3  C   UNL     1      -3.845   3.950 -31.857  1.00  0.00     0.267 C 
HETATM    4  C   UNL     1      -3.320   5.110 -32.772  1.00  0.00     0.067 C 
HETATM    5  N   UNL     1      -2.657   6.239 -31.964  1.00  0.00    -0.300 N 
HETATM    6  C   UNL     1      -2.103   7.323 -32.838  1.00  0.00     0.136 C 
HETATM    7  C   UNL     1      -1.023   6.750 -33.748  1.00  0.00     0.021 C 
HETATM    8  C   UNL     1      -1.545   5.590 -34.581  1.00  0.00     0.004 C 
HETATM    9  C   UNL     1      -2.198   4.536 -33.691  1.00  0.00     0.033 C 
HETATM   10  C   UNL     1      -4.536   5.621 -33.587  1.00  0.00     0.035 C 
HETATM   11  C   UNL     1      -5.271   4.506 -34.338  1.00  0.00     0.030 C 
HETATM   12  C   UNL     1      -5.699   3.362 -33.430  1.00  0.00     0.235 C 
ENDROOT
BRANCH   5  13
HETATM   13  S   UNL     1      -3.434   6.783 -30.541  1.00  0.00     0.225 S 
HETATM   14  C   UNL     1      -3.809   8.499 -30.860  1.00  0.00     0.186 C 
HETATM   15  O   UNL     1      -4.658   6.028 -30.419  1.00  0.00    -0.206 OA
HETATM   16  O   UNL     1      -2.438   6.748 -29.489  1.00  0.00    -0.206 OA
ENDBRANCH   5  13
BRANCH   1  17
HETATM   17  C   UNL     1      -4.871   1.660 -31.788  1.00  0.00     0.299 C 
BRANCH  17  18
HETATM   18  C   UNL     1      -4.795   0.379 -32.534  1.00  0.00     0.079 A 
HETATM   19  O   UNL     1      -5.943  -0.014 -33.165  1.00  0.00    -0.318 OA
HETATM   20  C   UNL     1      -5.664  -1.186 -33.803  1.00  0.00     0.049 A 
HETATM   21  C   UNL     1      -6.760  -1.806 -34.575  1.00  0.00     0.076 C 
HETATM   22  C   UNL     1      -4.352  -1.543 -33.582  1.00  0.00     0.035 A 
HETATM   23  C   UNL     1      -3.791  -0.534 -32.762  1.00  0.00     0.037 A 
ENDBRANCH  17  18
ENDBRANCH   1  17
TORSDOF 3
ENDMDL
MODEL 10
REMARK VINA RESULT:      -6.7      2.844      4.084
REMARK  3 active torsions:
REMARK  status: ('A' for Active; 'I' for Inactive)
REMARK    1  A    between atoms: C_4  and  C_5 
REMARK    2  A    between atoms: C_5  and  N_6 
REMARK    3  A    between atoms: N_10  and  S_11 
ROOT
HETATM    1  N   UNL     1      -6.114   1.007 -33.168  1.00  0.00    -0.063 N 
HETATM    2  H   UNL     1      -5.152   0.742 -33.420  1.00  0.00     0.280 HD
HETATM    3  C   UNL     1      -6.064   1.846 -31.898  1.00  0.00     0.267 C 
HETATM    4  C   UNL     1      -5.234   3.161 -32.099  1.00  0.00     0.067 C 
HETATM    5  N   UNL     1      -5.193   4.028 -30.828  1.00  0.00    -0.300 N 
HETATM    6  C   UNL     1      -4.354   5.258 -30.998  1.00  0.00     0.136 C 
HETATM    7  C   UNL     1      -2.914   4.863 -31.300  1.00  0.00     0.021 C 
HETATM    8  C   UNL     1      -2.820   3.965 -32.523  1.00  0.00     0.004 C 
HETATM    9  C   UNL     1      -3.753   2.765 -32.387  1.00  0.00     0.033 C 
HETATM   10  C   UNL     1      -5.876   3.917 -33.291  1.00  0.00     0.035 C 
HETATM   11  C   UNL     1      -6.011   3.054 -34.551  1.00  0.00     0.030 C 
HETATM   12  C   UNL     1      -6.756   1.751 -34.300  1.00  0.00     0.235 C 
ENDROOT
BRANCH   5  13
HETATM   13  S   UNL     1      -6.644   4.257 -29.953  1.00  0.00     0.225 S 
HETATM   14  C   UNL     1      -6.181   5.295 -28.576  1.00  0.00     0.186 C 
HETATM   15  O   UNL     1      -7.547   4.972 -30.823  1.00  0.00    -0.206 OA
HETATM   16  O   UNL     1      -7.009   2.962 -29.415  1.00  0.00    -0.206 OA
ENDBRANCH   5  13
BRANCH   1  17
HETATM   17  C   UNL     1      -6.778  -0.336 -32.913  1.00  0.00     0.299 C 
BRANCH  17  18
HETATM   18  C   UNL     1      -6.059  -1.444 -33.589  1.00  0.00     0.079 A 
HETATM   19  O   UNL     1      -6.845  -2.424 -34.131  1.00  0.00    -0.318 OA
HETATM   20  C   UNL     1      -6.007  -3.326 -34.717  1.00  0.00     0.049 A 
HETATM   21  C   UNL     1      -6.633  -4.483 -35.389  1.00  0.00     0.076 C 
HETATM   22  C   UNL     1      -4.697  -2.932 -34.550  1.00  0.00     0.035 A 
HETATM   23  C   UNL     1      -4.730  -1.718 -33.822  1.00  0.00     0.037 A 
ENDBRANCH  17  18
ENDBRANCH   1  17
TORSDOF 3
ENDMDL
