MODEL 1
REMARK VINA RESULT:      -9.2      0.000      0.000
REMARK  8 active torsions:
REMARK  status: ('A' for Active; 'I' for Inactive)
REMARK    1  A    between atoms: C_7  and  C_8 
REMARK    2  A    between atoms: C_11  and  O_12 
REMARK    3  A    between atoms: O_12  and  C_13 
REMARK    4  A    between atoms: C_13  and  C_14 
REMARK       I    between atoms: C_14  and  N_15 
REMARK    5  A    between atoms: N_15  and  N_16 
REMARK       I    between atoms: N_16  and  C_17 
REMARK    6  A    between atoms: C_17  and  C_18 
REMARK    7  A    between atoms: C_18  and  N_19 
REMARK       I    between atoms: N_19  and  C_20 
REMARK    8  A    between atoms: C_20  and  C_21 
ROOT
HETATM    1  C   UNL     1      -6.835  -2.033 -34.766  1.00  0.00     0.023 A 
HETATM    2  C   UNL     1      -5.725  -2.839 -34.502  1.00  0.00     0.044 A 
HETATM    3  C   UNL     1      -5.710  -4.208 -34.929  1.00  0.00     0.099 C 
HETATM    4  N   UNL     1      -5.698  -5.315 -35.275  1.00  0.00    -0.191 NA
HETATM    5  C   UNL     1      -4.632  -2.303 -33.818  1.00  0.00     0.023 A 
HETATM    6  C   UNL     1      -4.652  -0.967 -33.400  1.00  0.00     0.014 A 
HETATM    7  C   UNL     1      -5.758  -0.139 -33.655  1.00  0.00    -0.026 A 
HETATM    8  C   UNL     1      -6.848  -0.697 -34.347  1.00  0.00     0.014 A 
ENDROOT
BRANCH   7   9
HETATM    9  C   UNL     1      -5.778   1.269 -33.211  1.00  0.00    -0.026 A 
HETATM   10  C   UNL     1      -5.058   1.689 -32.082  1.00  0.00     0.015 A 
HETATM   11  C   UNL     1      -5.084   3.024 -31.662  1.00  0.00     0.037 A 
HETATM   12  C   UNL     1      -5.821   3.978 -32.365  1.00  0.00     0.069 A 
HETATM   13  C   UNL     1      -6.545   3.579 -33.488  1.00  0.00     0.037 A 
HETATM   14  C   UNL     1      -6.522   2.239 -33.902  1.00  0.00     0.015 A 
BRANCH  12  15
HETATM   15  O   UNL     1      -5.767   5.245 -31.851  1.00  0.00    -0.342 OA
BRANCH  15  16
HETATM   16  C   UNL     1      -5.274   6.261 -32.718  1.00  0.00     0.280 C 
BRANCH  16  17
HETATM   17  C   UNL     1      -3.805   6.582 -32.455  1.00  0.00     0.260 C 
HETATM   18  N   UNL     1      -2.905   5.712 -33.037  1.00  0.00    -0.266 N 
HETATM   19  H   UNL     1      -3.235   4.809 -33.382  1.00  0.00     0.190 HD
HETATM   20  O   UNL     1      -3.457   7.531 -31.750  1.00  0.00    -0.269 OA
BRANCH  18  21
HETATM   21  N   UNL     1      -1.575   5.766 -32.596  1.00  0.00    -0.266 N 
HETATM   22  C   UNL     1      -1.170   4.868 -31.629  1.00  0.00     0.253 C 
HETATM   23  O   UNL     1      -1.808   3.854 -31.345  1.00  0.00    -0.270 OA
HETATM   24  H   UNL     1      -1.058   6.626 -32.787  1.00  0.00     0.190 HD
BRANCH  22  25
HETATM   25  C   UNL     1       0.194   5.177 -31.020  1.00  0.00     0.227 C 
BRANCH  25  26
HETATM   26  N   UNL     1       0.057   5.514 -29.618  1.00  0.00    -0.352 N 
HETATM   27  C   UNL     1      -0.297   6.790 -29.238  1.00  0.00     0.222 C 
HETATM   28  O   UNL     1      -0.537   7.668 -30.061  1.00  0.00    -0.273 OA
HETATM   29  H   UNL     1       0.514   4.911 -28.944  1.00  0.00     0.162 HD
BRANCH  27  30
HETATM   30  C   UNL     1      -0.332   7.003 -27.721  1.00  0.00     0.078 C 
HETATM   31  C   UNL     1       1.069   7.227 -27.132  1.00  0.00     0.014 C 
HETATM   32  C   UNL     1       1.626   8.625 -27.399  1.00  0.00     0.001 C 
HETATM   33  C   UNL     1       0.647   9.719 -26.988  1.00  0.00     0.000 C 
HETATM   34  C   UNL     1      -0.718   9.520 -27.635  1.00  0.00     0.001 C 
HETATM   35  C   UNL     1      -1.288   8.137 -27.324  1.00  0.00     0.014 C 
ENDBRANCH  27  30
ENDBRANCH  25  26
ENDBRANCH  22  25
ENDBRANCH  18  21
ENDBRANCH  16  17
ENDBRANCH  15  16
ENDBRANCH  12  15
ENDBRANCH   7   9
TORSDOF 8
ENDMDL
MODEL 2
REMARK VINA RESULT:      -9.1      2.572     11.195
REMARK  8 active torsions:
REMARK  status: ('A' for Active; 'I' for Inactive)
REMARK    1  A    between atoms: C_7  and  C_8 
REMARK    2  A    between atoms: C_11  and  O_12 
REMARK    3  A    between atoms: O_12  and  C_13 
REMARK    4  A    between atoms: C_13  and  C_14 
REMARK       I    between atoms: C_14  and  N_15 
REMARK    5  A    between atoms: N_15  and  N_16 
REMARK       I    between atoms: N_16  and  C_17 
REMARK    6  A    between atoms: C_17  and  C_18 
REMARK    7  A    between atoms: C_18  and  N_19 
REMARK       I    between atoms: N_19  and  C_20 
REMARK    8  A    between atoms: C_20  and  C_21 
ROOT
HETATM    1  C   UNL     1       1.844   7.959 -25.670  1.00  0.00     0.023 A 
HETATM    2  C   UNL     1       1.527   9.312 -25.532  1.00  0.00     0.044 A 
HETATM    3  C   UNL     1       1.907  10.025 -24.348  1.00  0.00     0.099 C 
HETATM    4  N   UNL     1       2.215  10.602 -23.389  1.00  0.00    -0.191 NA
HETATM    5  C   UNL     1       0.835   9.964 -26.555  1.00  0.00     0.023 A 
HETATM    6  C   UNL     1       0.463   9.263 -27.708  1.00  0.00     0.014 A 
HETATM    7  C   UNL     1       0.773   7.902 -27.868  1.00  0.00    -0.026 A 
HETATM    8  C   UNL     1       1.472   7.264 -26.827  1.00  0.00     0.014 A 
ENDROOT
BRANCH   7   9
HETATM    9  C   UNL     1       0.377   7.165 -29.084  1.00  0.00    -0.026 A 
HETATM   10  C   UNL     1      -0.249   7.812 -30.160  1.00  0.00     0.015 A 
HETATM   11  C   UNL     1      -0.626   7.107 -31.309  1.00  0.00     0.037 A 
HETATM   12  C   UNL     1      -0.379   5.738 -31.418  1.00  0.00     0.069 A 
HETATM   13  C   UNL     1       0.239   5.077 -30.358  1.00  0.00     0.037 A 
HETATM   14  C   UNL     1       0.610   5.785 -29.206  1.00  0.00     0.015 A 
BRANCH  12  15
HETATM   15  O   UNL     1      -0.799   5.166 -32.588  1.00  0.00    -0.342 OA
BRANCH  15  16
HETATM   16  C   UNL     1      -1.236   6.057 -33.609  1.00  0.00     0.280 C 
BRANCH  16  17
HETATM   17  C   UNL     1      -2.532   5.592 -34.266  1.00  0.00     0.260 C 
HETATM   18  N   UNL     1      -3.648   5.641 -33.454  1.00  0.00    -0.266 N 
HETATM   19  H   UNL     1      -3.526   5.736 -32.444  1.00  0.00     0.190 HD
HETATM   20  O   UNL     1      -2.567   5.178 -35.426  1.00  0.00    -0.269 OA
BRANCH  18  21
HETATM   21  N   UNL     1      -4.792   4.956 -33.885  1.00  0.00    -0.266 N 
HETATM   22  C   UNL     1      -5.128   3.777 -33.250  1.00  0.00     0.253 C 
HETATM   23  O   UNL     1      -4.659   3.445 -32.160  1.00  0.00    -0.270 OA
HETATM   24  H   UNL     1      -5.154   5.194 -34.810  1.00  0.00     0.190 HD
BRANCH  22  25
HETATM   25  C   UNL     1      -6.212   2.971 -33.958  1.00  0.00     0.227 C 
BRANCH  25  26
HETATM   26  N   UNL     1      -6.315   1.646 -33.381  1.00  0.00    -0.352 N 
HETATM   27  C   UNL     1      -6.745   0.584 -34.146  1.00  0.00     0.222 C 
HETATM   28  O   UNL     1      -7.023   0.711 -35.334  1.00  0.00    -0.273 OA
HETATM   29  H   UNL     1      -6.369   1.577 -32.372  1.00  0.00     0.162 HD
BRANCH  27  30
HETATM   30  C   UNL     1      -6.866  -0.733 -33.372  1.00  0.00     0.078 C 
HETATM   31  C   UNL     1      -7.075  -1.939 -34.301  1.00  0.00     0.014 C 
HETATM   32  C   UNL     1      -5.801  -2.382 -35.020  1.00  0.00     0.001 C 
HETATM   33  C   UNL     1      -4.643  -2.595 -34.053  1.00  0.00     0.000 C 
HETATM   34  C   UNL     1      -4.405  -1.366 -33.185  1.00  0.00     0.001 C 
HETATM   35  C   UNL     1      -5.671  -0.958 -32.434  1.00  0.00     0.014 C 
ENDBRANCH  27  30
ENDBRANCH  25  26
ENDBRANCH  22  25
ENDBRANCH  18  21
ENDBRANCH  16  17
ENDBRANCH  15  16
ENDBRANCH  12  15
ENDBRANCH   7   9
TORSDOF 8
ENDMDL
MODEL 3
REMARK VINA RESULT:      -9.0      2.236      3.860
REMARK  8 active torsions:
REMARK  status: ('A' for Active; 'I' for Inactive)
REMARK    1  A    between atoms: C_7  and  C_8 
REMARK    2  A    between atoms: C_11  and  O_12 
REMARK    3  A    between atoms: O_12  and  C_13 
REMARK    4  A    between atoms: C_13  and  C_14 
REMARK       I    between atoms: C_14  and  N_15 
REMARK    5  A    between atoms: N_15  and  N_16 
REMARK       I    between atoms: N_16  and  C_17 
REMARK    6  A    between atoms: C_17  and  C_18 
REMARK    7  A    between atoms: C_18  and  N_19 
REMARK       I    between atoms: N_19  and  C_20 
REMARK    8  A    between atoms: C_20  and  C_21 
ROOT
HETATM    1  C   UNL     1      -4.767  -2.141 -33.957  1.00  0.00     0.023 A 
HETATM    2  C   UNL     1      -5.803  -2.980 -34.373  1.00  0.00     0.044 A 
HETATM    3  C   UNL     1      -5.522  -4.327 -34.777  1.00  0.00     0.099 C 
HETATM    4  N   UNL     1      -5.295  -5.417 -35.103  1.00  0.00    -0.191 NA
HETATM    5  C   UNL     1      -7.113  -2.497 -34.396  1.00  0.00     0.023 A 
HETATM    6  C   UNL     1      -7.383  -1.181 -34.005  1.00  0.00     0.014 A 
HETATM    7  C   UNL     1      -6.356  -0.320 -33.581  1.00  0.00    -0.026 A 
HETATM    8  C   UNL     1      -5.044  -0.826 -33.564  1.00  0.00     0.014 A 
ENDROOT
BRANCH   7   9
HETATM    9  C   UNL     1      -6.643   1.069 -33.171  1.00  0.00    -0.026 A 
HETATM   10  C   UNL     1      -7.284   1.356 -31.957  1.00  0.00     0.015 A 
HETATM   11  C   UNL     1      -7.558   2.674 -31.575  1.00  0.00     0.037 A 
HETATM   12  C   UNL     1      -7.189   3.743 -32.392  1.00  0.00     0.069 A 
HETATM   13  C   UNL     1      -6.554   3.478 -33.605  1.00  0.00     0.037 A 
HETATM   14  C   UNL     1      -6.287   2.156 -33.987  1.00  0.00     0.015 A 
BRANCH  12  15
HETATM   15  O   UNL     1      -7.516   4.981 -31.909  1.00  0.00    -0.342 OA
BRANCH  15  16
HETATM   16  C   UNL     1      -6.968   5.332 -30.643  1.00  0.00     0.280 C 
BRANCH  16  17
HETATM   17  C   UNL     1      -5.494   5.717 -30.737  1.00  0.00     0.260 C 
HETATM   18  N   UNL     1      -4.807   5.691 -29.540  1.00  0.00    -0.266 N 
HETATM   19  H   UNL     1      -5.332   5.665 -28.664  1.00  0.00     0.190 HD
HETATM   20  O   UNL     1      -4.971   6.054 -31.801  1.00  0.00    -0.269 OA
BRANCH  18  21
HETATM   21  N   UNL     1      -3.552   6.314 -29.500  1.00  0.00    -0.266 N 
HETATM   22  C   UNL     1      -3.504   7.675 -29.274  1.00  0.00     0.253 C 
HETATM   23  O   UNL     1      -4.456   8.315 -28.825  1.00  0.00    -0.270 OA
HETATM   24  H   UNL     1      -2.769   5.807 -29.917  1.00  0.00     0.190 HD
BRANCH  22  25
HETATM   25  C   UNL     1      -2.136   8.303 -29.521  1.00  0.00     0.227 C 
BRANCH  25  26
HETATM   26  N   UNL     1      -1.371   7.498 -30.450  1.00  0.00    -0.352 N 
HETATM   27  C   UNL     1      -1.403   7.770 -31.800  1.00  0.00     0.222 C 
HETATM   28  O   UNL     1      -2.047   8.710 -32.256  1.00  0.00    -0.273 OA
HETATM   29  H   UNL     1      -1.077   6.578 -30.143  1.00  0.00     0.162 HD
BRANCH  27  30
HETATM   30  C   UNL     1      -0.597   6.786 -32.655  1.00  0.00     0.078 C 
HETATM   31  C   UNL     1      -0.565   5.376 -32.048  1.00  0.00     0.014 C 
HETATM   32  C   UNL     1      -1.869   4.601 -32.237  1.00  0.00     0.001 C 
HETATM   33  C   UNL     1      -2.322   4.590 -33.692  1.00  0.00     0.000 C 
HETATM   34  C   UNL     1      -2.414   6.001 -34.260  1.00  0.00     0.001 C 
HETATM   35  C   UNL     1      -1.092   6.753 -34.108  1.00  0.00     0.014 C 
ENDBRANCH  27  30
ENDBRANCH  25  26
ENDBRANCH  22  25
ENDBRANCH  18  21
ENDBRANCH  16  17
ENDBRANCH  15  16
ENDBRANCH  12  15
ENDBRANCH   7   9
TORSDOF 8
ENDMDL
MODEL 4
REMARK VINA RESULT:      -9.0      2.849     11.354
REMARK  8 active torsions:
REMARK  status: ('A' for Active; 'I' for Inactive)
REMARK    1  A    between atoms: C_7  and  C_8 
REMARK    2  A    between atoms: C_11  and  O_12 
REMARK    3  A    between atoms: O_12  and  C_13 
REMARK    4  A    between atoms: C_13  and  C_14 
REMARK       I    between atoms: C_14  and  N_15 
REMARK    5  A    between atoms: N_15  and  N_16 
REMARK       I    between atoms: N_16  and  C_17 
REMARK    6  A    between atoms: C_17  and  C_18 
REMARK    7  A    between atoms: C_18  and  N_19 
REMARK       I    between atoms: N_19  and  C_20 
REMARK    8  A    between atoms: C_20  and  C_21 
ROOT
HETATM    1  C   UNL     1       2.160   8.602 -25.211  1.00  0.00     0.023 A 
HETATM    2  C   UNL     1       1.218   9.502 -24.710  1.00  0.00     0.044 A 
HETATM    3  C   UNL     1       1.503  10.262 -23.528  1.00  0.00     0.099 C 
HETATM    4  N   UNL     1       1.734  10.878 -22.572  1.00  0.00    -0.191 NA
HETATM    5  C   UNL     1      -0.006   9.653 -25.366  1.00  0.00     0.023 A 
HETATM    6  C   UNL     1      -0.282   8.907 -26.517  1.00  0.00     0.014 A 
HETATM    7  C   UNL     1       0.653   7.997 -27.039  1.00  0.00    -0.026 A 
HETATM    8  C   UNL     1       1.879   7.860 -26.365  1.00  0.00     0.014 A 
ENDROOT
BRANCH   7   9
HETATM    9  C   UNL     1       0.357   7.209 -28.252  1.00  0.00    -0.026 A 
HETATM   10  C   UNL     1       0.684   5.847 -28.337  1.00  0.00     0.015 A 
HETATM   11  C   UNL     1       0.405   5.105 -29.491  1.00  0.00     0.037 A 
HETATM   12  C   UNL     1      -0.216   5.702 -30.588  1.00  0.00     0.069 A 
HETATM   13  C   UNL     1      -0.545   7.055 -30.524  1.00  0.00     0.037 A 
HETATM   14  C   UNL     1      -0.259   7.797 -29.369  1.00  0.00     0.015 A 
BRANCH  12  15
HETATM   15  O   UNL     1      -0.429   4.871 -31.654  1.00  0.00    -0.342 OA
BRANCH  15  16
HETATM   16  C   UNL     1      -1.614   5.099 -32.409  1.00  0.00     0.280 C 
BRANCH  16  17
HETATM   17  C   UNL     1      -2.646   3.991 -32.214  1.00  0.00     0.260 C 
HETATM   18  N   UNL     1      -3.372   4.070 -31.043  1.00  0.00    -0.266 N 
HETATM   19  H   UNL     1      -3.041   4.675 -30.290  1.00  0.00     0.190 HD
HETATM   20  O   UNL     1      -2.791   3.080 -33.031  1.00  0.00    -0.269 OA
BRANCH  18  21
HETATM   21  N   UNL     1      -4.109   2.940 -30.660  1.00  0.00    -0.266 N 
HETATM   22  C   UNL     1      -5.487   3.013 -30.699  1.00  0.00     0.253 C 
HETATM   23  O   UNL     1      -6.095   3.892 -31.311  1.00  0.00    -0.270 OA
HETATM   24  H   UNL     1      -3.620   2.232 -30.110  1.00  0.00     0.190 HD
BRANCH  22  25
HETATM   25  C   UNL     1      -6.195   1.850 -30.012  1.00  0.00     0.227 C 
BRANCH  25  26
HETATM   26  N   UNL     1      -7.140   1.228 -30.917  1.00  0.00    -0.352 N 
HETATM   27  C   UNL     1      -6.781   0.114 -31.643  1.00  0.00     0.222 C 
HETATM   28  O   UNL     1      -5.675  -0.406 -31.528  1.00  0.00    -0.273 OA
HETATM   29  H   UNL     1      -7.924   1.787 -31.233  1.00  0.00     0.162 HD
BRANCH  27  30
HETATM   30  C   UNL     1      -7.867  -0.381 -32.605  1.00  0.00     0.078 C 
HETATM   31  C   UNL     1      -8.602   0.775 -33.299  1.00  0.00     0.014 C 
HETATM   32  C   UNL     1      -7.791   1.428 -34.419  1.00  0.00     0.001 C 
HETATM   33  C   UNL     1      -7.261   0.403 -35.414  1.00  0.00     0.000 C 
HETATM   34  C   UNL     1      -6.476  -0.701 -34.716  1.00  0.00     0.001 C 
HETATM   35  C   UNL     1      -7.310  -1.380 -33.630  1.00  0.00     0.014 C 
ENDBRANCH  27  30
ENDBRANCH  25  26
ENDBRANCH  22  25
ENDBRANCH  18  21
ENDBRANCH  16  17
ENDBRANCH  15  16
ENDBRANCH  12  15
ENDBRANCH   7   9
TORSDOF 8
ENDMDL
MODEL 5
REMARK VINA RESULT:      -8.7      3.773      8.190
REMARK  8 active torsions:
REMARK  status: ('A' for Active; 'I' for Inactive)
REMARK    1  A    between atoms: C_7  and  C_8 
REMARK    2  A    between atoms: C_11  and  O_12 
REMARK    3  A    between atoms: O_12  and  C_13 
REMARK    4  A    between atoms: C_13  and  C_14 
REMARK       I    between atoms: C_14  and  N_15 
REMARK    5  A    between atoms: N_15  and  N_16 
REMARK       I    between atoms: N_16  and  C_17 
REMARK    6  A    between atoms: C_17  and  C_18 
REMARK    7  A    between atoms: C_18  and  N_19 
REMARK       I    between atoms: N_19  and  C_20 
REMARK    8  A    between atoms: C_20  and  C_21 
ROOT
HETATM    1  C   UNL     1      -6.705  -1.510 -34.619  1.00  0.00     0.023 A 
HETATM    2  C   UNL     1      -5.807  -2.569 -34.471  1.00  0.00     0.044 A 
HETATM    3  C   UNL     1      -6.130  -3.867 -34.987  1.00  0.00     0.099 C 
HETATM    4  N   UNL     1      -6.393  -4.917 -35.404  1.00  0.00    -0.191 NA
HETATM    5  C   UNL     1      -4.594  -2.355 -33.814  1.00  0.00     0.023 A 
HETATM    6  C   UNL     1      -4.282  -1.087 -33.309  1.00  0.00     0.014 A 
HETATM    7  C   UNL     1      -5.171  -0.007 -33.448  1.00  0.00    -0.026 A 
HETATM    8  C   UNL     1      -6.387  -0.243 -34.114  1.00  0.00     0.014 A 
ENDROOT
BRANCH   7   9
HETATM    9  C   UNL     1      -4.841   1.328 -32.912  1.00  0.00    -0.026 A 
HETATM   10  C   UNL     1      -5.503   2.480 -33.362  1.00  0.00     0.015 A 
HETATM   11  C   UNL     1      -5.184   3.744 -32.853  1.00  0.00     0.037 A 
HETATM   12  C   UNL     1      -4.202   3.891 -31.873  1.00  0.00     0.069 A 
HETATM   13  C   UNL     1      -3.530   2.757 -31.416  1.00  0.00     0.037 A 
HETATM   14  C   UNL     1      -3.848   1.493 -31.932  1.00  0.00     0.015 A 
BRANCH  12  15
HETATM   15  O   UNL     1      -3.981   5.177 -31.462  1.00  0.00    -0.342 OA
BRANCH  15  16
HETATM   16  C   UNL     1      -4.462   5.521 -30.168  1.00  0.00     0.280 C 
BRANCH  16  17
HETATM   17  C   UNL     1      -5.985   5.463 -30.082  1.00  0.00     0.260 C 
HETATM   18  N   UNL     1      -6.486   4.454 -29.284  1.00  0.00    -0.266 N 
HETATM   19  H   UNL     1      -5.873   3.686 -29.007  1.00  0.00     0.190 HD
HETATM   20  O   UNL     1      -6.707   6.243 -30.706  1.00  0.00    -0.269 OA
BRANCH  18  21
HETATM   21  N   UNL     1      -7.851   4.156 -29.399  1.00  0.00    -0.266 N 
HETATM   22  C   UNL     1      -8.223   3.086 -30.188  1.00  0.00     0.253 C 
HETATM   23  O   UNL     1      -7.432   2.216 -30.556  1.00  0.00    -0.270 OA
HETATM   24  H   UNL     1      -8.510   4.893 -29.142  1.00  0.00     0.190 HD
BRANCH  22  25
HETATM   25  C   UNL     1      -9.720   3.008 -30.473  1.00  0.00     0.227 C 
BRANCH  25  26
HETATM   26  N   UNL     1      -9.959   2.364 -31.748  1.00  0.00    -0.352 N 
HETATM   27  C   UNL     1     -10.273   3.114 -32.860  1.00  0.00     0.222 C 
HETATM   28  O   UNL     1     -10.331   4.339 -32.820  1.00  0.00    -0.273 OA
HETATM   29  H   UNL     1     -10.194   1.378 -31.739  1.00  0.00     0.162 HD
BRANCH  27  30
HETATM   30  C   UNL     1     -10.565   2.280 -34.112  1.00  0.00     0.078 C 
HETATM   31  C   UNL     1     -11.336   0.991 -33.789  1.00  0.00     0.014 C 
HETATM   32  C   UNL     1     -12.818   1.224 -33.498  1.00  0.00     0.001 C 
HETATM   33  C   UNL     1     -13.495   2.039 -34.593  1.00  0.00     0.000 C 
HETATM   34  C   UNL     1     -12.757   3.347 -34.854  1.00  0.00     0.001 C 
HETATM   35  C   UNL     1     -11.287   3.102 -35.190  1.00  0.00     0.014 C 
ENDBRANCH  27  30
ENDBRANCH  25  26
ENDBRANCH  22  25
ENDBRANCH  18  21
ENDBRANCH  16  17
ENDBRANCH  15  16
ENDBRANCH  12  15
ENDBRANCH   7   9
TORSDOF 8
ENDMDL
MODEL 6
REMARK VINA RESULT:      -8.7      2.828      4.813
REMARK  8 active torsions:
REMARK  status: ('A' for Active; 'I' for Inactive)
REMARK    1  A    between atoms: C_7  and  C_8 
REMARK    2  A    between atoms: C_11  and  O_12 
REMARK    3  A    between atoms: O_12  and  C_13 
REMARK    4  A    between atoms: C_13  and  C_14 
REMARK       I    between atoms: C_14  and  N_15 
REMARK    5  A    between atoms: N_15  and  N_16 
REMARK       I    between atoms: N_16  and  C_17 
REMARK    6  A    between atoms: C_17  and  C_18 
REMARK    7  A    between atoms: C_18  and  N_19 
REMARK       I    between atoms: N_19  and  C_20 
REMARK    8  A    between atoms: C_20  and  C_21 
ROOT
HETATM    1  C   UNL     1      -4.684  -1.912 -33.163  1.00  0.00     0.023 A 
HETATM    2  C   UNL     1      -4.914  -3.021 -33.980  1.00  0.00     0.044 A 
HETATM    3  C   UNL     1      -3.886  -4.001 -34.173  1.00  0.00     0.099 C 
HETATM    4  N   UNL     1      -3.054  -4.795 -34.329  1.00  0.00    -0.191 NA
HETATM    5  C   UNL     1      -6.152  -3.166 -34.608  1.00  0.00     0.023 A 
HETATM    6  C   UNL     1      -7.153  -2.206 -34.420  1.00  0.00     0.014 A 
HETATM    7  C   UNL     1      -6.942  -1.083 -33.602  1.00  0.00    -0.026 A 
HETATM    8  C   UNL     1      -5.689  -0.955 -32.976  1.00  0.00     0.014 A 
ENDROOT
BRANCH   7   9
HETATM    9  C   UNL     1      -7.998  -0.069 -33.407  1.00  0.00    -0.026 A 
HETATM   10  C   UNL     1      -8.715   0.457 -34.492  1.00  0.00     0.015 A 
HETATM   11  C   UNL     1      -9.712   1.421 -34.302  1.00  0.00     0.037 A 
HETATM   12  C   UNL     1     -10.027   1.877 -33.022  1.00  0.00     0.069 A 
HETATM   13  C   UNL     1      -9.323   1.368 -31.932  1.00  0.00     0.037 A 
HETATM   14  C   UNL     1      -8.320   0.408 -32.126  1.00  0.00     0.015 A 
BRANCH  12  15
HETATM   15  O   UNL     1     -11.016   2.821 -32.971  1.00  0.00    -0.342 OA
BRANCH  15  16
HETATM   16  C   UNL     1     -10.875   3.935 -33.846  1.00  0.00     0.280 C 
BRANCH  16  17
HETATM   17  C   UNL     1      -9.993   5.030 -33.251  1.00  0.00     0.260 C 
HETATM   18  N   UNL     1      -8.818   5.268 -33.935  1.00  0.00    -0.266 N 
HETATM   19  H   UNL     1      -8.488   4.581 -34.615  1.00  0.00     0.190 HD
HETATM   20  O   UNL     1     -10.299   5.630 -32.219  1.00  0.00    -0.269 OA
BRANCH  18  21
HETATM   21  N   UNL     1      -7.836   6.031 -33.288  1.00  0.00    -0.266 N 
HETATM   22  C   UNL     1      -6.518   5.639 -33.410  1.00  0.00     0.253 C 
HETATM   23  O   UNL     1      -6.129   4.848 -34.270  1.00  0.00    -0.270 OA
HETATM   24  H   UNL     1      -8.149   6.652 -32.540  1.00  0.00     0.190 HD
BRANCH  22  25
HETATM   25  C   UNL     1      -5.562   6.354 -32.460  1.00  0.00     0.227 C 
BRANCH  25  26
HETATM   26  N   UNL     1      -4.202   6.266 -32.950  1.00  0.00    -0.352 N 
HETATM   27  C   UNL     1      -3.295   5.426 -32.342  1.00  0.00     0.222 C 
HETATM   28  O   UNL     1      -3.608   4.708 -31.397  1.00  0.00    -0.273 OA
HETATM   29  H   UNL     1      -3.857   7.031 -33.517  1.00  0.00     0.162 HD
BRANCH  27  30
HETATM   30  C   UNL     1      -1.883   5.500 -32.933  1.00  0.00     0.078 C 
HETATM   31  C   UNL     1      -1.491   6.930 -33.332  1.00  0.00     0.014 C 
HETATM   32  C   UNL     1      -1.129   7.818 -32.142  1.00  0.00     0.001 C 
HETATM   33  C   UNL     1      -0.087   7.167 -31.240  1.00  0.00     0.000 C 
HETATM   34  C   UNL     1      -0.522   5.776 -30.797  1.00  0.00     0.001 C 
HETATM   35  C   UNL     1      -0.837   4.881 -31.994  1.00  0.00     0.014 C 
ENDBRANCH  27  30
ENDBRANCH  25  26
ENDBRANCH  22  25
ENDBRANCH  18  21
ENDBRANCH  16  17
ENDBRANCH  15  16
ENDBRANCH  12  15
ENDBRANCH   7   9
TORSDOF 8
ENDMDL
MODEL 7
REMARK VINA RESULT:      -8.6      2.476     11.083
REMARK  8 active torsions:
REMARK  status: ('A' for Active; 'I' for Inactive)
REMARK    1  A    between atoms: C_7  and  C_8 
REMARK    2  A    between atoms: C_11  and  O_12 
REMARK    3  A    between atoms: O_12  and  C_13 
REMARK    4  A    between atoms: C_13  and  C_14 
REMARK       I    between atoms: C_14  and  N_15 
REMARK    5  A    between atoms: N_15  and  N_16 
REMARK       I    between atoms: N_16  and  C_17 
REMARK    6  A    between atoms: C_17  and  C_18 
REMARK    7  A    between atoms: C_18  and  N_19 
REMARK       I    between atoms: N_19  and  C_20 
REMARK    8  A    between atoms: C_20  and  C_21 
ROOT
HETATM    1  C   UNL     1       0.250   9.994 -25.757  1.00  0.00     0.023 A 
HETATM    2  C   UNL     1       1.324   9.693 -24.916  1.00  0.00     0.044 A 
HETATM    3  C   UNL     1       1.594  10.511 -23.770  1.00  0.00     0.099 C 
HETATM    4  N   UNL     1       1.812  11.173 -22.843  1.00  0.00    -0.191 NA
HETATM    5  C   UNL     1       2.133   8.592 -25.202  1.00  0.00     0.023 A 
HETATM    6  C   UNL     1       1.868   7.797 -26.324  1.00  0.00     0.014 A 
HETATM    7  C   UNL     1       0.793   8.082 -27.182  1.00  0.00    -0.026 A 
HETATM    8  C   UNL     1      -0.012   9.194 -26.876  1.00  0.00     0.014 A 
ENDROOT
BRANCH   7   9
HETATM    9  C   UNL     1       0.517   7.244 -28.366  1.00  0.00    -0.026 A 
HETATM   10  C   UNL     1       0.761   5.863 -28.357  1.00  0.00     0.015 A 
HETATM   11  C   UNL     1       0.502   5.074 -29.484  1.00  0.00     0.037 A 
HETATM   12  C   UNL     1      -0.018   5.642 -30.647  1.00  0.00     0.069 A 
HETATM   13  C   UNL     1      -0.264   7.014 -30.676  1.00  0.00     0.037 A 
HETATM   14  C   UNL     1       0.003   7.803 -29.548  1.00  0.00     0.015 A 
BRANCH  12  15
HETATM   15  O   UNL     1      -0.222   4.766 -31.678  1.00  0.00    -0.342 OA
BRANCH  15  16
HETATM   16  C   UNL     1      -1.201   5.138 -32.642  1.00  0.00     0.280 C 
BRANCH  16  17
HETATM   17  C   UNL     1      -2.421   4.221 -32.611  1.00  0.00     0.260 C 
HETATM   18  N   UNL     1      -3.379   4.492 -33.567  1.00  0.00    -0.266 N 
HETATM   19  H   UNL     1      -3.355   5.388 -34.057  1.00  0.00     0.190 HD
HETATM   20  O   UNL     1      -2.547   3.327 -31.772  1.00  0.00    -0.269 OA
BRANCH  18  21
HETATM   21  N   UNL     1      -4.638   3.897 -33.408  1.00  0.00    -0.266 N 
HETATM   22  C   UNL     1      -5.716   4.714 -33.131  1.00  0.00     0.253 C 
HETATM   23  O   UNL     1      -5.695   5.934 -33.298  1.00  0.00    -0.270 OA
HETATM   24  H   UNL     1      -4.657   2.894 -33.219  1.00  0.00     0.190 HD
BRANCH  22  25
HETATM   25  C   UNL     1      -6.976   3.966 -32.705  1.00  0.00     0.227 C 
BRANCH  25  26
HETATM   26  N   UNL     1      -6.636   2.652 -32.200  1.00  0.00    -0.352 N 
HETATM   27  C   UNL     1      -6.975   1.522 -32.913  1.00  0.00     0.222 C 
HETATM   28  O   UNL     1      -7.540   1.587 -34.000  1.00  0.00    -0.273 OA
HETATM   29  H   UNL     1      -6.439   2.565 -31.210  1.00  0.00     0.162 HD
BRANCH  27  30
HETATM   30  C   UNL     1      -6.610   0.209 -32.212  1.00  0.00     0.078 C 
HETATM   31  C   UNL     1      -6.863  -1.017 -33.102  1.00  0.00     0.014 C 
HETATM   32  C   UNL     1      -5.807  -1.208 -34.191  1.00  0.00     0.001 C 
HETATM   33  C   UNL     1      -4.392  -1.190 -33.625  1.00  0.00     0.000 C 
HETATM   34  C   UNL     1      -4.135   0.065 -32.802  1.00  0.00     0.001 C 
HETATM   35  C   UNL     1      -5.167   0.224 -31.686  1.00  0.00     0.014 C 
ENDBRANCH  27  30
ENDBRANCH  25  26
ENDBRANCH  22  25
ENDBRANCH  18  21
ENDBRANCH  16  17
ENDBRANCH  15  16
ENDBRANCH  12  15
ENDBRANCH   7   9
TORSDOF 8
ENDMDL
MODEL 8
REMARK VINA RESULT:      -8.6      3.778      7.855
REMARK  8 active torsions:
REMARK  status: ('A' for Active; 'I' for Inactive)
REMARK    1  A    between atoms: C_7  and  C_8 
REMARK    2  A    between atoms: C_11  and  O_12 
REMARK    3  A    between atoms: O_12  and  C_13 
REMARK    4  A    between atoms: C_13  and  C_14 
REMARK       I    between atoms: C_14  and  N_15 
REMARK    5  A    between atoms: N_15  and  N_16 
REMARK       I    between atoms: N_16  and  C_17 
REMARK    6  A    between atoms: C_17  and  C_18 
REMARK    7  A    between atoms: C_18  and  N_19 
REMARK       I    between atoms: N_19  and  C_20 
REMARK    8  A    between atoms: C_20  and  C_21 
ROOT
HETATM    1  C   UNL     1      -4.518  -2.622 -33.927  1.00  0.00     0.023 A 
HETATM    2  C   UNL     1      -5.766  -2.880 -34.498  1.00  0.00     0.044 A 
HETATM    3  C   UNL     1      -6.036  -4.153 -35.099  1.00  0.00     0.099 C 
HETATM    4  N   UNL     1      -6.253  -5.183 -35.586  1.00  0.00    -0.191 NA
HETATM    5  C   UNL     1      -6.749  -1.888 -34.479  1.00  0.00     0.023 A 
HETATM    6  C   UNL     1      -6.482  -0.645 -33.893  1.00  0.00     0.014 A 
HETATM    7  C   UNL     1      -5.233  -0.365 -33.313  1.00  0.00    -0.026 A 
HETATM    8  C   UNL     1      -4.258  -1.377 -33.341  1.00  0.00     0.014 A 
ENDROOT
BRANCH   7   9
HETATM    9  C   UNL     1      -4.953   0.948 -32.699  1.00  0.00    -0.026 A 
HETATM   10  C   UNL     1      -3.640   1.417 -32.544  1.00  0.00     0.015 A 
HETATM   11  C   UNL     1      -3.379   2.660 -31.957  1.00  0.00     0.037 A 
HETATM   12  C   UNL     1      -4.424   3.474 -31.518  1.00  0.00     0.069 A 
HETATM   13  C   UNL     1      -5.736   3.023 -31.660  1.00  0.00     0.037 A 
HETATM   14  C   UNL     1      -5.993   1.774 -32.243  1.00  0.00     0.015 A 
BRANCH  12  15
HETATM   15  O   UNL     1      -4.038   4.661 -30.959  1.00  0.00    -0.342 OA
BRANCH  15  16
HETATM   16  C   UNL     1      -3.886   5.762 -31.849  1.00  0.00     0.280 C 
BRANCH  16  17
HETATM   17  C   UNL     1      -5.168   6.060 -32.623  1.00  0.00     0.260 C 
HETATM   18  N   UNL     1      -6.233   6.475 -31.848  1.00  0.00    -0.266 N 
HETATM   19  H   UNL     1      -6.201   6.331 -30.838  1.00  0.00     0.190 HD
HETATM   20  O   UNL     1      -5.246   5.911 -33.843  1.00  0.00    -0.269 OA
BRANCH  18  21
HETATM   21  N   UNL     1      -7.503   6.474 -32.442  1.00  0.00    -0.266 N 
HETATM   22  C   UNL     1      -8.577   6.047 -31.687  1.00  0.00     0.253 C 
HETATM   23  O   UNL     1      -8.538   5.945 -30.460  1.00  0.00    -0.270 OA
HETATM   24  H   UNL     1      -7.538   6.508 -33.462  1.00  0.00     0.190 HD
BRANCH  22  25
HETATM   25  C   UNL     1      -9.855   5.820 -32.489  1.00  0.00     0.227 C 
BRANCH  25  26
HETATM   26  N   UNL     1      -9.706   4.675 -33.364  1.00  0.00    -0.352 N 
HETATM   27  C   UNL     1     -10.815   4.049 -33.889  1.00  0.00     0.222 C 
HETATM   28  O   UNL     1     -11.952   4.450 -33.665  1.00  0.00    -0.273 OA
HETATM   29  H   UNL     1      -8.828   4.170 -33.330  1.00  0.00     0.162 HD
BRANCH  27  30
HETATM   30  C   UNL     1     -10.492   2.814 -34.737  1.00  0.00     0.078 C 
HETATM   31  C   UNL     1      -9.235   2.081 -34.245  1.00  0.00     0.014 C 
HETATM   32  C   UNL     1      -9.467   1.255 -32.980  1.00  0.00     0.001 C 
HETATM   33  C   UNL     1     -10.661   0.318 -33.120  1.00  0.00     0.000 C 
HETATM   34  C   UNL     1     -11.916   1.071 -33.543  1.00  0.00     0.001 C 
HETATM   35  C   UNL     1     -11.689   1.857 -34.833  1.00  0.00     0.014 C 
ENDBRANCH  27  30
ENDBRANCH  25  26
ENDBRANCH  22  25
ENDBRANCH  18  21
ENDBRANCH  16  17
ENDBRANCH  15  16
ENDBRANCH  12  15
ENDBRANCH   7   9
TORSDOF 8
ENDMDL
MODEL 9
REMARK VINA RESULT:      -8.4      6.056      9.585
REMARK  8 active torsions:
REMARK  status: ('A' for Active; 'I' for Inactive)
REMARK    1  A    between atoms: C_7  and  C_8 
REMARK    2  A    between atoms: C_11  and  O_12 
REMARK    3  A    between atoms: O_12  and  C_13 
REMARK    4  A    between atoms: C_13  and  C_14 
REMARK       I    between atoms: C_14  and  N_15 
REMARK    5  A    between atoms: N_15  and  N_16 
REMARK       I    between atoms: N_16  and  C_17 
REMARK    6  A    between atoms: C_17  and  C_18 
REMARK    7  A    between atoms: C_18  and  N_19 
REMARK       I    between atoms: N_19  and  C_20 
REMARK    8  A    between atoms: C_20  and  C_21 
ROOT
HETATM    1  C   UNL     1      -5.130  -1.889 -33.832  1.00  0.00     0.023 A 
HETATM    2  C   UNL     1      -6.196  -2.625 -34.354  1.00  0.00     0.044 A 
HETATM    3  C   UNL     1      -5.961  -3.899 -34.968  1.00  0.00     0.099 C 
HETATM    4  N   UNL     1      -5.771  -4.929 -35.466  1.00  0.00    -0.191 NA
HETATM    5  C   UNL     1      -7.492  -2.110 -34.274  1.00  0.00     0.023 A 
HETATM    6  C   UNL     1      -7.717  -0.865 -33.675  1.00  0.00     0.014 A 
HETATM    7  C   UNL     1      -6.659  -0.109 -33.143  1.00  0.00    -0.026 A 
HETATM    8  C   UNL     1      -5.362  -0.645 -33.232  1.00  0.00     0.014 A 
ENDROOT
BRANCH   7   9
HETATM    9  C   UNL     1      -6.898   1.206 -32.515  1.00  0.00    -0.026 A 
HETATM   10  C   UNL     1      -6.532   2.400 -33.155  1.00  0.00     0.015 A 
HETATM   11  C   UNL     1      -6.758   3.643 -32.553  1.00  0.00     0.037 A 
HETATM   12  C   UNL     1      -7.365   3.728 -31.300  1.00  0.00     0.069 A 
HETATM   13  C   UNL     1      -7.733   2.552 -30.647  1.00  0.00     0.037 A 
HETATM   14  C   UNL     1      -7.500   1.308 -31.250  1.00  0.00     0.015 A 
BRANCH  12  15
HETATM   15  O   UNL     1      -7.526   4.999 -30.820  1.00  0.00    -0.342 OA
BRANCH  15  16
HETATM   16  C   UNL     1      -8.695   5.242 -30.046  1.00  0.00     0.280 C 
BRANCH  16  17
HETATM   17  C   UNL     1      -9.921   5.505 -30.918  1.00  0.00     0.260 C 
HETATM   18  N   UNL     1     -11.064   4.831 -30.535  1.00  0.00    -0.266 N 
HETATM   19  H   UNL     1     -10.986   4.046 -29.887  1.00  0.00     0.190 HD
HETATM   20  O   UNL     1      -9.877   6.241 -31.905  1.00  0.00    -0.269 OA
BRANCH  18  21
HETATM   21  N   UNL     1     -12.125   4.788 -31.450  1.00  0.00    -0.266 N 
HETATM   22  C   UNL     1     -13.410   4.945 -30.969  1.00  0.00     0.253 C 
HETATM   23  O   UNL     1     -13.657   5.401 -29.851  1.00  0.00    -0.270 OA
HETATM   24  H   UNL     1     -11.936   4.364 -32.360  1.00  0.00     0.190 HD
BRANCH  22  25
HETATM   25  C   UNL     1     -14.502   4.610 -31.980  1.00  0.00     0.227 C 
BRANCH  25  26
HETATM   26  N   UNL     1     -13.926   4.019 -33.169  1.00  0.00    -0.352 N 
HETATM   27  C   UNL     1     -13.898   2.651 -33.325  1.00  0.00     0.222 C 
HETATM   28  O   UNL     1     -14.381   1.893 -32.489  1.00  0.00    -0.273 OA
HETATM   29  H   UNL     1     -13.287   4.587 -33.713  1.00  0.00     0.162 HD
BRANCH  27  30
HETATM   30  C   UNL     1     -13.194   2.182 -34.603  1.00  0.00     0.078 C 
HETATM   31  C   UNL     1     -12.147   3.192 -35.096  1.00  0.00     0.014 C 
HETATM   32  C   UNL     1     -10.855   3.179 -34.280  1.00  0.00     0.001 C 
HETATM   33  C   UNL     1     -10.279   1.775 -34.144  1.00  0.00     0.000 C 
HETATM   34  C   UNL     1     -11.309   0.799 -33.588  1.00  0.00     0.001 C 
HETATM   35  C   UNL     1     -12.580   0.784 -34.437  1.00  0.00     0.014 C 
ENDBRANCH  27  30
ENDBRANCH  25  26
ENDBRANCH  22  25
ENDBRANCH  18  21
ENDBRANCH  16  17
ENDBRANCH  15  16
ENDBRANCH  12  15
ENDBRANCH   7   9
TORSDOF 8
ENDMDL
MODEL 10
REMARK VINA RESULT:      -8.4      3.085      4.633
REMARK  8 active torsions:
REMARK  status: ('A' for Active; 'I' for Inactive)
REMARK    1  A    between atoms: C_7  and  C_8 
REMARK    2  A    between atoms: C_11  and  O_12 
REMARK    3  A    between atoms: O_12  and  C_13 
REMARK    4  A    between atoms: C_13  and  C_14 
REMARK       I    between atoms: C_14  and  N_15 
REMARK    5  A    between atoms: N_15  and  N_16 
REMARK       I    between atoms: N_16  and  C_17 
REMARK    6  A    between atoms: C_17  and  C_18 
REMARK    7  A    between atoms: C_18  and  N_19 
REMARK       I    between atoms: N_19  and  C_20 
REMARK    8  A    between atoms: C_20  and  C_21 
ROOT
HETATM    1  C   UNL     1      -4.426  -2.080 -33.139  1.00  0.00     0.023 A 
HETATM    2  C   UNL     1      -4.755  -3.132 -33.997  1.00  0.00     0.044 A 
HETATM    3  C   UNL     1      -3.846  -4.226 -34.179  1.00  0.00     0.099 C 
HETATM    4  N   UNL     1      -3.109  -5.111 -34.327  1.00  0.00    -0.191 NA
HETATM    5  C   UNL     1      -5.974  -3.110 -34.677  1.00  0.00     0.023 A 
HETATM    6  C   UNL     1      -6.858  -2.039 -34.500  1.00  0.00     0.014 A 
HETATM    7  C   UNL     1      -6.548  -0.971 -33.640  1.00  0.00    -0.026 A 
HETATM    8  C   UNL     1      -5.316  -1.014 -32.963  1.00  0.00     0.014 A 
ENDROOT
BRANCH   7   9
HETATM    9  C   UNL     1      -7.480   0.158 -33.457  1.00  0.00    -0.026 A 
HETATM   10  C   UNL     1      -8.126   0.758 -34.548  1.00  0.00     0.015 A 
HETATM   11  C   UNL     1      -9.006   1.832 -34.369  1.00  0.00     0.037 A 
HETATM   12  C   UNL     1      -9.273   2.328 -33.092  1.00  0.00     0.069 A 
HETATM   13  C   UNL     1      -8.639   1.747 -31.996  1.00  0.00     0.037 A 
HETATM   14  C   UNL     1      -7.753   0.676 -32.179  1.00  0.00     0.015 A 
BRANCH  12  15
HETATM   15  O   UNL     1     -10.147   3.380 -33.052  1.00  0.00    -0.342 OA
BRANCH  15  16
HETATM   16  C   UNL     1      -9.769   4.547 -33.775  1.00  0.00     0.280 C 
BRANCH  16  17
HETATM   17  C   UNL     1      -8.383   5.049 -33.378  1.00  0.00     0.260 C 
HETATM   18  N   UNL     1      -8.251   5.410 -32.052  1.00  0.00    -0.266 N 
HETATM   19  H   UNL     1      -9.091   5.558 -31.489  1.00  0.00     0.190 HD
HETATM   20  O   UNL     1      -7.464   5.150 -34.193  1.00  0.00    -0.269 OA
BRANCH  18  21
HETATM   21  N   UNL     1      -7.117   6.152 -31.693  1.00  0.00    -0.266 N 
HETATM   22  C   UNL     1      -6.187   5.563 -30.860  1.00  0.00     0.253 C 
HETATM   23  O   UNL     1      -6.147   4.350 -30.650  1.00  0.00    -0.270 OA
HETATM   24  H   UNL     1      -7.167   7.164 -31.819  1.00  0.00     0.190 HD
BRANCH  22  25
HETATM   25  C   UNL     1      -5.142   6.528 -30.308  1.00  0.00     0.227 C 
BRANCH  25  26
HETATM   26  N   UNL     1      -3.809   6.083 -30.658  1.00  0.00    -0.352 N 
HETATM   27  C   UNL     1      -2.979   6.889 -31.408  1.00  0.00     0.222 C 
HETATM   28  O   UNL     1      -3.322   8.009 -31.774  1.00  0.00    -0.273 OA
HETATM   29  H   UNL     1      -3.620   5.089 -30.618  1.00  0.00     0.162 HD
BRANCH  27  30
HETATM   30  C   UNL     1      -1.631   6.247 -31.753  1.00  0.00     0.078 C 
HETATM   31  C   UNL     1      -1.746   4.731 -31.971  1.00  0.00     0.014 C 
HETATM   32  C   UNL     1      -2.363   4.354 -33.317  1.00  0.00     0.001 C 
HETATM   33  C   UNL     1      -1.669   5.052 -34.481  1.00  0.00     0.000 C 
HETATM   34  C   UNL     1      -1.624   6.562 -34.281  1.00  0.00     0.001 C 
HETATM   35  C   UNL     1      -0.963   6.932 -32.954  1.00  0.00     0.014 C 
ENDBRANCH  27  30
ENDBRANCH  25  26
ENDBRANCH  22  25
ENDBRANCH  18  21
ENDBRANCH  16  17
ENDBRANCH  15  16
ENDBRANCH  12  15
ENDBRANCH   7   9
TORSDOF 8
ENDMDL
