MODEL 1
REMARK VINA RESULT:      -9.6      0.000      0.000
REMARK  2 active torsions:
REMARK  status: ('A' for Active; 'I' for Inactive)
REMARK    1  A    between atoms: N_4  and  C_5 
REMARK    2  A    between atoms: C_15  and  C_16 
REMARK       I    between atoms: C_16  and  N_17 
ROOT
HETATM    1  C   UNL     1      -7.711   1.088 -34.971  1.00  0.00     0.073 C 
HETATM    2  C   UNL     1      -6.536   0.575 -34.225  1.00  0.00     0.069 C 
HETATM    3  N   UNL     1      -6.032  -0.638 -34.500  1.00  0.00    -0.170 NA
HETATM    4  N   UNL     1      -5.018  -0.817 -33.599  1.00  0.00    -0.216 N 
HETATM    5  C   UNL     1      -4.757   0.372 -32.940  1.00  0.00     0.145 C 
HETATM    6  C   UNL     1      -5.780   1.241 -33.244  1.00  0.00     0.087 C 
HETATM    7  N   UNL     1      -3.712   0.722 -32.155  1.00  0.00    -0.349 N 
HETATM    8  C   UNL     1      -3.672   2.020 -31.675  1.00  0.00     0.111 C 
HETATM    9  C   UNL     1      -4.639   2.946 -31.873  1.00  0.00     0.099 C 
HETATM   10  C   UNL     1      -5.869   2.554 -32.632  1.00  0.00     0.205 C 
HETATM   11  O   UNL     1      -6.865   3.260 -32.729  1.00  0.00    -0.286 OA
HETATM   12  H   UNL     1      -2.856   0.174 -32.073  1.00  0.00     0.167 HD
ENDROOT
BRANCH   9  13
HETATM   13  C   UNL     1      -4.411   4.261 -31.221  1.00  0.00     0.264 C 
HETATM   14  N   UNL     1      -3.704   5.241 -31.897  1.00  0.00    -0.309 N 
HETATM   15  C   UNL     1      -3.180   5.237 -33.295  1.00  0.00     0.093 C 
HETATM   16  C   UNL     1      -3.276   6.457 -31.301  1.00  0.00     0.044 A 
HETATM   17  C   UNL     1      -2.798   6.698 -33.622  1.00  0.00     0.066 C 
HETATM   18  C   UNL     1      -1.972   4.311 -33.448  1.00  0.00     0.033 C 
HETATM   19  C   UNL     1      -2.703   7.296 -32.258  1.00  0.00    -0.029 A 
HETATM   20  C   UNL     1      -2.193   8.543 -31.924  1.00  0.00     0.009 A 
HETATM   21  C   UNL     1      -2.241   8.941 -30.589  1.00  0.00     0.001 A 
HETATM   22  C   UNL     1      -2.808   8.103 -29.620  1.00  0.00     0.002 A 
HETATM   23  C   UNL     1      -3.335   6.856 -29.974  1.00  0.00     0.030 A 
HETATM   24  O   UNL     1      -4.807   4.374 -30.057  1.00  0.00    -0.267 OA
ENDBRANCH   9  13
BRANCH   4  25
HETATM   25  C   UNL     1      -4.429  -2.102 -33.428  1.00  0.00     0.060 A 
HETATM   26  C   UNL     1      -4.720  -3.118 -34.351  1.00  0.00     0.031 A 
HETATM   27  C   UNL     1      -4.178  -4.395 -34.188  1.00  0.00     0.002 A 
HETATM   28  C   UNL     1      -3.359  -4.672 -33.097  1.00  0.00     0.000 A 
HETATM   29  C   UNL     1      -3.083  -3.674 -32.163  1.00  0.00     0.002 A 
HETATM   30  C   UNL     1      -3.617  -2.393 -32.323  1.00  0.00     0.031 A 
ENDBRANCH   4  25
TORSDOF 2
ENDMDL
MODEL 2
REMARK VINA RESULT:      -9.5      3.406      7.898
REMARK  2 active torsions:
REMARK  status: ('A' for Active; 'I' for Inactive)
REMARK    1  A    between atoms: N_4  and  C_5 
REMARK    2  A    between atoms: C_15  and  C_16 
REMARK       I    between atoms: C_16  and  N_17 
ROOT
HETATM    1  C   UNL     1      -3.912  -0.039 -30.854  1.00  0.00     0.073 C 
HETATM    2  C   UNL     1      -4.043   1.246 -31.584  1.00  0.00     0.069 C 
HETATM    3  N   UNL     1      -2.968   2.021 -31.796  1.00  0.00    -0.170 NA
HETATM    4  N   UNL     1      -3.450   3.136 -32.426  1.00  0.00    -0.216 N 
HETATM    5  C   UNL     1      -4.766   2.933 -32.802  1.00  0.00     0.145 C 
HETATM    6  C   UNL     1      -5.196   1.782 -32.184  1.00  0.00     0.087 C 
HETATM    7  N   UNL     1      -5.555   3.650 -33.637  1.00  0.00    -0.349 N 
HETATM    8  C   UNL     1      -6.829   3.172 -33.891  1.00  0.00     0.111 C 
HETATM    9  C   UNL     1      -7.373   2.078 -33.309  1.00  0.00     0.099 C 
HETATM   10  C   UNL     1      -6.573   1.333 -32.286  1.00  0.00     0.205 C 
HETATM   11  O   UNL     1      -7.026   0.433 -31.588  1.00  0.00    -0.286 OA
HETATM   12  H   UNL     1      -5.207   4.385 -34.253  1.00  0.00     0.167 HD
ENDROOT
BRANCH   9  13
HETATM   13  C   UNL     1      -8.776   1.778 -33.692  1.00  0.00     0.264 C 
HETATM   14  N   UNL     1      -9.807   2.492 -33.107  1.00  0.00    -0.309 N 
HETATM   15  C   UNL     1      -9.743   3.653 -32.169  1.00  0.00     0.093 C 
HETATM   16  C   UNL     1     -11.181   2.165 -33.262  1.00  0.00     0.044 A 
HETATM   17  C   UNL     1     -11.163   4.259 -32.128  1.00  0.00     0.066 C 
HETATM   18  C   UNL     1      -9.291   3.230 -30.769  1.00  0.00     0.033 C 
HETATM   19  C   UNL     1     -11.986   3.136 -32.664  1.00  0.00    -0.029 A 
HETATM   20  C   UNL     1     -13.371   3.040 -32.668  1.00  0.00     0.009 A 
HETATM   21  C   UNL     1     -13.954   1.925 -33.269  1.00  0.00     0.001 A 
HETATM   22  C   UNL     1     -13.153   0.942 -33.865  1.00  0.00     0.002 A 
HETATM   23  C   UNL     1     -11.759   1.061 -33.869  1.00  0.00     0.030 A 
HETATM   24  O   UNL     1      -8.944   0.831 -34.467  1.00  0.00    -0.267 OA
ENDBRANCH   9  13
BRANCH   4  25
HETATM   25  C   UNL     1      -2.628   4.290 -32.570  1.00  0.00     0.060 A 
HETATM   26  C   UNL     1      -2.169   4.648 -33.847  1.00  0.00     0.031 A 
HETATM   27  C   UNL     1      -1.338   5.759 -34.011  1.00  0.00     0.002 A 
HETATM   28  C   UNL     1      -0.945   6.506 -32.904  1.00  0.00     0.000 A 
HETATM   29  C   UNL     1      -1.378   6.143 -31.629  1.00  0.00     0.002 A 
HETATM   30  C   UNL     1      -2.215   5.037 -31.459  1.00  0.00     0.031 A 
ENDBRANCH   4  25
TORSDOF 2
ENDMDL
MODEL 3
REMARK VINA RESULT:      -9.4      3.553      6.199
REMARK  2 active torsions:
REMARK  status: ('A' for Active; 'I' for Inactive)
REMARK    1  A    between atoms: N_4  and  C_5 
REMARK    2  A    between atoms: C_15  and  C_16 
REMARK       I    between atoms: C_16  and  N_17 
ROOT
HETATM    1  C   UNL     1      -3.290   2.940 -32.360  1.00  0.00     0.073 C 
HETATM    2  C   UNL     1      -4.063   1.674 -32.352  1.00  0.00     0.069 C 
HETATM    3  N   UNL     1      -3.433   0.492 -32.435  1.00  0.00    -0.170 NA
HETATM    4  N   UNL     1      -4.431  -0.444 -32.467  1.00  0.00    -0.216 N 
HETATM    5  C   UNL     1      -5.645   0.152 -32.169  1.00  0.00     0.145 C 
HETATM    6  C   UNL     1      -5.451   1.514 -32.198  1.00  0.00     0.087 C 
HETATM    7  N   UNL     1      -6.838  -0.409 -31.862  1.00  0.00    -0.349 N 
HETATM    8  C   UNL     1      -7.883   0.439 -31.535  1.00  0.00     0.111 C 
HETATM    9  C   UNL     1      -7.822   1.790 -31.570  1.00  0.00     0.099 C 
HETATM   10  C   UNL     1      -6.554   2.442 -32.027  1.00  0.00     0.205 C 
HETATM   11  O   UNL     1      -6.445   3.642 -32.248  1.00  0.00    -0.286 OA
HETATM   12  H   UNL     1      -6.961  -1.397 -31.644  1.00  0.00     0.167 HD
ENDROOT
BRANCH   9  13
HETATM   13  C   UNL     1      -9.081   2.499 -31.229  1.00  0.00     0.264 C 
HETATM   14  N   UNL     1     -10.116   2.527 -32.148  1.00  0.00    -0.309 N 
HETATM   15  C   UNL     1     -10.227   1.841 -33.470  1.00  0.00     0.093 C 
HETATM   16  C   UNL     1     -11.282   3.324 -31.999  1.00  0.00     0.044 A 
HETATM   17  C   UNL     1     -11.711   1.937 -33.887  1.00  0.00     0.066 C 
HETATM   18  C   UNL     1      -9.323   2.484 -34.524  1.00  0.00     0.033 C 
HETATM   19  C   UNL     1     -12.198   3.045 -33.014  1.00  0.00    -0.029 A 
HETATM   20  C   UNL     1     -13.418   3.704 -33.099  1.00  0.00     0.009 A 
HETATM   21  C   UNL     1     -13.707   4.683 -32.149  1.00  0.00     0.001 A 
HETATM   22  C   UNL     1     -12.790   4.975 -31.131  1.00  0.00     0.002 A 
HETATM   23  C   UNL     1     -11.572   4.290 -31.048  1.00  0.00     0.030 A 
HETATM   24  O   UNL     1      -9.097   3.104 -30.152  1.00  0.00    -0.267 OA
ENDBRANCH   9  13
BRANCH   4  25
HETATM   25  C   UNL     1      -4.139  -1.793 -32.814  1.00  0.00     0.060 A 
HETATM   26  C   UNL     1      -3.316  -2.555 -31.971  1.00  0.00     0.031 A 
HETATM   27  C   UNL     1      -2.991  -3.872 -32.305  1.00  0.00     0.002 A 
HETATM   28  C   UNL     1      -3.468  -4.430 -33.488  1.00  0.00     0.000 A 
HETATM   29  C   UNL     1      -4.267  -3.672 -34.343  1.00  0.00     0.002 A 
HETATM   30  C   UNL     1      -4.601  -2.356 -34.012  1.00  0.00     0.031 A 
ENDBRANCH   4  25
TORSDOF 2
ENDMDL
MODEL 4
REMARK VINA RESULT:      -9.3      2.343      8.534
REMARK  2 active torsions:
REMARK  status: ('A' for Active; 'I' for Inactive)
REMARK    1  A    between atoms: N_4  and  C_5 
REMARK    2  A    between atoms: C_15  and  C_16 
REMARK       I    between atoms: C_16  and  N_17 
ROOT
HETATM    1  C   UNL     1      -0.767   6.953 -33.444  1.00  0.00     0.073 C 
HETATM    2  C   UNL     1      -1.537   6.658 -32.210  1.00  0.00     0.069 C 
HETATM    3  N   UNL     1      -1.308   7.351 -31.084  1.00  0.00    -0.170 NA
HETATM    4  N   UNL     1      -2.127   6.787 -30.144  1.00  0.00    -0.216 N 
HETATM    5  C   UNL     1      -3.013   5.915 -30.754  1.00  0.00     0.145 C 
HETATM    6  C   UNL     1      -2.587   5.737 -32.050  1.00  0.00     0.087 C 
HETATM    7  N   UNL     1      -4.130   5.326 -30.266  1.00  0.00    -0.349 N 
HETATM    8  C   UNL     1      -4.876   4.543 -31.131  1.00  0.00     0.111 C 
HETATM    9  C   UNL     1      -4.533   4.263 -32.410  1.00  0.00     0.099 C 
HETATM   10  C   UNL     1      -3.239   4.796 -32.942  1.00  0.00     0.205 C 
HETATM   11  O   UNL     1      -2.761   4.473 -34.022  1.00  0.00    -0.286 OA
HETATM   12  H   UNL     1      -4.572   5.590 -29.386  1.00  0.00     0.167 HD
ENDROOT
BRANCH   9  13
HETATM   13  C   UNL     1      -5.458   3.358 -33.139  1.00  0.00     0.264 C 
HETATM   14  N   UNL     1      -5.476   2.010 -32.826  1.00  0.00    -0.309 N 
HETATM   15  C   UNL     1      -4.748   1.278 -31.747  1.00  0.00     0.093 C 
HETATM   16  C   UNL     1      -6.182   1.035 -33.580  1.00  0.00     0.044 A 
HETATM   17  C   UNL     1      -5.409  -0.115 -31.642  1.00  0.00     0.066 C 
HETATM   18  C   UNL     1      -3.254   1.150 -32.052  1.00  0.00     0.033 C 
HETATM   19  C   UNL     1      -6.118  -0.210 -32.952  1.00  0.00    -0.029 A 
HETATM   20  C   UNL     1      -6.721  -1.335 -33.497  1.00  0.00     0.009 A 
HETATM   21  C   UNL     1      -7.383  -1.204 -34.718  1.00  0.00     0.001 A 
HETATM   22  C   UNL     1      -7.445   0.040 -35.359  1.00  0.00     0.002 A 
HETATM   23  C   UNL     1      -6.848   1.169 -34.788  1.00  0.00     0.030 A 
HETATM   24  O   UNL     1      -6.111   3.863 -34.057  1.00  0.00    -0.267 OA
ENDBRANCH   9  13
BRANCH   4  25
HETATM   25  C   UNL     1      -1.960   7.100 -28.766  1.00  0.00     0.060 A 
HETATM   26  C   UNL     1      -0.775   6.721 -28.116  1.00  0.00     0.031 A 
HETATM   27  C   UNL     1      -0.599   6.991 -26.757  1.00  0.00     0.002 A 
HETATM   28  C   UNL     1      -1.608   7.621 -26.034  1.00  0.00     0.000 A 
HETATM   29  C   UNL     1      -2.798   7.981 -26.667  1.00  0.00     0.002 A 
HETATM   30  C   UNL     1      -2.977   7.719 -28.028  1.00  0.00     0.031 A 
ENDBRANCH   4  25
TORSDOF 2
ENDMDL
MODEL 5
REMARK VINA RESULT:      -9.2      3.122      8.077
REMARK  2 active torsions:
REMARK  status: ('A' for Active; 'I' for Inactive)
REMARK    1  A    between atoms: N_4  and  C_5 
REMARK    2  A    between atoms: C_15  and  C_16 
REMARK       I    between atoms: C_16  and  N_17 
ROOT
HETATM    1  C   UNL     1      -4.231   0.615 -30.826  1.00  0.00     0.073 C 
HETATM    2  C   UNL     1      -4.269   1.893 -31.579  1.00  0.00     0.069 C 
HETATM    3  N   UNL     1      -3.139   2.434 -32.058  1.00  0.00    -0.170 NA
HETATM    4  N   UNL     1      -3.522   3.617 -32.628  1.00  0.00    -0.216 N 
HETATM    5  C   UNL     1      -4.903   3.679 -32.701  1.00  0.00     0.145 C 
HETATM    6  C   UNL     1      -5.400   2.644 -31.944  1.00  0.00     0.087 C 
HETATM    7  N   UNL     1      -5.702   4.533 -33.384  1.00  0.00    -0.349 N 
HETATM    8  C   UNL     1      -7.069   4.317 -33.331  1.00  0.00     0.111 C 
HETATM    9  C   UNL     1      -7.672   3.360 -32.589  1.00  0.00     0.099 C 
HETATM   10  C   UNL     1      -6.826   2.479 -31.723  1.00  0.00     0.205 C 
HETATM   11  O   UNL     1      -7.278   1.696 -30.898  1.00  0.00    -0.286 OA
HETATM   12  H   UNL     1      -5.364   5.177 -34.098  1.00  0.00     0.167 HD
ENDROOT
BRANCH   9  13
HETATM   13  C   UNL     1      -9.156   3.345 -32.644  1.00  0.00     0.264 C 
HETATM   14  N   UNL     1      -9.811   2.172 -32.976  1.00  0.00    -0.309 N 
HETATM   15  C   UNL     1      -9.252   0.807 -33.209  1.00  0.00     0.093 C 
HETATM   16  C   UNL     1     -11.206   2.094 -33.234  1.00  0.00     0.044 A 
HETATM   17  C   UNL     1     -10.452  -0.165 -33.191  1.00  0.00     0.066 C 
HETATM   18  C   UNL     1      -8.499   0.719 -34.538  1.00  0.00     0.033 C 
HETATM   19  C   UNL     1     -11.597   0.766 -33.414  1.00  0.00    -0.029 A 
HETATM   20  C   UNL     1     -12.913   0.423 -33.692  1.00  0.00     0.009 A 
HETATM   21  C   UNL     1     -13.850   1.448 -33.816  1.00  0.00     0.001 A 
HETATM   22  C   UNL     1     -13.466   2.784 -33.644  1.00  0.00     0.002 A 
HETATM   23  C   UNL     1     -12.139   3.113 -33.345  1.00  0.00     0.030 A 
HETATM   24  O   UNL     1      -9.724   4.427 -32.465  1.00  0.00    -0.267 OA
ENDBRANCH   9  13
BRANCH   4  25
HETATM   25  C   UNL     1      -2.545   4.581 -33.007  1.00  0.00     0.060 A 
HETATM   26  C   UNL     1      -1.999   5.425 -32.028  1.00  0.00     0.031 A 
HETATM   27  C   UNL     1      -1.060   6.398 -32.380  1.00  0.00     0.002 A 
HETATM   28  C   UNL     1      -0.676   6.548 -33.710  1.00  0.00     0.000 A 
HETATM   29  C   UNL     1      -1.231   5.730 -34.692  1.00  0.00     0.002 A 
HETATM   30  C   UNL     1      -2.166   4.750 -34.346  1.00  0.00     0.031 A 
ENDBRANCH   4  25
TORSDOF 2
ENDMDL
MODEL 6
REMARK VINA RESULT:      -8.9      2.457      4.525
REMARK  2 active torsions:
REMARK  status: ('A' for Active; 'I' for Inactive)
REMARK    1  A    between atoms: N_4  and  C_5 
REMARK    2  A    between atoms: C_15  and  C_16 
REMARK       I    between atoms: C_16  and  N_17 
ROOT
HETATM    1  C   UNL     1      -5.476  -1.918 -33.774  1.00  0.00     0.073 C 
HETATM    2  C   UNL     1      -6.264  -0.693 -33.494  1.00  0.00     0.069 C 
HETATM    3  N   UNL     1      -7.604  -0.714 -33.572  1.00  0.00    -0.170 NA
HETATM    4  N   UNL     1      -7.997   0.573 -33.323  1.00  0.00    -0.216 N 
HETATM    5  C   UNL     1      -6.921   1.314 -32.866  1.00  0.00     0.145 C 
HETATM    6  C   UNL     1      -5.788   0.559 -33.069  1.00  0.00     0.087 C 
HETATM    7  N   UNL     1      -6.888   2.537 -32.286  1.00  0.00    -0.349 N 
HETATM    8  C   UNL     1      -5.661   3.015 -31.858  1.00  0.00     0.111 C 
HETATM    9  C   UNL     1      -4.479   2.382 -32.041  1.00  0.00     0.099 C 
HETATM   10  C   UNL     1      -4.464   1.086 -32.791  1.00  0.00     0.205 C 
HETATM   11  O   UNL     1      -3.440   0.516 -33.149  1.00  0.00    -0.286 OA
HETATM   12  H   UNL     1      -7.716   3.027 -31.950  1.00  0.00     0.167 HD
ENDROOT
BRANCH   9  13
HETATM   13  C   UNL     1      -3.280   3.105 -31.545  1.00  0.00     0.264 C 
HETATM   14  N   UNL     1      -3.052   4.406 -31.958  1.00  0.00    -0.309 N 
HETATM   15  C   UNL     1      -3.910   5.299 -32.793  1.00  0.00     0.093 C 
HETATM   16  C   UNL     1      -1.853   5.119 -31.692  1.00  0.00     0.044 A 
HETATM   17  C   UNL     1      -3.337   6.725 -32.636  1.00  0.00     0.066 C 
HETATM   18  C   UNL     1      -3.914   4.873 -34.263  1.00  0.00     0.033 C 
HETATM   19  C   UNL     1      -1.966   6.443 -32.118  1.00  0.00    -0.029 A 
HETATM   20  C   UNL     1      -0.921   7.347 -31.982  1.00  0.00     0.009 A 
HETATM   21  C   UNL     1       0.275   6.894 -31.424  1.00  0.00     0.001 A 
HETATM   22  C   UNL     1       0.400   5.565 -31.001  1.00  0.00     0.002 A 
HETATM   23  C   UNL     1      -0.669   4.670 -31.128  1.00  0.00     0.030 A 
HETATM   24  O   UNL     1      -2.499   2.456 -30.842  1.00  0.00    -0.267 OA
ENDBRANCH   9  13
BRANCH   4  25
HETATM   25  C   UNL     1      -9.338   0.976 -33.579  1.00  0.00     0.060 A 
HETATM   26  C   UNL     1     -10.394   0.157 -33.151  1.00  0.00     0.031 A 
HETATM   27  C   UNL     1     -11.717   0.517 -33.417  1.00  0.00     0.002 A 
HETATM   28  C   UNL     1     -11.995   1.682 -34.126  1.00  0.00     0.000 A 
HETATM   29  C   UNL     1     -10.951   2.489 -34.576  1.00  0.00     0.002 A 
HETATM   30  C   UNL     1      -9.625   2.139 -34.307  1.00  0.00     0.031 A 
ENDBRANCH   4  25
TORSDOF 2
ENDMDL
MODEL 7
REMARK VINA RESULT:      -8.9      4.303      6.725
REMARK  2 active torsions:
REMARK  status: ('A' for Active; 'I' for Inactive)
REMARK    1  A    between atoms: N_4  and  C_5 
REMARK    2  A    between atoms: C_15  and  C_16 
REMARK       I    between atoms: C_16  and  N_17 
ROOT
HETATM    1  C   UNL     1      -6.035   1.385 -29.942  1.00  0.00     0.073 C 
HETATM    2  C   UNL     1      -6.410   0.837 -31.268  1.00  0.00     0.069 C 
HETATM    3  N   UNL     1      -6.125  -0.436 -31.584  1.00  0.00    -0.170 NA
HETATM    4  N   UNL     1      -6.542  -0.585 -32.879  1.00  0.00    -0.216 N 
HETATM    5  C   UNL     1      -7.285   0.517 -33.265  1.00  0.00     0.145 C 
HETATM    6  C   UNL     1      -7.124   1.480 -32.295  1.00  0.00     0.087 C 
HETATM    7  N   UNL     1      -8.076   0.698 -34.348  1.00  0.00    -0.349 N 
HETATM    8  C   UNL     1      -8.767   1.894 -34.449  1.00  0.00     0.111 C 
HETATM    9  C   UNL     1      -8.655   2.926 -33.581  1.00  0.00     0.099 C 
HETATM   10  C   UNL     1      -7.693   2.807 -32.440  1.00  0.00     0.205 C 
HETATM   11  O   UNL     1      -7.398   3.735 -31.696  1.00  0.00    -0.286 OA
HETATM   12  H   UNL     1      -8.366  -0.055 -34.971  1.00  0.00     0.167 HD
ENDROOT
BRANCH   9  13
HETATM   13  C   UNL     1      -9.452   4.134 -33.914  1.00  0.00     0.264 C 
HETATM   14  N   UNL     1     -10.781   4.198 -33.532  1.00  0.00    -0.309 N 
HETATM   15  C   UNL     1     -11.576   3.240 -32.707  1.00  0.00     0.093 C 
HETATM   16  C   UNL     1     -11.675   5.217 -33.956  1.00  0.00     0.044 A 
HETATM   17  C   UNL     1     -12.873   3.980 -32.310  1.00  0.00     0.066 C 
HETATM   18  C   UNL     1     -11.896   1.955 -33.474  1.00  0.00     0.033 C 
HETATM   19  C   UNL     1     -12.906   5.088 -33.309  1.00  0.00    -0.029 A 
HETATM   20  C   UNL     1     -13.957   5.959 -33.560  1.00  0.00     0.009 A 
HETATM   21  C   UNL     1     -13.769   6.968 -34.504  1.00  0.00     0.001 A 
HETATM   22  C   UNL     1     -12.540   7.099 -35.164  1.00  0.00     0.002 A 
HETATM   23  C   UNL     1     -11.483   6.226 -34.887  1.00  0.00     0.030 A 
HETATM   24  O   UNL     1      -8.888   4.994 -34.598  1.00  0.00    -0.267 OA
ENDBRANCH   9  13
BRANCH   4  25
HETATM   25  C   UNL     1      -6.160  -1.735 -33.627  1.00  0.00     0.060 A 
HETATM   26  C   UNL     1      -4.797  -1.993 -33.840  1.00  0.00     0.031 A 
HETATM   27  C   UNL     1      -4.399  -3.098 -34.595  1.00  0.00     0.002 A 
HETATM   28  C   UNL     1      -5.354  -3.940 -35.158  1.00  0.00     0.000 A 
HETATM   29  C   UNL     1      -6.710  -3.678 -34.971  1.00  0.00     0.002 A 
HETATM   30  C   UNL     1      -7.116  -2.577 -34.211  1.00  0.00     0.031 A 
ENDBRANCH   4  25
TORSDOF 2
ENDMDL
MODEL 8
REMARK VINA RESULT:      -8.7      3.390      5.937
REMARK  2 active torsions:
REMARK  status: ('A' for Active; 'I' for Inactive)
REMARK    1  A    between atoms: N_4  and  C_5 
REMARK    2  A    between atoms: C_15  and  C_16 
REMARK       I    between atoms: C_16  and  N_17 
ROOT
HETATM    1  C   UNL     1      -7.725  -1.245 -33.409  1.00  0.00     0.073 C 
HETATM    2  C   UNL     1      -8.498   0.021 -33.437  1.00  0.00     0.069 C 
HETATM    3  N   UNL     1      -9.811   0.022 -33.161  1.00  0.00    -0.170 NA
HETATM    4  N   UNL     1     -10.214   1.318 -33.340  1.00  0.00    -0.216 N 
HETATM    5  C   UNL     1      -9.109   2.137 -33.493  1.00  0.00     0.145 C 
HETATM    6  C   UNL     1      -8.014   1.321 -33.666  1.00  0.00     0.087 C 
HETATM    7  N   UNL     1      -9.014   3.487 -33.462  1.00  0.00    -0.349 N 
HETATM    8  C   UNL     1      -7.753   4.047 -33.577  1.00  0.00     0.111 C 
HETATM    9  C   UNL     1      -6.614   3.349 -33.792  1.00  0.00     0.099 C 
HETATM   10  C   UNL     1      -6.700   1.863 -33.957  1.00  0.00     0.205 C 
HETATM   11  O   UNL     1      -5.761   1.160 -34.311  1.00  0.00    -0.286 OA
HETATM   12  H   UNL     1      -9.763   4.101 -33.146  1.00  0.00     0.167 HD
ENDROOT
BRANCH   9  13
HETATM   13  C   UNL     1      -5.379   4.162 -33.934  1.00  0.00     0.264 C 
HETATM   14  N   UNL     1      -4.371   4.036 -32.994  1.00  0.00    -0.309 N 
HETATM   15  C   UNL     1      -4.262   3.093 -31.841  1.00  0.00     0.093 C 
HETATM   16  C   UNL     1      -3.238   4.891 -32.935  1.00  0.00     0.044 A 
HETATM   17  C   UNL     1      -2.795   3.157 -31.362  1.00  0.00     0.066 C 
HETATM   18  C   UNL     1      -5.221   3.467 -30.708  1.00  0.00     0.033 C 
HETATM   19  C   UNL     1      -2.336   4.442 -31.968  1.00  0.00    -0.029 A 
HETATM   20  C   UNL     1      -1.150   5.114 -31.707  1.00  0.00     0.009 A 
HETATM   21  C   UNL     1      -0.881   6.281 -32.421  1.00  0.00     0.001 A 
HETATM   22  C   UNL     1      -1.784   6.744 -33.387  1.00  0.00     0.002 A 
HETATM   23  C   UNL     1      -2.967   6.045 -33.653  1.00  0.00     0.030 A 
HETATM   24  O   UNL     1      -5.362   4.978 -34.860  1.00  0.00    -0.267 OA
ENDBRANCH   9  13
BRANCH   4  25
HETATM   25  C   UNL     1     -11.600   1.639 -33.387  1.00  0.00     0.060 A 
HETATM   26  C   UNL     1     -12.020   2.919 -32.995  1.00  0.00     0.031 A 
HETATM   27  C   UNL     1     -13.377   3.249 -33.004  1.00  0.00     0.002 A 
HETATM   28  C   UNL     1     -14.323   2.301 -33.384  1.00  0.00     0.000 A 
HETATM   29  C   UNL     1     -13.916   1.020 -33.753  1.00  0.00     0.002 A 
HETATM   30  C   UNL     1     -12.559   0.685 -33.752  1.00  0.00     0.031 A 
ENDBRANCH   4  25
TORSDOF 2
ENDMDL
MODEL 9
REMARK VINA RESULT:      -8.6      4.454      6.200
REMARK  2 active torsions:
REMARK  status: ('A' for Active; 'I' for Inactive)
REMARK    1  A    between atoms: N_4  and  C_5 
REMARK    2  A    between atoms: C_15  and  C_16 
REMARK       I    between atoms: C_16  and  N_17 
ROOT
HETATM    1  C   UNL     1      -6.074   1.390 -29.721  1.00  0.00     0.073 C 
HETATM    2  C   UNL     1      -6.583   0.797 -30.982  1.00  0.00     0.069 C 
HETATM    3  N   UNL     1      -6.087  -0.364 -31.436  1.00  0.00    -0.170 NA
HETATM    4  N   UNL     1      -6.720  -0.582 -32.629  1.00  0.00    -0.216 N 
HETATM    5  C   UNL     1      -7.760   0.319 -32.782  1.00  0.00     0.145 C 
HETATM    6  C   UNL     1      -7.624   1.272 -31.799  1.00  0.00     0.087 C 
HETATM    7  N   UNL     1      -8.780   0.330 -33.672  1.00  0.00    -0.349 N 
HETATM    8  C   UNL     1      -9.732   1.328 -33.550  1.00  0.00     0.111 C 
HETATM    9  C   UNL     1      -9.679   2.339 -32.652  1.00  0.00     0.099 C 
HETATM   10  C   UNL     1      -8.499   2.429 -31.735  1.00  0.00     0.205 C 
HETATM   11  O   UNL     1      -8.275   3.384 -31.002  1.00  0.00    -0.286 OA
HETATM   12  H   UNL     1      -9.014  -0.457 -34.276  1.00  0.00     0.167 HD
ENDROOT
BRANCH   9  13
HETATM   13  C   UNL     1     -10.783   3.329 -32.734  1.00  0.00     0.264 C 
HETATM   14  N   UNL     1     -10.655   4.421 -33.577  1.00  0.00    -0.309 N 
HETATM   15  C   UNL     1      -9.570   4.744 -34.550  1.00  0.00     0.093 C 
HETATM   16  C   UNL     1     -11.563   5.513 -33.595  1.00  0.00     0.044 A 
HETATM   17  C   UNL     1     -10.116   5.873 -35.452  1.00  0.00     0.066 C 
HETATM   18  C   UNL     1      -8.285   5.183 -33.846  1.00  0.00     0.033 C 
HETATM   19  C   UNL     1     -11.248   6.394 -34.631  1.00  0.00    -0.029 A 
HETATM   20  C   UNL     1     -11.981   7.551 -34.854  1.00  0.00     0.009 A 
HETATM   21  C   UNL     1     -13.041   7.838 -33.994  1.00  0.00     0.001 A 
HETATM   22  C   UNL     1     -13.360   6.963 -32.947  1.00  0.00     0.002 A 
HETATM   23  C   UNL     1     -12.623   5.791 -32.746  1.00  0.00     0.030 A 
HETATM   24  O   UNL     1     -11.736   3.156 -31.968  1.00  0.00    -0.267 OA
ENDBRANCH   9  13
BRANCH   4  25
HETATM   25  C   UNL     1      -6.252  -1.591 -33.517  1.00  0.00     0.060 A 
HETATM   26  C   UNL     1      -7.177  -2.457 -34.120  1.00  0.00     0.031 A 
HETATM   27  C   UNL     1      -6.739  -3.474 -34.971  1.00  0.00     0.002 A 
HETATM   28  C   UNL     1      -5.379  -3.646 -35.212  1.00  0.00     0.000 A 
HETATM   29  C   UNL     1      -4.451  -2.805 -34.599  1.00  0.00     0.002 A 
HETATM   30  C   UNL     1      -4.883  -1.781 -33.750  1.00  0.00     0.031 A 
ENDBRANCH   4  25
TORSDOF 2
ENDMDL
MODEL 10
REMARK VINA RESULT:      -8.5      2.032      8.650
REMARK  2 active torsions:
REMARK  status: ('A' for Active; 'I' for Inactive)
REMARK    1  A    between atoms: N_4  and  C_5 
REMARK    2  A    between atoms: C_15  and  C_16 
REMARK       I    between atoms: C_16  and  N_17 
ROOT
HETATM    1  C   UNL     1      -1.935   7.083 -33.486  1.00  0.00     0.073 C 
HETATM    2  C   UNL     1      -2.662   6.670 -32.261  1.00  0.00     0.069 C 
HETATM    3  N   UNL     1      -3.049   7.585 -31.359  1.00  0.00    -0.170 NA
HETATM    4  N   UNL     1      -3.621   6.867 -30.344  1.00  0.00    -0.216 N 
HETATM    5  C   UNL     1      -3.791   5.550 -30.736  1.00  0.00     0.145 C 
HETATM    6  C   UNL     1      -3.092   5.378 -31.909  1.00  0.00     0.087 C 
HETATM    7  N   UNL     1      -4.512   4.557 -30.165  1.00  0.00    -0.349 N 
HETATM    8  C   UNL     1      -4.561   3.337 -30.819  1.00  0.00     0.111 C 
HETATM    9  C   UNL     1      -3.882   3.041 -31.951  1.00  0.00     0.099 C 
HETATM   10  C   UNL     1      -2.976   4.077 -32.541  1.00  0.00     0.205 C 
HETATM   11  O   UNL     1      -2.201   3.860 -33.464  1.00  0.00    -0.286 OA
HETATM   12  H   UNL     1      -5.187   4.705 -29.416  1.00  0.00     0.167 HD
ENDROOT
BRANCH   9  13
HETATM   13  C   UNL     1      -4.043   1.652 -32.451  1.00  0.00     0.264 C 
HETATM   14  N   UNL     1      -5.152   1.328 -33.213  1.00  0.00    -0.309 N 
HETATM   15  C   UNL     1      -6.236   2.214 -33.734  1.00  0.00     0.093 C 
HETATM   16  C   UNL     1      -5.494  -0.000 -33.584  1.00  0.00     0.044 A 
HETATM   17  C   UNL     1      -6.998   1.392 -34.797  1.00  0.00     0.066 C 
HETATM   18  C   UNL     1      -7.180   2.673 -32.621  1.00  0.00     0.033 C 
HETATM   19  C   UNL     1      -6.585  -0.000 -34.454  1.00  0.00    -0.029 A 
HETATM   20  C   UNL     1      -7.121  -1.179 -34.953  1.00  0.00     0.009 A 
HETATM   21  C   UNL     1      -6.557  -2.387 -34.543  1.00  0.00     0.001 A 
HETATM   22  C   UNL     1      -5.467  -2.397 -33.665  1.00  0.00     0.002 A 
HETATM   23  C   UNL     1      -4.925  -1.200 -33.184  1.00  0.00     0.030 A 
HETATM   24  O   UNL     1      -3.197   0.832 -32.079  1.00  0.00    -0.267 OA
ENDBRANCH   9  13
BRANCH   4  25
HETATM   25  C   UNL     1      -3.911   7.491 -29.098  1.00  0.00     0.060 A 
HETATM   26  C   UNL     1      -3.829   8.889 -28.996  1.00  0.00     0.031 A 
HETATM   27  C   UNL     1      -4.080   9.522 -27.777  1.00  0.00     0.002 A 
HETATM   28  C   UNL     1      -4.395   8.768 -26.650  1.00  0.00     0.000 A 
HETATM   29  C   UNL     1      -4.456   7.378 -26.737  1.00  0.00     0.002 A 
HETATM   30  C   UNL     1      -4.212   6.738 -27.955  1.00  0.00     0.031 A 
ENDBRANCH   4  25
TORSDOF 2
ENDMDL
