MODEL 1
REMARK VINA RESULT:     -10.0      0.000      0.000
REMARK  4 active torsions:
REMARK  status: ('A' for Active; 'I' for Inactive)
REMARK    1  A    between atoms: C_8  and  C_9 
REMARK    2  A    between atoms: C_12  and  N_13 
REMARK       I    between atoms: N_13  and  C_14 
REMARK    3  A    between atoms: C_14  and  C_15 
REMARK    4  A    between atoms: C_17  and  N_18 
ROOT
HETATM    1  C   UNL     1       0.079   6.992 -28.841  1.00  0.00     0.010 A 
HETATM    2  C   UNL     1       0.893   8.128 -28.921  1.00  0.00     0.017 A 
HETATM    3  C   UNL     1       1.602   8.584 -27.802  1.00  0.00     0.030 A 
HETATM    4  C   UNL     1       1.512   7.919 -26.580  1.00  0.00     0.035 A 
HETATM    5  C   UNL     1       0.640   6.831 -26.474  1.00  0.00     0.030 A 
HETATM    6  C   UNL     1      -0.066   6.371 -27.594  1.00  0.00     0.017 A 
ENDROOT
BRANCH   4   7
HETATM    7  N   UNL     1       2.293   8.249 -25.448  1.00  0.00    -0.323 N 
HETATM    8  C   UNL     1       2.223   9.427 -24.726  1.00  0.00     0.256 C 
HETATM    9  O   UNL     1       1.408  10.333 -24.856  1.00  0.00    -0.267 OA
HETATM   10  H   UNL     1       3.077   7.636 -25.259  1.00  0.00     0.169 HD
BRANCH   8  11
HETATM   11  C   UNL     1       3.328   9.635 -23.757  1.00  0.00     0.034 A 
HETATM   12  C   UNL     1       4.330   8.673 -23.555  1.00  0.00     0.047 A 
HETATM   13  C   UNL     1       5.366   8.888 -22.625  1.00  0.00     0.046 A 
HETATM   14  C   UNL     1       5.354  10.108 -21.924  1.00  0.00     0.030 A 
HETATM   15  C   UNL     1       4.350  11.064 -22.118  1.00  0.00     0.003 A 
HETATM   16  C   UNL     1       3.332  10.825 -23.028  1.00  0.00     0.017 A 
BRANCH  13  17
HETATM   17  N   UNL     1       6.381   7.906 -22.390  1.00  0.00    -0.252 N 
HETATM   18  C   UNL     1       6.293   6.900 -21.450  1.00  0.00     0.231 C 
HETATM   19  O   UNL     1       5.341   6.572 -20.755  1.00  0.00    -0.273 OA
HETATM   20  C   UNL     1       7.611   6.191 -21.368  1.00  0.00     0.113 C 
HETATM   21  C   UNL     1       8.313   6.598 -22.635  1.00  0.00     0.113 C 
HETATM   22  C   UNL     1       7.578   7.828 -23.074  1.00  0.00     0.231 C 
HETATM   23  O   UNL     1       8.043   8.576 -23.925  1.00  0.00    -0.273 OA
ENDBRANCH  13  17
ENDBRANCH   8  11
ENDBRANCH   4   7
BRANCH   1  24
HETATM   24  C   UNL     1      -0.576   6.421 -30.022  1.00  0.00     0.139 A 
HETATM   25  N   UNL     1      -1.089   5.142 -30.063  1.00  0.00    -0.338 N 
HETATM   26  C   UNL     1      -1.717   4.950 -31.265  1.00  0.00     0.063 A 
HETATM   27  H   UNL     1      -1.057   4.475 -29.308  1.00  0.00     0.167 HD
HETATM   28  C   UNL     1      -1.539   6.153 -31.934  1.00  0.00     0.086 A 
HETATM   29  C   UNL     1      -2.414   3.867 -31.798  1.00  0.00     0.032 A 
HETATM   30  C   UNL     1      -2.073   6.302 -33.223  1.00  0.00     0.040 A 
HETATM   31  N   UNL     1      -0.839   7.046 -31.157  1.00  0.00    -0.228 NA
HETATM   32  C   UNL     1      -2.775   5.228 -33.801  1.00  0.00    -0.060 A 
HETATM   33  C   UNL     1      -3.387   5.367 -35.165  1.00  0.00     0.048 C 
HETATM   34  C   UNL     1      -2.945   4.035 -33.082  1.00  0.00     0.009 A 
ENDBRANCH   1  24
TORSDOF 4
ENDMDL
MODEL 2
REMARK VINA RESULT:      -9.7      7.303     11.787
REMARK  4 active torsions:
REMARK  status: ('A' for Active; 'I' for Inactive)
REMARK    1  A    between atoms: C_8  and  C_9 
REMARK    2  A    between atoms: C_12  and  N_13 
REMARK       I    between atoms: N_13  and  C_14 
REMARK    3  A    between atoms: C_14  and  C_15 
REMARK    4  A    between atoms: C_17  and  N_18 
ROOT
HETATM    1  C   UNL     1      -9.285   2.944 -33.888  1.00  0.00     0.010 A 
HETATM    2  C   UNL     1      -8.325   1.932 -34.013  1.00  0.00     0.017 A 
HETATM    3  C   UNL     1      -6.957   2.233 -33.998  1.00  0.00     0.030 A 
HETATM    4  C   UNL     1      -6.517   3.549 -33.862  1.00  0.00     0.035 A 
HETATM    5  C   UNL     1      -7.471   4.571 -33.816  1.00  0.00     0.030 A 
HETATM    6  C   UNL     1      -8.840   4.271 -33.826  1.00  0.00     0.017 A 
ENDROOT
BRANCH   4   7
HETATM    7  N   UNL     1      -5.158   3.910 -33.716  1.00  0.00    -0.323 N 
HETATM    8  C   UNL     1      -4.421   3.851 -32.546  1.00  0.00     0.256 C 
HETATM    9  O   UNL     1      -4.766   3.373 -31.472  1.00  0.00    -0.267 OA
HETATM   10  H   UNL     1      -4.746   4.406 -34.498  1.00  0.00     0.169 HD
BRANCH   8  11
HETATM   11  C   UNL     1      -3.105   4.537 -32.599  1.00  0.00     0.034 A 
HETATM   12  C   UNL     1      -2.444   4.966 -31.437  1.00  0.00     0.047 A 
HETATM   13  C   UNL     1      -1.200   5.622 -31.512  1.00  0.00     0.046 A 
HETATM   14  C   UNL     1      -0.652   5.813 -32.794  1.00  0.00     0.030 A 
HETATM   15  C   UNL     1      -1.315   5.393 -33.953  1.00  0.00     0.003 A 
HETATM   16  C   UNL     1      -2.546   4.763 -33.857  1.00  0.00     0.017 A 
BRANCH  13  17
HETATM   17  N   UNL     1      -0.524   6.088 -30.338  1.00  0.00    -0.252 N 
HETATM   18  C   UNL     1      -0.690   7.341 -29.786  1.00  0.00     0.231 C 
HETATM   19  O   UNL     1      -1.493   8.216 -30.082  1.00  0.00    -0.273 OA
HETATM   20  C   UNL     1       0.311   7.527 -28.686  1.00  0.00     0.113 C 
HETATM   21  C   UNL     1       0.766   6.126 -28.379  1.00  0.00     0.113 C 
HETATM   22  C   UNL     1       0.375   5.346 -29.598  1.00  0.00     0.231 C 
HETATM   23  O   UNL     1       0.825   4.228 -29.807  1.00  0.00    -0.273 OA
ENDBRANCH  13  17
ENDBRANCH   8  11
ENDBRANCH   4   7
BRANCH   1  24
HETATM   24  C   UNL     1     -10.716   2.647 -33.776  1.00  0.00     0.139 A 
HETATM   25  N   UNL     1     -11.314   1.553 -34.364  1.00  0.00    -0.338 N 
HETATM   26  C   UNL     1     -12.631   1.509 -33.993  1.00  0.00     0.063 A 
HETATM   27  H   UNL     1     -10.844   0.863 -34.929  1.00  0.00     0.167 HD
HETATM   28  C   UNL     1     -12.791   2.625 -33.183  1.00  0.00     0.086 A 
HETATM   29  C   UNL     1     -13.657   0.609 -34.276  1.00  0.00     0.032 A 
HETATM   30  C   UNL     1     -14.049   2.884 -32.619  1.00  0.00     0.040 A 
HETATM   31  N   UNL     1     -11.606   3.311 -33.058  1.00  0.00    -0.228 NA
HETATM   32  C   UNL     1     -15.114   2.005 -32.889  1.00  0.00    -0.060 A 
HETATM   33  C   UNL     1     -16.464   2.236 -32.274  1.00  0.00     0.048 C 
HETATM   34  C   UNL     1     -14.904   0.880 -33.700  1.00  0.00     0.009 A 
ENDBRANCH   1  24
TORSDOF 4
ENDMDL
MODEL 3
REMARK VINA RESULT:      -9.7      6.752     13.799
REMARK  4 active torsions:
REMARK  status: ('A' for Active; 'I' for Inactive)
REMARK    1  A    between atoms: C_8  and  C_9 
REMARK    2  A    between atoms: C_12  and  N_13 
REMARK       I    between atoms: N_13  and  C_14 
REMARK    3  A    between atoms: C_14  and  C_15 
REMARK    4  A    between atoms: C_17  and  N_18 
ROOT
HETATM    1  C   UNL     1      -2.477   5.742 -30.819  1.00  0.00     0.010 A 
HETATM    2  C   UNL     1      -3.875   5.803 -30.802  1.00  0.00     0.017 A 
HETATM    3  C   UNL     1      -4.643   4.903 -31.553  1.00  0.00     0.030 A 
HETATM    4  C   UNL     1      -4.033   3.926 -32.338  1.00  0.00     0.035 A 
HETATM    5  C   UNL     1      -2.637   3.911 -32.420  1.00  0.00     0.030 A 
HETATM    6  C   UNL     1      -1.867   4.808 -31.667  1.00  0.00     0.017 A 
ENDROOT
BRANCH   4   7
HETATM    7  N   UNL     1      -4.743   2.912 -33.020  1.00  0.00    -0.323 N 
HETATM    8  C   UNL     1      -5.475   1.895 -32.433  1.00  0.00     0.256 C 
HETATM    9  O   UNL     1      -5.738   1.757 -31.244  1.00  0.00    -0.267 OA
HETATM   10  H   UNL     1      -4.559   2.836 -34.014  1.00  0.00     0.169 HD
BRANCH   8  11
HETATM   11  C   UNL     1      -5.896   0.812 -33.357  1.00  0.00     0.034 A 
HETATM   12  C   UNL     1      -5.348  -0.479 -33.288  1.00  0.00     0.047 A 
HETATM   13  C   UNL     1      -5.757  -1.490 -34.180  1.00  0.00     0.046 A 
HETATM   14  C   UNL     1      -6.741  -1.148 -35.127  1.00  0.00     0.030 A 
HETATM   15  C   UNL     1      -7.281   0.140 -35.202  1.00  0.00     0.003 A 
HETATM   16  C   UNL     1      -6.852   1.124 -34.323  1.00  0.00     0.017 A 
BRANCH  13  17
HETATM   17  N   UNL     1      -5.190  -2.804 -34.138  1.00  0.00    -0.252 N 
HETATM   18  C   UNL     1      -4.024  -3.132 -33.478  1.00  0.00     0.231 C 
HETATM   19  O   UNL     1      -3.341  -2.447 -32.728  1.00  0.00    -0.273 OA
HETATM   20  C   UNL     1      -3.655  -4.545 -33.811  1.00  0.00     0.113 C 
HETATM   21  C   UNL     1      -4.928  -5.124 -34.368  1.00  0.00     0.113 C 
HETATM   22  C   UNL     1      -5.736  -3.919 -34.743  1.00  0.00     0.231 C 
HETATM   23  O   UNL     1      -6.718  -4.013 -35.467  1.00  0.00    -0.273 OA
ENDBRANCH  13  17
ENDBRANCH   8  11
ENDBRANCH   4   7
BRANCH   1  24
HETATM   24  C   UNL     1      -1.652   6.589 -29.951  1.00  0.00     0.139 A 
HETATM   25  N   UNL     1      -2.019   7.857 -29.555  1.00  0.00    -0.338 N 
HETATM   26  C   UNL     1      -1.086   8.339 -28.677  1.00  0.00     0.063 A 
HETATM   27  H   UNL     1      -2.868   8.331 -29.823  1.00  0.00     0.167 HD
HETATM   28  C   UNL     1      -0.149   7.319 -28.586  1.00  0.00     0.086 A 
HETATM   29  C   UNL     1      -0.994   9.536 -27.968  1.00  0.00     0.032 A 
HETATM   30  C   UNL     1       0.964   7.487 -27.749  1.00  0.00     0.040 A 
HETATM   31  N   UNL     1      -0.513   6.251 -29.372  1.00  0.00    -0.228 NA
HETATM   32  C   UNL     1       1.099   8.686 -27.023  1.00  0.00    -0.060 A 
HETATM   33  C   UNL     1       2.261   8.883 -26.094  1.00  0.00     0.048 C 
HETATM   34  C   UNL     1       0.120   9.685 -27.133  1.00  0.00     0.009 A 
ENDBRANCH   1  24
TORSDOF 4
ENDMDL
MODEL 4
REMARK VINA RESULT:      -9.6      6.710     13.653
REMARK  4 active torsions:
REMARK  status: ('A' for Active; 'I' for Inactive)
REMARK    1  A    between atoms: C_8  and  C_9 
REMARK    2  A    between atoms: C_12  and  N_13 
REMARK       I    between atoms: N_13  and  C_14 
REMARK    3  A    between atoms: C_14  and  C_15 
REMARK    4  A    between atoms: C_17  and  N_18 
ROOT
HETATM    1  C   UNL     1      -2.567   5.840 -30.656  1.00  0.00     0.010 A 
HETATM    2  C   UNL     1      -3.959   5.927 -30.770  1.00  0.00     0.017 A 
HETATM    3  C   UNL     1      -4.676   5.004 -31.542  1.00  0.00     0.030 A 
HETATM    4  C   UNL     1      -4.020   3.978 -32.221  1.00  0.00     0.035 A 
HETATM    5  C   UNL     1      -2.623   3.933 -32.174  1.00  0.00     0.030 A 
HETATM    6  C   UNL     1      -1.905   4.853 -31.398  1.00  0.00     0.017 A 
ENDROOT
BRANCH   4   7
HETATM    7  N   UNL     1      -4.689   2.944 -32.914  1.00  0.00    -0.323 N 
HETATM    8  C   UNL     1      -5.401   1.905 -32.340  1.00  0.00     0.256 C 
HETATM    9  O   UNL     1      -5.678   1.759 -31.155  1.00  0.00    -0.267 OA
HETATM   10  H   UNL     1      -4.487   2.874 -33.905  1.00  0.00     0.169 HD
BRANCH   8  11
HETATM   11  C   UNL     1      -5.774   0.811 -33.270  1.00  0.00     0.034 A 
HETATM   12  C   UNL     1      -5.212  -0.472 -33.173  1.00  0.00     0.047 A 
HETATM   13  C   UNL     1      -5.576  -1.493 -34.072  1.00  0.00     0.046 A 
HETATM   14  C   UNL     1      -6.529  -1.171 -35.056  1.00  0.00     0.030 A 
HETATM   15  C   UNL     1      -7.083   0.110 -35.159  1.00  0.00     0.003 A 
HETATM   16  C   UNL     1      -6.699   1.104 -34.272  1.00  0.00     0.017 A 
BRANCH  13  17
HETATM   17  N   UNL     1      -4.994  -2.800 -34.001  1.00  0.00    -0.252 N 
HETATM   18  C   UNL     1      -5.446  -3.897 -34.705  1.00  0.00     0.231 C 
HETATM   19  O   UNL     1      -6.300  -3.956 -35.580  1.00  0.00    -0.273 OA
HETATM   20  C   UNL     1      -4.712  -5.116 -34.235  1.00  0.00     0.113 C 
HETATM   21  C   UNL     1      -3.513  -4.554 -33.519  1.00  0.00     0.113 C 
HETATM   22  C   UNL     1      -3.900  -3.136 -33.229  1.00  0.00     0.231 C 
HETATM   23  O   UNL     1      -3.272  -2.458 -32.425  1.00  0.00    -0.273 OA
ENDBRANCH  13  17
ENDBRANCH   8  11
ENDBRANCH   4   7
BRANCH   1  24
HETATM   24  C   UNL     1      -1.804   6.714 -29.759  1.00  0.00     0.139 A 
HETATM   25  N   UNL     1      -0.556   6.396 -29.268  1.00  0.00    -0.338 N 
HETATM   26  C   UNL     1      -0.077   7.455 -28.544  1.00  0.00     0.063 A 
HETATM   27  H   UNL     1      -0.052   5.545 -29.459  1.00  0.00     0.167 HD
HETATM   28  C   UNL     1      -1.094   8.397 -28.611  1.00  0.00     0.086 A 
HETATM   29  C   UNL     1       1.126   7.666 -27.872  1.00  0.00     0.032 A 
HETATM   30  C   UNL     1      -0.925   9.631 -27.964  1.00  0.00     0.040 A 
HETATM   31  N   UNL     1      -2.146   7.928 -29.362  1.00  0.00    -0.228 NA
HETATM   32  C   UNL     1       0.271   9.878 -27.265  1.00  0.00    -0.060 A 
HETATM   33  C   UNL     1       0.496  11.200 -26.589  1.00  0.00     0.048 C 
HETATM   34  C   UNL     1       1.280   8.904 -27.236  1.00  0.00     0.009 A 
ENDBRANCH   1  24
TORSDOF 4
ENDMDL
MODEL 5
REMARK VINA RESULT:      -9.4      3.960     11.989
REMARK  4 active torsions:
REMARK  status: ('A' for Active; 'I' for Inactive)
REMARK    1  A    between atoms: C_8  and  C_9 
REMARK    2  A    between atoms: C_12  and  N_13 
REMARK       I    between atoms: N_13  and  C_14 
REMARK    3  A    between atoms: C_14  and  C_15 
REMARK    4  A    between atoms: C_17  and  N_18 
ROOT
HETATM    1  C   UNL     1       1.223   8.098 -26.804  1.00  0.00     0.010 A 
HETATM    2  C   UNL     1       1.422   8.394 -28.157  1.00  0.00     0.017 A 
HETATM    3  C   UNL     1       0.733   7.695 -29.156  1.00  0.00     0.030 A 
HETATM    4  C   UNL     1      -0.166   6.682 -28.827  1.00  0.00     0.035 A 
HETATM    5  C   UNL     1      -0.311   6.328 -27.482  1.00  0.00     0.030 A 
HETATM    6  C   UNL     1       0.374   7.030 -26.481  1.00  0.00     0.017 A 
ENDROOT
BRANCH   4   7
HETATM    7  N   UNL     1      -0.984   6.022 -29.773  1.00  0.00    -0.323 N 
HETATM    8  C   UNL     1      -0.546   5.211 -30.805  1.00  0.00     0.256 C 
HETATM    9  O   UNL     1       0.599   4.827 -31.014  1.00  0.00    -0.267 OA
HETATM   10  H   UNL     1      -1.958   6.304 -29.787  1.00  0.00     0.169 HD
BRANCH   8  11
HETATM   11  C   UNL     1      -1.580   4.862 -31.811  1.00  0.00     0.034 A 
HETATM   12  C   UNL     1      -2.591   3.927 -31.543  1.00  0.00     0.047 A 
HETATM   13  C   UNL     1      -3.558   3.605 -32.515  1.00  0.00     0.046 A 
HETATM   14  C   UNL     1      -3.468   4.270 -33.753  1.00  0.00     0.030 A 
HETATM   15  C   UNL     1      -2.455   5.196 -34.024  1.00  0.00     0.003 A 
HETATM   16  C   UNL     1      -1.504   5.486 -33.056  1.00  0.00     0.017 A 
BRANCH  13  17
HETATM   17  N   UNL     1      -4.582   2.635 -32.266  1.00  0.00    -0.252 N 
HETATM   18  C   UNL     1      -4.403   1.270 -32.351  1.00  0.00     0.231 C 
HETATM   19  O   UNL     1      -3.370   0.634 -32.518  1.00  0.00    -0.273 OA
HETATM   20  C   UNL     1      -5.731   0.592 -32.206  1.00  0.00     0.113 C 
HETATM   21  C   UNL     1      -6.609   1.657 -31.605  1.00  0.00     0.113 C 
HETATM   22  C   UNL     1      -5.879   2.932 -31.899  1.00  0.00     0.231 C 
HETATM   23  O   UNL     1      -6.430   4.020 -31.788  1.00  0.00    -0.273 OA
ENDBRANCH  13  17
ENDBRANCH   8  11
ENDBRANCH   4   7
BRANCH   1  24
HETATM   24  C   UNL     1       1.835   8.893 -25.735  1.00  0.00     0.139 A 
HETATM   25  N   UNL     1       1.176   9.902 -25.066  1.00  0.00    -0.338 N 
HETATM   26  C   UNL     1       1.984  10.379 -24.069  1.00  0.00     0.063 A 
HETATM   27  H   UNL     1       0.230  10.201 -25.244  1.00  0.00     0.167 HD
HETATM   28  C   UNL     1       3.146   9.630 -24.188  1.00  0.00     0.086 A 
HETATM   29  C   UNL     1       1.796  11.360 -23.096  1.00  0.00     0.032 A 
HETATM   30  C   UNL     1       4.204   9.865 -23.297  1.00  0.00     0.040 A 
HETATM   31  N   UNL     1       3.037   8.721 -25.214  1.00  0.00    -0.228 NA
HETATM   32  C   UNL     1       4.058  10.855 -22.307  1.00  0.00    -0.060 A 
HETATM   33  C   UNL     1       5.159  11.109 -21.319  1.00  0.00     0.048 C 
HETATM   34  C   UNL     1       2.859  11.578 -22.213  1.00  0.00     0.009 A 
ENDBRANCH   1  24
TORSDOF 4
ENDMDL
MODEL 6
REMARK VINA RESULT:      -9.4      5.002      8.902
REMARK  4 active torsions:
REMARK  status: ('A' for Active; 'I' for Inactive)
REMARK    1  A    between atoms: C_8  and  C_9 
REMARK    2  A    between atoms: C_12  and  N_13 
REMARK       I    between atoms: N_13  and  C_14 
REMARK    3  A    between atoms: C_14  and  C_15 
REMARK    4  A    between atoms: C_17  and  N_18 
ROOT
HETATM    1  C   UNL     1      -4.616   1.668 -32.302  1.00  0.00     0.010 A 
HETATM    2  C   UNL     1      -5.660   2.598 -32.237  1.00  0.00     0.017 A 
HETATM    3  C   UNL     1      -5.447   3.884 -31.724  1.00  0.00     0.030 A 
HETATM    4  C   UNL     1      -4.189   4.268 -31.263  1.00  0.00     0.035 A 
HETATM    5  C   UNL     1      -3.162   3.319 -31.253  1.00  0.00     0.030 A 
HETATM    6  C   UNL     1      -3.373   2.033 -31.769  1.00  0.00     0.017 A 
ENDROOT
BRANCH   4   7
HETATM    7  N   UNL     1      -3.873   5.583 -30.850  1.00  0.00    -0.323 N 
HETATM    8  C   UNL     1      -3.069   6.480 -31.530  1.00  0.00     0.256 C 
HETATM    9  O   UNL     1      -2.589   6.348 -32.650  1.00  0.00    -0.267 OA
HETATM   10  H   UNL     1      -4.128   5.820 -29.897  1.00  0.00     0.169 HD
BRANCH   8  11
HETATM   11  C   UNL     1      -2.681   7.686 -30.757  1.00  0.00     0.034 A 
HETATM   12  C   UNL     1      -1.894   7.604 -29.597  1.00  0.00     0.047 A 
HETATM   13  C   UNL     1      -1.543   8.761 -28.875  1.00  0.00     0.046 A 
HETATM   14  C   UNL     1      -2.007   9.992 -29.374  1.00  0.00     0.030 A 
HETATM   15  C   UNL     1      -2.799  10.074 -30.525  1.00  0.00     0.003 A 
HETATM   16  C   UNL     1      -3.144   8.920 -31.212  1.00  0.00     0.017 A 
BRANCH  13  17
HETATM   17  N   UNL     1      -0.762   8.692 -27.677  1.00  0.00    -0.252 N 
HETATM   18  C   UNL     1      -1.261   8.889 -26.406  1.00  0.00     0.231 C 
HETATM   19  O   UNL     1      -2.421   9.026 -26.043  1.00  0.00    -0.273 OA
HETATM   20  C   UNL     1      -0.121   8.921 -25.433  1.00  0.00     0.113 C 
HETATM   21  C   UNL     1       1.017   8.300 -26.198  1.00  0.00     0.113 C 
HETATM   22  C   UNL     1       0.589   8.410 -27.630  1.00  0.00     0.231 C 
HETATM   23  O   UNL     1       1.385   8.245 -28.545  1.00  0.00    -0.273 OA
ENDBRANCH  13  17
ENDBRANCH   8  11
ENDBRANCH   4   7
BRANCH   1  24
HETATM   24  C   UNL     1      -4.779   0.360 -32.945  1.00  0.00     0.139 A 
HETATM   25  N   UNL     1      -3.865  -0.665 -32.826  1.00  0.00    -0.338 N 
HETATM   26  C   UNL     1      -4.353  -1.776 -33.459  1.00  0.00     0.063 A 
HETATM   27  H   UNL     1      -3.002  -0.621 -32.307  1.00  0.00     0.167 HD
HETATM   28  C   UNL     1      -5.576  -1.364 -33.969  1.00  0.00     0.086 A 
HETATM   29  C   UNL     1      -3.851  -3.068 -33.610  1.00  0.00     0.032 A 
HETATM   30  C   UNL     1      -6.359  -2.279 -34.689  1.00  0.00     0.040 A 
HETATM   31  N   UNL     1      -5.824  -0.051 -33.643  1.00  0.00    -0.228 NA
HETATM   32  C   UNL     1      -5.883  -3.591 -34.872  1.00  0.00    -0.060 A 
HETATM   33  C   UNL     1      -6.711  -4.603 -35.609  1.00  0.00     0.048 C 
HETATM   34  C   UNL     1      -4.648  -3.970 -34.325  1.00  0.00     0.009 A 
ENDBRANCH   1  24
TORSDOF 4
ENDMDL
MODEL 7
REMARK VINA RESULT:      -9.1      5.535      8.734
REMARK  4 active torsions:
REMARK  status: ('A' for Active; 'I' for Inactive)
REMARK    1  A    between atoms: C_8  and  C_9 
REMARK    2  A    between atoms: C_12  and  N_13 
REMARK       I    between atoms: N_13  and  C_14 
REMARK    3  A    between atoms: C_14  and  C_15 
REMARK    4  A    between atoms: C_17  and  N_18 
ROOT
HETATM    1  C   UNL     1      -4.129   2.337 -32.361  1.00  0.00     0.010 A 
HETATM    2  C   UNL     1      -3.039   2.944 -32.993  1.00  0.00     0.017 A 
HETATM    3  C   UNL     1      -2.441   4.091 -32.453  1.00  0.00     0.030 A 
HETATM    4  C   UNL     1      -2.920   4.657 -31.273  1.00  0.00     0.035 A 
HETATM    5  C   UNL     1      -4.058   4.101 -30.679  1.00  0.00     0.030 A 
HETATM    6  C   UNL     1      -4.654   2.952 -31.216  1.00  0.00     0.017 A 
ENDROOT
BRANCH   4   7
HETATM    7  N   UNL     1      -2.292   5.735 -30.608  1.00  0.00    -0.323 N 
HETATM    8  C   UNL     1      -0.974   5.775 -30.187  1.00  0.00     0.256 C 
HETATM    9  O   UNL     1      -0.095   4.951 -30.412  1.00  0.00    -0.267 OA
HETATM   10  H   UNL     1      -2.908   6.466 -30.272  1.00  0.00     0.169 HD
BRANCH   8  11
HETATM   11  C   UNL     1      -0.639   6.902 -29.282  1.00  0.00     0.034 A 
HETATM   12  C   UNL     1      -1.632   7.675 -28.658  1.00  0.00     0.047 A 
HETATM   13  C   UNL     1      -1.292   8.745 -27.809  1.00  0.00     0.046 A 
HETATM   14  C   UNL     1       0.079   8.993 -27.608  1.00  0.00     0.030 A 
HETATM   15  C   UNL     1       1.069   8.229 -28.236  1.00  0.00     0.003 A 
HETATM   16  C   UNL     1       0.711   7.189 -29.080  1.00  0.00     0.017 A 
BRANCH  13  17
HETATM   17  N   UNL     1      -2.292   9.558 -27.185  1.00  0.00    -0.252 N 
HETATM   18  C   UNL     1      -2.806   9.337 -25.924  1.00  0.00     0.231 C 
HETATM   19  O   UNL     1      -2.448   8.533 -25.074  1.00  0.00    -0.273 OA
HETATM   20  C   UNL     1      -3.953  10.273 -25.692  1.00  0.00     0.113 C 
HETATM   21  C   UNL     1      -3.772  11.327 -26.751  1.00  0.00     0.113 C 
HETATM   22  C   UNL     1      -2.870  10.675 -27.756  1.00  0.00     0.231 C 
HETATM   23  O   UNL     1      -2.725  11.144 -28.877  1.00  0.00    -0.273 OA
ENDBRANCH  13  17
ENDBRANCH   8  11
ENDBRANCH   4   7
BRANCH   1  24
HETATM   24  C   UNL     1      -4.696   1.071 -32.835  1.00  0.00     0.139 A 
HETATM   25  N   UNL     1      -6.008   0.927 -33.234  1.00  0.00    -0.338 N 
HETATM   26  C   UNL     1      -6.194  -0.343 -33.709  1.00  0.00     0.063 A 
HETATM   27  H   UNL     1      -6.703   1.656 -33.231  1.00  0.00     0.167 HD
HETATM   28  C   UNL     1      -4.953  -0.946 -33.557  1.00  0.00     0.086 A 
HETATM   29  C   UNL     1      -7.303  -0.989 -34.253  1.00  0.00     0.032 A 
HETATM   30  C   UNL     1      -4.789  -2.281 -33.959  1.00  0.00     0.040 A 
HETATM   31  N   UNL     1      -4.044  -0.064 -33.022  1.00  0.00    -0.228 NA
HETATM   32  C   UNL     1      -5.888  -2.971 -34.504  1.00  0.00    -0.060 A 
HETATM   33  C   UNL     1      -5.736  -4.390 -34.972  1.00  0.00     0.048 C 
HETATM   34  C   UNL     1      -7.121  -2.319 -34.653  1.00  0.00     0.009 A 
ENDBRANCH   1  24
TORSDOF 4
ENDMDL
MODEL 8
REMARK VINA RESULT:      -9.0      6.192      9.438
REMARK  4 active torsions:
REMARK  status: ('A' for Active; 'I' for Inactive)
REMARK    1  A    between atoms: C_8  and  C_9 
REMARK    2  A    between atoms: C_12  and  N_13 
REMARK       I    between atoms: N_13  and  C_14 
REMARK    3  A    between atoms: C_14  and  C_15 
REMARK    4  A    between atoms: C_17  and  N_18 
ROOT
HETATM    1  C   UNL     1      -4.750   1.471 -32.051  1.00  0.00     0.010 A 
HETATM    2  C   UNL     1      -5.854   2.253 -31.693  1.00  0.00     0.017 A 
HETATM    3  C   UNL     1      -5.683   3.518 -31.115  1.00  0.00     0.030 A 
HETATM    4  C   UNL     1      -4.408   4.028 -30.879  1.00  0.00     0.035 A 
HETATM    5  C   UNL     1      -3.302   3.220 -31.162  1.00  0.00     0.030 A 
HETATM    6  C   UNL     1      -3.471   1.956 -31.745  1.00  0.00     0.017 A 
ENDROOT
BRANCH   4   7
HETATM    7  N   UNL     1      -4.162   5.341 -30.416  1.00  0.00    -0.323 N 
HETATM    8  C   UNL     1      -3.252   6.236 -30.950  1.00  0.00     0.256 C 
HETATM    9  O   UNL     1      -2.591   6.104 -31.973  1.00  0.00    -0.267 OA
HETATM   10  H   UNL     1      -4.572   5.577 -29.519  1.00  0.00     0.169 HD
BRANCH   8  11
HETATM   11  C   UNL     1      -2.995   7.440 -30.120  1.00  0.00     0.034 A 
HETATM   12  C   UNL     1      -3.162   7.430 -28.726  1.00  0.00     0.047 A 
HETATM   13  C   UNL     1      -2.920   8.586 -27.959  1.00  0.00     0.046 A 
HETATM   14  C   UNL     1      -2.495   9.736 -28.650  1.00  0.00     0.030 A 
HETATM   15  C   UNL     1      -2.337   9.749 -30.040  1.00  0.00     0.003 A 
HETATM   16  C   UNL     1      -2.596   8.603 -30.777  1.00  0.00     0.017 A 
BRANCH  13  17
HETATM   17  N   UNL     1      -3.109   8.600 -26.539  1.00  0.00    -0.252 N 
HETATM   18  C   UNL     1      -4.335   8.506 -25.913  1.00  0.00     0.231 C 
HETATM   19  O   UNL     1      -5.435   8.274 -26.397  1.00  0.00    -0.273 OA
HETATM   20  C   UNL     1      -4.152   8.741 -24.444  1.00  0.00     0.113 C 
HETATM   21  C   UNL     1      -2.674   8.550 -24.234  1.00  0.00     0.113 C 
HETATM   22  C   UNL     1      -2.095   8.700 -25.608  1.00  0.00     0.231 C 
HETATM   23  O   UNL     1      -0.894   8.867 -25.776  1.00  0.00    -0.273 OA
ENDBRANCH  13  17
ENDBRANCH   8  11
ENDBRANCH   4   7
BRANCH   1  24
HETATM   24  C   UNL     1      -4.896   0.201 -32.768  1.00  0.00     0.139 A 
HETATM   25  N   UNL     1      -3.958  -0.809 -32.724  1.00  0.00    -0.338 N 
HETATM   26  C   UNL     1      -4.434  -1.892 -33.414  1.00  0.00     0.063 A 
HETATM   27  H   UNL     1      -3.088  -0.777 -32.217  1.00  0.00     0.167 HD
HETATM   28  C   UNL     1      -5.674  -1.476 -33.881  1.00  0.00     0.086 A 
HETATM   29  C   UNL     1      -3.908  -3.161 -33.650  1.00  0.00     0.032 A 
HETATM   30  C   UNL     1      -6.449  -2.365 -34.641  1.00  0.00     0.040 A 
HETATM   31  N   UNL     1      -5.943  -0.191 -33.473  1.00  0.00    -0.228 NA
HETATM   32  C   UNL     1      -5.949  -3.652 -34.909  1.00  0.00    -0.060 A 
HETATM   33  C   UNL     1      -6.768  -4.637 -35.692  1.00  0.00     0.048 C 
HETATM   34  C   UNL     1      -4.697  -4.036 -34.405  1.00  0.00     0.009 A 
ENDBRANCH   1  24
TORSDOF 4
ENDMDL
MODEL 9
REMARK VINA RESULT:      -8.9      4.351     12.071
REMARK  4 active torsions:
REMARK  status: ('A' for Active; 'I' for Inactive)
REMARK    1  A    between atoms: C_8  and  C_9 
REMARK    2  A    between atoms: C_12  and  N_13 
REMARK       I    between atoms: N_13  and  C_14 
REMARK    3  A    between atoms: C_14  and  C_15 
REMARK    4  A    between atoms: C_17  and  N_18 
ROOT
HETATM    1  C   UNL     1       0.460   7.967 -27.798  1.00  0.00     0.010 A 
HETATM    2  C   UNL     1      -0.608   8.588 -28.455  1.00  0.00     0.017 A 
HETATM    3  C   UNL     1      -1.398   7.882 -29.372  1.00  0.00     0.030 A 
HETATM    4  C   UNL     1      -1.136   6.543 -29.656  1.00  0.00     0.035 A 
HETATM    5  C   UNL     1      -0.022   5.939 -29.063  1.00  0.00     0.030 A 
HETATM    6  C   UNL     1       0.765   6.643 -28.142  1.00  0.00     0.017 A 
ENDROOT
BRANCH   4   7
HETATM    7  N   UNL     1      -1.963   5.738 -30.473  1.00  0.00    -0.323 N 
HETATM    8  C   UNL     1      -1.994   5.743 -31.857  1.00  0.00     0.256 C 
HETATM    9  O   UNL     1      -1.244   6.345 -32.616  1.00  0.00    -0.267 OA
HETATM   10  H   UNL     1      -2.705   5.240 -29.995  1.00  0.00     0.169 HD
BRANCH   8  11
HETATM   11  C   UNL     1      -3.133   5.007 -32.461  1.00  0.00     0.034 A 
HETATM   12  C   UNL     1      -3.605   3.799 -31.924  1.00  0.00     0.047 A 
HETATM   13  C   UNL     1      -4.683   3.114 -32.519  1.00  0.00     0.046 A 
HETATM   14  C   UNL     1      -5.264   3.700 -33.658  1.00  0.00     0.030 A 
HETATM   15  C   UNL     1      -4.788   4.900 -34.199  1.00  0.00     0.003 A 
HETATM   16  C   UNL     1      -3.716   5.550 -33.606  1.00  0.00     0.017 A 
BRANCH  13  17
HETATM   17  N   UNL     1      -5.161   1.868 -31.998  1.00  0.00    -0.252 N 
HETATM   18  C   UNL     1      -6.284   1.729 -31.209  1.00  0.00     0.231 C 
HETATM   19  O   UNL     1      -7.129   2.564 -30.913  1.00  0.00    -0.273 OA
HETATM   20  C   UNL     1      -6.359   0.318 -30.710  1.00  0.00     0.113 C 
HETATM   21  C   UNL     1      -5.428  -0.432 -31.624  1.00  0.00     0.113 C 
HETATM   22  C   UNL     1      -4.570   0.641 -32.222  1.00  0.00     0.231 C 
HETATM   23  O   UNL     1      -3.531   0.368 -32.810  1.00  0.00    -0.273 OA
ENDBRANCH  13  17
ENDBRANCH   8  11
ENDBRANCH   4   7
BRANCH   1  24
HETATM   24  C   UNL     1       1.225   8.643 -26.746  1.00  0.00     0.139 A 
HETATM   25  N   UNL     1       1.019   9.956 -26.381  1.00  0.00    -0.338 N 
HETATM   26  C   UNL     1       1.819  10.254 -25.311  1.00  0.00     0.063 A 
HETATM   27  H   UNL     1       0.345  10.580 -26.797  1.00  0.00     0.167 HD
HETATM   28  C   UNL     1       2.516   9.078 -25.073  1.00  0.00     0.086 A 
HETATM   29  C   UNL     1       1.976  11.411 -24.549  1.00  0.00     0.032 A 
HETATM   30  C   UNL     1       3.442   9.034 -24.019  1.00  0.00     0.040 A 
HETATM   31  N   UNL     1       2.138   8.098 -25.961  1.00  0.00    -0.228 NA
HETATM   32  C   UNL     1       3.637  10.184 -23.232  1.00  0.00    -0.060 A 
HETATM   33  C   UNL     1       4.596  10.160 -22.077  1.00  0.00     0.048 C 
HETATM   34  C   UNL     1       2.899  11.348 -23.498  1.00  0.00     0.009 A 
ENDBRANCH   1  24
TORSDOF 4
ENDMDL
MODEL 10
REMARK VINA RESULT:      -8.9      3.430     11.365
REMARK  4 active torsions:
REMARK  status: ('A' for Active; 'I' for Inactive)
REMARK    1  A    between atoms: C_8  and  C_9 
REMARK    2  A    between atoms: C_12  and  N_13 
REMARK       I    between atoms: N_13  and  C_14 
REMARK    3  A    between atoms: C_14  and  C_15 
REMARK    4  A    between atoms: C_17  and  N_18 
ROOT
HETATM    1  C   UNL     1       2.066   9.222 -25.354  1.00  0.00     0.010 A 
HETATM    2  C   UNL     1       1.326  10.351 -25.724  1.00  0.00     0.017 A 
HETATM    3  C   UNL     1       0.397  10.291 -26.770  1.00  0.00     0.030 A 
HETATM    4  C   UNL     1       0.188   9.105 -27.472  1.00  0.00     0.035 A 
HETATM    5  C   UNL     1       0.980   7.995 -27.159  1.00  0.00     0.030 A 
HETATM    6  C   UNL     1       1.907   8.053 -26.109  1.00  0.00     0.017 A 
ENDROOT
BRANCH   4   7
HETATM    7  N   UNL     1      -0.817   8.940 -28.453  1.00  0.00    -0.323 N 
HETATM    8  C   UNL     1      -2.180   8.882 -28.220  1.00  0.00     0.256 C 
HETATM    9  O   UNL     1      -2.763   9.078 -27.160  1.00  0.00    -0.267 OA
HETATM   10  H   UNL     1      -0.493   8.680 -29.377  1.00  0.00     0.169 HD
BRANCH   8  11
HETATM   11  C   UNL     1      -2.995   8.436 -29.377  1.00  0.00     0.034 A 
HETATM   12  C   UNL     1      -2.466   7.616 -30.386  1.00  0.00     0.047 A 
HETATM   13  C   UNL     1      -3.256   7.210 -31.480  1.00  0.00     0.046 A 
HETATM   14  C   UNL     1      -4.591   7.655 -31.505  1.00  0.00     0.030 A 
HETATM   15  C   UNL     1      -5.116   8.480 -30.504  1.00  0.00     0.003 A 
HETATM   16  C   UNL     1      -4.316   8.879 -29.444  1.00  0.00     0.017 A 
BRANCH  13  17
HETATM   17  N   UNL     1      -2.725   6.394 -32.530  1.00  0.00    -0.252 N 
HETATM   18  C   UNL     1      -2.833   5.020 -32.583  1.00  0.00     0.231 C 
HETATM   19  O   UNL     1      -3.474   4.266 -31.863  1.00  0.00    -0.273 OA
HETATM   20  C   UNL     1      -2.002   4.508 -33.720  1.00  0.00     0.113 C 
HETATM   21  C   UNL     1      -1.761   5.731 -34.563  1.00  0.00     0.113 C 
HETATM   22  C   UNL     1      -2.043   6.870 -33.632  1.00  0.00     0.231 C 
HETATM   23  O   UNL     1      -1.694   8.012 -33.902  1.00  0.00    -0.273 OA
ENDBRANCH  13  17
ENDBRANCH   8  11
ENDBRANCH   4   7
BRANCH   1  24
HETATM   24  C   UNL     1       2.953   9.222 -24.187  1.00  0.00     0.139 A 
HETATM   25  N   UNL     1       3.162   8.116 -23.390  1.00  0.00    -0.338 N 
HETATM   26  C   UNL     1       4.112   8.414 -22.451  1.00  0.00     0.063 A 
HETATM   27  H   UNL     1       2.728   7.215 -23.515  1.00  0.00     0.167 HD
HETATM   28  C   UNL     1       4.440   9.738 -22.710  1.00  0.00     0.086 A 
HETATM   29  C   UNL     1       4.703   7.658 -21.439  1.00  0.00     0.032 A 
HETATM   30  C   UNL     1       5.408  10.370 -21.915  1.00  0.00     0.040 A 
HETATM   31  N   UNL     1       3.722  10.218 -23.780  1.00  0.00    -0.228 NA
HETATM   32  C   UNL     1       6.021   9.644 -20.877  1.00  0.00    -0.060 A 
HETATM   33  C   UNL     1       7.084  10.281 -20.029  1.00  0.00     0.048 C 
HETATM   34  C   UNL     1       5.670   8.303 -20.659  1.00  0.00     0.009 A 
ENDBRANCH   1  24
TORSDOF 4
ENDMDL
