MODEL 1
REMARK VINA RESULT:      -8.8      0.000      0.000
REMARK  4 active torsions:
REMARK  status: ('A' for Active; 'I' for Inactive)
REMARK    1  A    between atoms: C_7  and  C_8 
REMARK    2  A    between atoms: C_8  and  N_9 
REMARK    3  A    between atoms: N_15  and  C_17 
REMARK    4  A    between atoms: C_21  and  C_22 
ROOT
HETATM    1  N   UNL     1      -5.136   4.825 -33.648  1.00  0.00    -0.067 N 
HETATM    2  H   UNL     1      -5.140   5.626 -34.296  1.00  0.00     0.280 HD
HETATM    3  C   UNL     1      -5.796   3.700 -34.391  1.00  0.00     0.236 C 
HETATM    4  C   UNL     1      -6.007   2.494 -33.477  1.00  0.00     0.039 C 
HETATM    5  C   UNL     1      -6.780   2.801 -32.163  1.00  0.00    -0.013 C 
HETATM    6  C   UNL     1      -8.291   3.043 -32.416  1.00  0.00     0.245 C 
HETATM    7  N   UNL     1      -8.998   1.765 -32.804  1.00  0.00    -0.065 N 
HETATM    8  H   UNL     1      -8.572   1.373 -33.655  1.00  0.00     0.280 HD
HETATM    9  C   UNL     1      -8.889   0.690 -31.725  1.00  0.00     0.244 C 
HETATM   10  C   UNL     1      -7.413   0.330 -31.478  1.00  0.00     0.045 C 
HETATM   11  C   UNL     1      -6.640   1.631 -31.138  1.00  0.00     0.022 C 
HETATM   12  C   UNL     1      -6.138   4.062 -31.504  1.00  0.00     0.039 C 
HETATM   13  C   UNL     1      -5.913   5.249 -32.440  1.00  0.00     0.236 C 
ENDROOT
BRANCH   7  14
HETATM   14  C   UNL     1     -10.441   2.022 -33.131  1.00  0.00     0.188 A 
HETATM   15  C   UNL     1     -10.868   1.775 -34.550  1.00  0.00     0.035 A 
HETATM   16  C   UNL     1     -11.289   0.828 -33.463  1.00  0.00     0.035 A 
ENDBRANCH   7  14
BRANCH  10  17
HETATM   17  C   UNL     1      -6.726  -0.524 -32.541  1.00  0.00    -0.052 A 
HETATM   18  C   UNL     1      -7.386  -1.062 -33.659  1.00  0.00     0.007 A 
HETATM   19  C   UNL     1      -6.698  -1.833 -34.602  1.00  0.00     0.001 A 
HETATM   20  C   UNL     1      -5.345  -2.107 -34.436  1.00  0.00     0.000 A 
HETATM   21  C   UNL     1      -4.683  -1.631 -33.312  1.00  0.00     0.001 A 
HETATM   22  C   UNL     1      -5.368  -0.859 -32.371  1.00  0.00     0.007 A 
ENDBRANCH  10  17
BRANCH   1  23
HETATM   23  C   UNL     1      -3.642   4.637 -33.387  1.00  0.00     0.277 C 
BRANCH  23  24
HETATM   24  C   UNL     1      -2.955   5.928 -33.153  1.00  0.00     0.011 A 
HETATM   25  C   UNL     1      -2.795   6.641 -31.971  1.00  0.00     0.035 A 
HETATM   26  C   UNL     1      -3.182   6.331 -30.569  1.00  0.00     0.070 C 
HETATM   27  N   UNL     1      -2.122   7.793 -32.318  1.00  0.00    -0.278 N 
HETATM   28  C   UNL     1      -1.688   8.880 -31.469  1.00  0.00     0.179 C 
HETATM   29  N   UNL     1      -1.866   7.867 -33.634  1.00  0.00    -0.185 NA
HETATM   30  C   UNL     1      -2.315   6.722 -34.130  1.00  0.00     0.149 A 
ENDBRANCH  23  24
ENDBRANCH   1  23
TORSDOF 4
ENDMDL
MODEL 2
REMARK VINA RESULT:      -8.3      2.781      7.656
REMARK  4 active torsions:
REMARK  status: ('A' for Active; 'I' for Inactive)
REMARK    1  A    between atoms: C_7  and  C_8 
REMARK    2  A    between atoms: C_8  and  N_9 
REMARK    3  A    between atoms: N_15  and  C_17 
REMARK    4  A    between atoms: C_21  and  C_22 
ROOT
HETATM    1  N   UNL     1      -5.297   0.323 -32.196  1.00  0.00    -0.067 N 
HETATM    2  H   UNL     1      -5.226  -0.446 -31.513  1.00  0.00     0.280 HD
HETATM    3  C   UNL     1      -4.436   1.427 -31.653  1.00  0.00     0.236 C 
HETATM    4  C   UNL     1      -4.588   2.696 -32.489  1.00  0.00     0.039 C 
HETATM    5  C   UNL     1      -6.052   3.189 -32.664  1.00  0.00    -0.013 C 
HETATM    6  C   UNL     1      -6.617   3.818 -31.363  1.00  0.00     0.245 C 
HETATM    7  N   UNL     1      -5.963   5.146 -31.062  1.00  0.00    -0.065 N 
HETATM    8  H   UNL     1      -4.946   5.022 -30.964  1.00  0.00     0.280 HD
HETATM    9  C   UNL     1      -6.173   6.164 -32.181  1.00  0.00     0.244 C 
HETATM   10  C   UNL     1      -5.557   5.647 -33.494  1.00  0.00     0.045 C 
HETATM   11  C   UNL     1      -6.160   4.252 -33.803  1.00  0.00     0.022 C 
HETATM   12  C   UNL     1      -6.929   1.971 -33.095  1.00  0.00     0.039 C 
HETATM   13  C   UNL     1      -6.744   0.704 -32.261  1.00  0.00     0.236 C 
ENDROOT
BRANCH   7  14
HETATM   14  C   UNL     1      -6.451   5.707 -29.757  1.00  0.00     0.188 A 
HETATM   15  C   UNL     1      -5.433   5.863 -28.664  1.00  0.00     0.035 A 
HETATM   16  C   UNL     1      -5.962   7.075 -29.377  1.00  0.00     0.035 A 
ENDBRANCH   7  14
BRANCH  10  17
HETATM   17  C   UNL     1      -4.035   5.689 -33.604  1.00  0.00    -0.052 A 
HETATM   18  C   UNL     1      -3.192   6.194 -32.599  1.00  0.00     0.007 A 
HETATM   19  C   UNL     1      -1.802   6.199 -32.758  1.00  0.00     0.001 A 
HETATM   20  C   UNL     1      -1.225   5.727 -33.931  1.00  0.00     0.000 A 
HETATM   21  C   UNL     1      -2.040   5.272 -34.960  1.00  0.00     0.001 A 
HETATM   22  C   UNL     1      -3.428   5.265 -34.802  1.00  0.00     0.007 A 
ENDBRANCH  10  17
BRANCH   1  23
HETATM   23  C   UNL     1      -4.774  -0.336 -33.472  1.00  0.00     0.277 C 
BRANCH  23  24
HETATM   24  C   UNL     1      -4.233  -1.690 -33.212  1.00  0.00     0.011 A 
HETATM   25  C   UNL     1      -4.455  -2.876 -33.902  1.00  0.00     0.035 A 
HETATM   26  C   UNL     1      -5.228  -3.172 -35.137  1.00  0.00     0.070 C 
HETATM   27  N   UNL     1      -3.750  -3.843 -33.218  1.00  0.00    -0.278 N 
HETATM   28  C   UNL     1      -3.625  -5.254 -33.514  1.00  0.00     0.179 C 
HETATM   29  N   UNL     1      -3.119  -3.357 -32.137  1.00  0.00    -0.185 NA
HETATM   30  C   UNL     1      -3.360  -2.053 -32.163  1.00  0.00     0.149 A 
ENDBRANCH  23  24
ENDBRANCH   1  23
TORSDOF 4
ENDMDL
MODEL 3
REMARK VINA RESULT:      -8.0      3.013      7.798
REMARK  4 active torsions:
REMARK  status: ('A' for Active; 'I' for Inactive)
REMARK    1  A    between atoms: C_7  and  C_8 
REMARK    2  A    between atoms: C_8  and  N_9 
REMARK    3  A    between atoms: N_15  and  C_17 
REMARK    4  A    between atoms: C_21  and  C_22 
ROOT
HETATM    1  N   UNL     1      -9.633   1.167 -34.334  1.00  0.00    -0.067 N 
HETATM    2  H   UNL     1      -9.984   0.574 -35.101  1.00  0.00     0.280 HD
HETATM    3  C   UNL     1      -8.173   1.370 -34.616  1.00  0.00     0.236 C 
HETATM    4  C   UNL     1      -7.491   2.096 -33.458  1.00  0.00     0.039 C 
HETATM    5  C   UNL     1      -7.684   1.428 -32.068  1.00  0.00    -0.013 C 
HETATM    6  C   UNL     1      -6.849   0.129 -31.921  1.00  0.00     0.245 C 
HETATM    7  N   UNL     1      -5.371   0.429 -31.826  1.00  0.00    -0.065 N 
HETATM    8  H   UNL     1      -5.063   0.937 -32.667  1.00  0.00     0.280 HD
HETATM    9  C   UNL     1      -5.034   1.317 -30.631  1.00  0.00     0.244 C 
HETATM   10  C   UNL     1      -5.761   2.670 -30.750  1.00  0.00     0.045 C 
HETATM   11  C   UNL     1      -7.280   2.398 -30.912  1.00  0.00     0.022 C 
HETATM   12  C   UNL     1      -9.202   1.112 -31.885  1.00  0.00     0.039 C 
HETATM   13  C   UNL     1      -9.871   0.408 -33.065  1.00  0.00     0.236 C 
ENDROOT
BRANCH   7  14
HETATM   14  C   UNL     1      -4.564  -0.836 -31.773  1.00  0.00     0.188 A 
HETATM   15  C   UNL     1      -3.747  -1.170 -32.989  1.00  0.00     0.035 A 
HETATM   16  C   UNL     1      -3.070  -0.690 -31.738  1.00  0.00     0.035 A 
ENDBRANCH   7  14
BRANCH  10  17
HETATM   17  C   UNL     1      -5.209   3.661 -31.771  1.00  0.00    -0.052 A 
HETATM   18  C   UNL     1      -4.010   3.469 -32.478  1.00  0.00     0.007 A 
HETATM   19  C   UNL     1      -3.560   4.414 -33.406  1.00  0.00     0.001 A 
HETATM   20  C   UNL     1      -4.280   5.582 -33.628  1.00  0.00     0.000 A 
HETATM   21  C   UNL     1      -5.441   5.819 -32.903  1.00  0.00     0.001 A 
HETATM   22  C   UNL     1      -5.892   4.875 -31.977  1.00  0.00     0.007 A 
ENDBRANCH  10  17
BRANCH   1  23
HETATM   23  C   UNL     1     -10.499   2.418 -34.478  1.00  0.00     0.277 C 
BRANCH  23  24
HETATM   24  C   UNL     1     -11.936   2.120 -34.281  1.00  0.00     0.011 A 
HETATM   25  C   UNL     1     -12.790   2.528 -33.263  1.00  0.00     0.035 A 
HETATM   26  C   UNL     1     -12.581   3.430 -32.099  1.00  0.00     0.070 C 
HETATM   27  N   UNL     1     -14.004   1.935 -33.533  1.00  0.00    -0.278 N 
HETATM   28  C   UNL     1     -15.246   2.035 -32.799  1.00  0.00     0.179 C 
HETATM   29  N   UNL     1     -13.972   1.167 -34.635  1.00  0.00    -0.185 NA
HETATM   30  C   UNL     1     -12.746   1.322 -35.118  1.00  0.00     0.149 A 
ENDBRANCH  23  24
ENDBRANCH   1  23
TORSDOF 4
ENDMDL
MODEL 4
REMARK VINA RESULT:      -7.7      2.354      8.481
REMARK  4 active torsions:
REMARK  status: ('A' for Active; 'I' for Inactive)
REMARK    1  A    between atoms: C_7  and  C_8 
REMARK    2  A    between atoms: C_8  and  N_9 
REMARK    3  A    between atoms: N_15  and  C_17 
REMARK    4  A    between atoms: C_21  and  C_22 
ROOT
HETATM    1  N   UNL     1      -5.121   3.576 -32.056  1.00  0.00    -0.067 N 
HETATM    2  H   UNL     1      -6.047   3.254 -31.735  1.00  0.00     0.280 HD
HETATM    3  C   UNL     1      -4.520   4.308 -30.892  1.00  0.00     0.236 C 
HETATM    4  C   UNL     1      -3.211   4.984 -31.292  1.00  0.00     0.039 C 
HETATM    5  C   UNL     1      -3.315   5.925 -32.526  1.00  0.00    -0.013 C 
HETATM    6  C   UNL     1      -4.052   7.248 -32.193  1.00  0.00     0.245 C 
HETATM    7  N   UNL     1      -3.218   8.136 -31.299  1.00  0.00    -0.065 N 
HETATM    8  H   UNL     1      -2.997   7.642 -30.423  1.00  0.00     0.280 HD
HETATM    9  C   UNL     1      -1.884   8.514 -31.937  1.00  0.00     0.244 C 
HETATM   10  C   UNL     1      -1.051   7.250 -32.219  1.00  0.00     0.045 C 
HETATM   11  C   UNL     1      -1.902   6.285 -33.085  1.00  0.00     0.022 C 
HETATM   12  C   UNL     1      -4.071   5.161 -33.659  1.00  0.00     0.039 C 
HETATM   13  C   UNL     1      -5.366   4.471 -33.232  1.00  0.00     0.236 C 
ENDROOT
BRANCH   7  14
HETATM   14  C   UNL     1      -3.972   9.375 -30.909  1.00  0.00     0.188 A 
HETATM   15  C   UNL     1      -4.119   9.644 -29.438  1.00  0.00     0.035 A 
HETATM   16  C   UNL     1      -3.185  10.479 -30.266  1.00  0.00     0.035 A 
ENDBRANCH   7  14
BRANCH  10  17
HETATM   17  C   UNL     1      -0.399   6.572 -31.017  1.00  0.00    -0.052 A 
HETATM   18  C   UNL     1      -0.429   7.096 -29.713  1.00  0.00     0.007 A 
HETATM   19  C   UNL     1       0.184   6.422 -28.650  1.00  0.00     0.001 A 
HETATM   20  C   UNL     1       0.862   5.229 -28.870  1.00  0.00     0.000 A 
HETATM   21  C   UNL     1       0.951   4.719 -30.159  1.00  0.00     0.001 A 
HETATM   22  C   UNL     1       0.339   5.390 -31.220  1.00  0.00     0.007 A 
ENDBRANCH  10  17
BRANCH   1  23
HETATM   23  C   UNL     1      -4.436   2.258 -32.415  1.00  0.00     0.277 C 
BRANCH  23  24
HETATM   24  C   UNL     1      -5.412   1.215 -32.804  1.00  0.00     0.011 A 
HETATM   25  C   UNL     1      -5.187  -0.074 -33.272  1.00  0.00     0.035 A 
HETATM   26  C   UNL     1      -3.933  -0.850 -33.469  1.00  0.00     0.070 C 
HETATM   27  N   UNL     1      -6.434  -0.603 -33.525  1.00  0.00    -0.278 N 
HETATM   28  C   UNL     1      -6.778  -1.920 -34.015  1.00  0.00     0.179 C 
HETATM   29  N   UNL     1      -7.426   0.266 -33.272  1.00  0.00    -0.185 NA
HETATM   30  C   UNL     1      -6.819   1.339 -32.784  1.00  0.00     0.149 A 
ENDBRANCH  23  24
ENDBRANCH   1  23
TORSDOF 4
ENDMDL
MODEL 5
REMARK VINA RESULT:      -7.7      1.708      2.239
REMARK  4 active torsions:
REMARK  status: ('A' for Active; 'I' for Inactive)
REMARK    1  A    between atoms: C_7  and  C_8 
REMARK    2  A    between atoms: C_8  and  N_9 
REMARK    3  A    between atoms: N_15  and  C_17 
REMARK    4  A    between atoms: C_21  and  C_22 
ROOT
HETATM    1  N   UNL     1      -4.148   5.062 -33.383  1.00  0.00    -0.067 N 
HETATM    2  H   UNL     1      -3.949   5.923 -33.914  1.00  0.00     0.280 HD
HETATM    3  C   UNL     1      -5.246   4.368 -34.134  1.00  0.00     0.236 C 
HETATM    4  C   UNL     1      -5.754   3.155 -33.357  1.00  0.00     0.039 C 
HETATM    5  C   UNL     1      -6.204   3.458 -31.900  1.00  0.00    -0.013 C 
HETATM    6  C   UNL     1      -7.553   4.222 -31.851  1.00  0.00     0.245 C 
HETATM    7  N   UNL     1      -8.705   3.338 -32.266  1.00  0.00    -0.065 N 
HETATM    8  H   UNL     1      -8.551   2.987 -33.222  1.00  0.00     0.280 HD
HETATM    9  C   UNL     1      -8.851   2.113 -31.368  1.00  0.00     0.244 C 
HETATM   10  C   UNL     1      -7.577   1.250 -31.432  1.00  0.00     0.045 C 
HETATM   11  C   UNL     1      -6.361   2.144 -31.071  1.00  0.00     0.022 C 
HETATM   12  C   UNL     1      -5.086   4.300 -31.209  1.00  0.00     0.039 C 
HETATM   13  C   UNL     1      -4.574   5.494 -32.014  1.00  0.00     0.236 C 
ENDROOT
BRANCH   7  14
HETATM   14  C   UNL     1      -9.994   4.108 -32.301  1.00  0.00     0.188 A 
HETATM   15  C   UNL     1     -10.691   4.205 -33.629  1.00  0.00     0.035 A 
HETATM   16  C   UNL     1     -11.251   3.324 -32.548  1.00  0.00     0.035 A 
ENDBRANCH   7  14
BRANCH  10  17
HETATM   17  C   UNL     1      -7.368   0.423 -32.698  1.00  0.00    -0.052 A 
HETATM   18  C   UNL     1      -6.382  -0.569 -32.830  1.00  0.00     0.007 A 
HETATM   19  C   UNL     1      -6.246  -1.298 -34.017  1.00  0.00     0.001 A 
HETATM   20  C   UNL     1      -7.070  -1.033 -35.104  1.00  0.00     0.000 A 
HETATM   21  C   UNL     1      -8.017  -0.021 -35.016  1.00  0.00     0.001 A 
HETATM   22  C   UNL     1      -8.155   0.705 -33.831  1.00  0.00     0.007 A 
ENDBRANCH  10  17
BRANCH   1  23
HETATM   23  C   UNL     1      -2.795   4.351 -33.413  1.00  0.00     0.277 C 
BRANCH  23  24
HETATM   24  C   UNL     1      -1.856   4.909 -32.413  1.00  0.00     0.011 A 
HETATM   25  C   UNL     1      -1.192   6.130 -32.410  1.00  0.00     0.035 A 
HETATM   26  C   UNL     1      -1.248   7.288 -33.342  1.00  0.00     0.070 C 
HETATM   27  N   UNL     1      -0.410   6.128 -31.276  1.00  0.00    -0.278 N 
HETATM   28  C   UNL     1       0.474   7.160 -30.781  1.00  0.00     0.179 C 
HETATM   29  N   UNL     1      -0.516   4.986 -30.575  1.00  0.00    -0.185 NA
HETATM   30  C   UNL     1      -1.428   4.275 -31.226  1.00  0.00     0.149 A 
ENDBRANCH  23  24
ENDBRANCH   1  23
TORSDOF 4
ENDMDL
MODEL 6
REMARK VINA RESULT:      -7.6      2.424      7.354
REMARK  4 active torsions:
REMARK  status: ('A' for Active; 'I' for Inactive)
REMARK    1  A    between atoms: C_7  and  C_8 
REMARK    2  A    between atoms: C_8  and  N_9 
REMARK    3  A    between atoms: N_15  and  C_17 
REMARK    4  A    between atoms: C_21  and  C_22 
ROOT
HETATM    1  N   UNL     1      -6.902   1.175 -32.865  1.00  0.00    -0.067 N 
HETATM    2  H   UNL     1      -7.192   0.286 -32.431  1.00  0.00     0.280 HD
HETATM    3  C   UNL     1      -5.838   1.735 -31.968  1.00  0.00     0.236 C 
HETATM    4  C   UNL     1      -5.438   3.142 -32.410  1.00  0.00     0.039 C 
HETATM    5  C   UNL     1      -6.620   4.144 -32.536  1.00  0.00    -0.013 C 
HETATM    6  C   UNL     1      -7.162   4.588 -31.152  1.00  0.00     0.245 C 
HETATM    7  N   UNL     1      -6.179   5.484 -30.435  1.00  0.00    -0.065 N 
HETATM    8  H   UNL     1      -5.285   4.990 -30.305  1.00  0.00     0.280 HD
HETATM    9  C   UNL     1      -5.868   6.753 -31.223  1.00  0.00     0.244 C 
HETATM   10  C   UNL     1      -5.241   6.396 -32.583  1.00  0.00     0.045 C 
HETATM   11  C   UNL     1      -6.196   5.424 -33.324  1.00  0.00     0.022 C 
HETATM   12  C   UNL     1      -7.755   3.459 -33.361  1.00  0.00     0.039 C 
HETATM   13  C   UNL     1      -8.122   2.043 -32.918  1.00  0.00     0.236 C 
ENDROOT
BRANCH   7  14
HETATM   14  C   UNL     1      -6.672   5.838 -29.060  1.00  0.00     0.188 A 
HETATM   15  C   UNL     1      -5.712   5.632 -27.923  1.00  0.00     0.035 A 
HETATM   16  C   UNL     1      -6.035   7.021 -28.392  1.00  0.00     0.035 A 
ENDBRANCH   7  14
BRANCH  10  17
HETATM   17  C   UNL     1      -3.788   5.927 -32.569  1.00  0.00    -0.052 A 
HETATM   18  C   UNL     1      -3.094   5.495 -33.713  1.00  0.00     0.007 A 
HETATM   19  C   UNL     1      -1.760   5.082 -33.634  1.00  0.00     0.001 A 
HETATM   20  C   UNL     1      -1.099   5.064 -32.412  1.00  0.00     0.000 A 
HETATM   21  C   UNL     1      -1.779   5.435 -31.259  1.00  0.00     0.001 A 
HETATM   22  C   UNL     1      -3.110   5.850 -31.336  1.00  0.00     0.007 A 
ENDBRANCH  10  17
BRANCH   1  23
HETATM   23  C   UNL     1      -6.413   0.712 -34.237  1.00  0.00     0.277 C 
BRANCH  23  24
HETATM   24  C   UNL     1      -6.023  -0.716 -34.232  1.00  0.00     0.011 A 
HETATM   25  C   UNL     1      -4.823  -1.301 -33.847  1.00  0.00     0.035 A 
HETATM   26  C   UNL     1      -3.584  -0.724 -33.261  1.00  0.00     0.070 C 
HETATM   27  N   UNL     1      -4.973  -2.651 -34.082  1.00  0.00    -0.278 N 
HETATM   28  C   UNL     1      -4.031  -3.723 -33.847  1.00  0.00     0.179 C 
HETATM   29  N   UNL     1      -6.171  -2.955 -34.607  1.00  0.00    -0.185 NA
HETATM   30  C   UNL     1      -6.826  -1.802 -34.644  1.00  0.00     0.149 A 
ENDBRANCH  23  24
ENDBRANCH   1  23
TORSDOF 4
ENDMDL
MODEL 7
REMARK VINA RESULT:      -7.2      2.587      8.089
REMARK  4 active torsions:
REMARK  status: ('A' for Active; 'I' for Inactive)
REMARK    1  A    between atoms: C_7  and  C_8 
REMARK    2  A    between atoms: C_8  and  N_9 
REMARK    3  A    between atoms: N_15  and  C_17 
REMARK    4  A    between atoms: C_21  and  C_22 
ROOT
HETATM    1  N   UNL     1      -5.682   2.538 -31.628  1.00  0.00    -0.067 N 
HETATM    2  H   UNL     1      -5.828   1.607 -31.210  1.00  0.00     0.280 HD
HETATM    3  C   UNL     1      -4.531   3.142 -30.879  1.00  0.00     0.236 C 
HETATM    4  C   UNL     1      -4.319   4.598 -31.289  1.00  0.00     0.039 C 
HETATM    5  C   UNL     1      -5.579   5.500 -31.162  1.00  0.00    -0.013 C 
HETATM    6  C   UNL     1      -5.918   5.826 -29.684  1.00  0.00     0.245 C 
HETATM    7  N   UNL     1      -4.903   6.766 -29.078  1.00  0.00    -0.065 N 
HETATM    8  H   UNL     1      -3.964   6.345 -29.124  1.00  0.00     0.280 HD
HETATM    9  C   UNL     1      -4.823   8.096 -29.824  1.00  0.00     0.244 C 
HETATM   10  C   UNL     1      -4.403   7.861 -31.287  1.00  0.00     0.045 C 
HETATM   11  C   UNL     1      -5.390   6.849 -31.925  1.00  0.00     0.022 C 
HETATM   12  C   UNL     1      -6.778   4.761 -31.836  1.00  0.00     0.039 C 
HETATM   13  C   UNL     1      -6.957   3.298 -31.431  1.00  0.00     0.236 C 
ENDROOT
BRANCH   7  14
HETATM   14  C   UNL     1      -5.188   7.008 -27.623  1.00  0.00     0.188 A 
HETATM   15  C   UNL     1      -4.043   6.824 -26.668  1.00  0.00     0.035 A 
HETATM   16  C   UNL     1      -4.539   8.204 -26.990  1.00  0.00     0.035 A 
ENDBRANCH   7  14
BRANCH  10  17
HETATM   17  C   UNL     1      -2.936   7.519 -31.535  1.00  0.00    -0.052 A 
HETATM   18  C   UNL     1      -2.403   7.234 -32.804  1.00  0.00     0.007 A 
HETATM   19  C   UNL     1      -1.046   6.933 -32.965  1.00  0.00     0.001 A 
HETATM   20  C   UNL     1      -0.200   6.881 -31.864  1.00  0.00     0.000 A 
HETATM   21  C   UNL     1      -0.714   7.106 -30.593  1.00  0.00     0.001 A 
HETATM   22  C   UNL     1      -2.068   7.409 -30.431  1.00  0.00     0.007 A 
ENDBRANCH  10  17
BRANCH   1  23
HETATM   23  C   UNL     1      -5.392   2.187 -33.087  1.00  0.00     0.277 C 
BRANCH  23  24
HETATM   24  C   UNL     1      -5.423   0.725 -33.321  1.00  0.00     0.011 A 
HETATM   25  C   UNL     1      -6.209  -0.010 -34.200  1.00  0.00     0.035 A 
HETATM   26  C   UNL     1      -7.204   0.407 -35.223  1.00  0.00     0.070 C 
HETATM   27  N   UNL     1      -5.875  -1.330 -33.986  1.00  0.00    -0.278 N 
HETATM   28  C   UNL     1      -6.384  -2.513 -34.643  1.00  0.00     0.179 C 
HETATM   29  N   UNL     1      -4.951  -1.480 -33.022  1.00  0.00    -0.185 NA
HETATM   30  C   UNL     1      -4.636  -0.243 -32.660  1.00  0.00     0.149 A 
ENDBRANCH  23  24
ENDBRANCH   1  23
TORSDOF 4
ENDMDL
MODEL 8
REMARK VINA RESULT:      -7.2      3.184      8.607
REMARK  4 active torsions:
REMARK  status: ('A' for Active; 'I' for Inactive)
REMARK    1  A    between atoms: C_7  and  C_8 
REMARK    2  A    between atoms: C_8  and  N_9 
REMARK    3  A    between atoms: N_15  and  C_17 
REMARK    4  A    between atoms: C_21  and  C_22 
ROOT
HETATM    1  N   UNL     1      -5.960   5.931 -30.868  1.00  0.00    -0.067 N 
HETATM    2  H   UNL     1      -6.812   5.427 -30.581  1.00  0.00     0.280 HD
HETATM    3  C   UNL     1      -4.914   5.569 -29.854  1.00  0.00     0.236 C 
HETATM    4  C   UNL     1      -3.642   6.386 -30.069  1.00  0.00     0.039 C 
HETATM    5  C   UNL     1      -3.855   7.926 -30.098  1.00  0.00    -0.013 C 
HETATM    6  C   UNL     1      -4.148   8.503 -28.688  1.00  0.00     0.245 C 
HETATM    7  N   UNL     1      -2.922   8.460 -27.807  1.00  0.00    -0.065 N 
HETATM    8  H   UNL     1      -2.592   7.489 -27.713  1.00  0.00     0.280 HD
HETATM    9  C   UNL     1      -1.760   9.262 -28.388  1.00  0.00     0.244 C 
HETATM   10  C   UNL     1      -1.350   8.691 -29.758  1.00  0.00     0.045 C 
HETATM   11  C   UNL     1      -2.603   8.661 -30.672  1.00  0.00     0.022 C 
HETATM   12  C   UNL     1      -5.045   8.235 -31.061  1.00  0.00     0.039 C 
HETATM   13  C   UNL     1      -6.299   7.390 -30.846  1.00  0.00     0.236 C 
ENDROOT
BRANCH   7  14
HETATM   14  C   UNL     1      -3.235   8.938 -26.418  1.00  0.00     0.188 A 
HETATM   15  C   UNL     1      -2.969   7.977 -25.294  1.00  0.00     0.035 A 
HETATM   16  C   UNL     1      -2.072   9.165 -25.496  1.00  0.00     0.035 A 
ENDBRANCH   7  14
BRANCH  10  17
HETATM   17  C   UNL     1      -0.572   7.377 -29.751  1.00  0.00    -0.052 A 
HETATM   18  C   UNL     1      -0.077   6.767 -28.586  1.00  0.00     0.007 A 
HETATM   19  C   UNL     1       0.625   5.558 -28.646  1.00  0.00     0.001 A 
HETATM   20  C   UNL     1       0.870   4.947 -29.869  1.00  0.00     0.000 A 
HETATM   21  C   UNL     1       0.437   5.556 -31.040  1.00  0.00     0.001 A 
HETATM   22  C   UNL     1      -0.265   6.763 -30.981  1.00  0.00     0.007 A 
ENDBRANCH  10  17
BRANCH   1  23
HETATM   23  C   UNL     1      -5.720   5.374 -32.271  1.00  0.00     0.277 C 
BRANCH  23  24
HETATM   24  C   UNL     1      -5.433   3.921 -32.247  1.00  0.00     0.011 A 
HETATM   25  C   UNL     1      -4.222   3.259 -32.411  1.00  0.00     0.035 A 
HETATM   26  C   UNL     1      -2.834   3.764 -32.589  1.00  0.00     0.070 C 
HETATM   27  N   UNL     1      -4.519   1.915 -32.345  1.00  0.00    -0.278 N 
HETATM   28  C   UNL     1      -3.625   0.782 -32.441  1.00  0.00     0.179 C 
HETATM   29  N   UNL     1      -5.831   1.682 -32.173  1.00  0.00    -0.185 NA
HETATM   30  C   UNL     1      -6.375   2.887 -32.056  1.00  0.00     0.149 A 
ENDBRANCH  23  24
ENDBRANCH   1  23
TORSDOF 4
ENDMDL
MODEL 9
REMARK VINA RESULT:      -7.1      3.175      6.355
REMARK  4 active torsions:
REMARK  status: ('A' for Active; 'I' for Inactive)
REMARK    1  A    between atoms: C_7  and  C_8 
REMARK    2  A    between atoms: C_8  and  N_9 
REMARK    3  A    between atoms: N_15  and  C_17 
REMARK    4  A    between atoms: C_21  and  C_22 
ROOT
HETATM    1  N   UNL     1     -10.164   2.120 -33.826  1.00  0.00    -0.067 N 
HETATM    2  H   UNL     1     -10.717   2.328 -34.670  1.00  0.00     0.280 HD
HETATM    3  C   UNL     1      -8.729   2.279 -34.233  1.00  0.00     0.236 C 
HETATM    4  C   UNL     1      -7.792   1.832 -33.112  1.00  0.00     0.039 C 
HETATM    5  C   UNL     1      -8.048   0.392 -32.585  1.00  0.00    -0.013 C 
HETATM    6  C   UNL     1      -7.577  -0.691 -33.591  1.00  0.00     0.245 C 
HETATM    7  N   UNL     1      -6.070  -0.745 -33.681  1.00  0.00    -0.065 N 
HETATM    8  H   UNL     1      -5.703   0.171 -33.974  1.00  0.00     0.280 HD
HETATM    9  C   UNL     1      -5.419  -1.067 -32.338  1.00  0.00     0.244 C 
HETATM   10  C   UNL     1      -5.770   0.017 -31.302  1.00  0.00     0.045 C 
HETATM   11  C   UNL     1      -7.315   0.145 -31.229  1.00  0.00     0.022 C 
HETATM   12  C   UNL     1      -9.577   0.238 -32.310  1.00  0.00     0.039 C 
HETATM   13  C   UNL     1     -10.497   0.713 -33.434  1.00  0.00     0.236 C 
ENDROOT
BRANCH   7  14
HETATM   14  C   UNL     1      -5.623  -1.733 -34.720  1.00  0.00     0.188 A 
HETATM   15  C   UNL     1      -4.746  -2.860 -34.251  1.00  0.00     0.035 A 
HETATM   16  C   UNL     1      -6.178  -3.125 -34.620  1.00  0.00     0.035 A 
ENDBRANCH   7  14
BRANCH  10  17
HETATM   17  C   UNL     1      -5.056   1.359 -31.441  1.00  0.00    -0.052 A 
HETATM   18  C   UNL     1      -3.974   1.583 -32.310  1.00  0.00     0.007 A 
HETATM   19  C   UNL     1      -3.365   2.839 -32.396  1.00  0.00     0.001 A 
HETATM   20  C   UNL     1      -3.802   3.890 -31.598  1.00  0.00     0.000 A 
HETATM   21  C   UNL     1      -4.834   3.680 -30.693  1.00  0.00     0.001 A 
HETATM   22  C   UNL     1      -5.445   2.426 -30.608  1.00  0.00     0.007 A 
ENDBRANCH  10  17
BRANCH   1  23
HETATM   23  C   UNL     1     -10.678   3.172 -32.844  1.00  0.00     0.277 C 
BRANCH  23  24
HETATM   24  C   UNL     1     -10.717   4.522 -33.451  1.00  0.00     0.011 A 
HETATM   25  C   UNL     1     -11.493   4.993 -34.504  1.00  0.00     0.035 A 
HETATM   26  C   UNL     1     -12.565   4.348 -35.309  1.00  0.00     0.070 C 
HETATM   27  N   UNL     1     -11.107   6.302 -34.697  1.00  0.00    -0.278 N 
HETATM   28  C   UNL     1     -11.604   7.262 -35.657  1.00  0.00     0.179 C 
HETATM   29  N   UNL     1     -10.130   6.682 -33.857  1.00  0.00    -0.185 NA
HETATM   30  C   UNL     1      -9.934   5.633 -33.069  1.00  0.00     0.149 A 
ENDBRANCH  23  24
ENDBRANCH   1  23
TORSDOF 4
ENDMDL
MODEL 10
REMARK VINA RESULT:      -7.1      3.426      7.088
REMARK  4 active torsions:
REMARK  status: ('A' for Active; 'I' for Inactive)
REMARK    1  A    between atoms: C_7  and  C_8 
REMARK    2  A    between atoms: C_8  and  N_9 
REMARK    3  A    between atoms: N_15  and  C_17 
REMARK    4  A    between atoms: C_21  and  C_22 
ROOT
HETATM    1  N   UNL     1      -5.108   0.918 -32.492  1.00  0.00    -0.067 N 
HETATM    2  H   UNL     1      -4.077   0.931 -32.512  1.00  0.00     0.280 HD
HETATM    3  C   UNL     1      -5.536   2.328 -32.776  1.00  0.00     0.236 C 
HETATM    4  C   UNL     1      -7.046   2.483 -32.608  1.00  0.00     0.039 C 
HETATM    5  C   UNL     1      -7.599   2.017 -31.231  1.00  0.00    -0.013 C 
HETATM    6  C   UNL     1      -7.236   3.004 -30.091  1.00  0.00     0.245 C 
HETATM    7  N   UNL     1      -8.002   4.300 -30.217  1.00  0.00    -0.065 N 
HETATM    8  H   UNL     1      -7.796   4.741 -31.124  1.00  0.00     0.280 HD
HETATM    9  C   UNL     1      -9.513   4.090 -30.165  1.00  0.00     0.244 C 
HETATM   10  C   UNL     1      -9.965   3.185 -31.326  1.00  0.00     0.045 C 
HETATM   11  C   UNL     1      -9.152   1.865 -31.266  1.00  0.00     0.022 C 
HETATM   12  C   UNL     1      -7.011   0.604 -30.923  1.00  0.00     0.039 C 
HETATM   13  C   UNL     1      -5.502   0.464 -31.121  1.00  0.00     0.236 C 
ENDROOT
BRANCH   7  14
HETATM   14  C   UNL     1      -7.582   5.283 -29.162  1.00  0.00     0.188 A 
HETATM   15  C   UNL     1      -7.165   6.647 -29.633  1.00  0.00     0.035 A 
HETATM   16  C   UNL     1      -8.481   6.464 -28.932  1.00  0.00     0.035 A 
ENDBRANCH   7  14
BRANCH  10  17
HETATM   17  C   UNL     1      -9.999   3.815 -32.717  1.00  0.00    -0.052 A 
HETATM   18  C   UNL     1      -9.548   5.116 -32.997  1.00  0.00     0.007 A 
HETATM   19  C   UNL     1      -9.600   5.634 -34.296  1.00  0.00     0.001 A 
HETATM   20  C   UNL     1     -10.127   4.877 -35.335  1.00  0.00     0.000 A 
HETATM   21  C   UNL     1     -10.628   3.608 -35.074  1.00  0.00     0.001 A 
HETATM   22  C   UNL     1     -10.575   3.089 -33.778  1.00  0.00     0.007 A 
ENDBRANCH  10  17
BRANCH   1  23
HETATM   23  C   UNL     1      -5.433  -0.090 -33.594  1.00  0.00     0.277 C 
BRANCH  23  24
HETATM   24  C   UNL     1      -4.701  -1.364 -33.411  1.00  0.00     0.011 A 
HETATM   25  C   UNL     1      -4.862  -2.577 -34.070  1.00  0.00     0.035 A 
HETATM   26  C   UNL     1      -5.745  -2.980 -35.197  1.00  0.00     0.070 C 
HETATM   27  N   UNL     1      -3.963  -3.442 -33.486  1.00  0.00    -0.278 N 
HETATM   28  C   UNL     1      -3.705  -4.830 -33.800  1.00  0.00     0.179 C 
HETATM   29  N   UNL     1      -3.263  -2.869 -32.493  1.00  0.00    -0.185 NA
HETATM   30  C   UNL     1      -3.663  -1.605 -32.484  1.00  0.00     0.149 A 
ENDBRANCH  23  24
ENDBRANCH   1  23
TORSDOF 4
ENDMDL
