MODEL 1
REMARK VINA RESULT:      -9.7      0.000      0.000
REMARK  8 active torsions:
REMARK  status: ('A' for Active; 'I' for Inactive)
REMARK    1  A    between atoms: C_2  and  C_3 
REMARK    2  A    between atoms: C_3  and  N_4 
REMARK    3  A    between atoms: N_7  and  C_8 
REMARK    4  A    between atoms: C_8  and  C_9 
REMARK       I    between atoms: C_9  and  N_10 
REMARK    5  A    between atoms: N_10  and  C_11 
REMARK    6  A    between atoms: C_24  and  C_25 
REMARK       I    between atoms: C_25  and  N_26 
REMARK    7  A    between atoms: N_26  and  C_27 
REMARK    8  A    between atoms: C_27  and  C_28 
ROOT
HETATM    1  N   UNL     1      -8.370   3.932 -32.546  1.00  0.00    -0.262 N 
HETATM    2  C   UNL     1      -7.932   3.167 -31.475  1.00  0.00     0.332 C 
HETATM    3  O   UNL     1      -8.709   2.589 -30.712  1.00  0.00    -0.246 OA
HETATM    4  N   UNL     1      -6.557   3.077 -31.286  1.00  0.00    -0.290 N 
HETATM    5  C   UNL     1      -5.639   3.874 -32.026  1.00  0.00     0.056 A 
HETATM    6  C   UNL     1      -6.117   4.714 -33.030  1.00  0.00     0.059 A 
HETATM    7  C   UNL     1      -7.556   4.738 -33.330  1.00  0.00     0.264 C 
HETATM    8  O   UNL     1      -7.964   5.462 -34.235  1.00  0.00    -0.267 OA
HETATM    9  C   UNL     1      -4.258   3.877 -31.757  1.00  0.00     0.048 A 
HETATM   10  C   UNL     1      -3.375   4.706 -32.468  1.00  0.00     0.034 A 
HETATM   11  C   UNL     1      -3.880   5.524 -33.484  1.00  0.00     0.018 A 
HETATM   12  C   UNL     1      -5.244   5.525 -33.769  1.00  0.00     0.020 A 
ENDROOT
BRANCH  10  13
HETATM   13  C   UNL     1      -1.923   4.824 -32.124  1.00  0.00     0.252 C 
HETATM   14  N   UNL     1      -1.588   4.887 -30.790  1.00  0.00    -0.353 N 
HETATM   15  H   UNL     1      -2.253   4.661 -30.065  1.00  0.00     0.163 HD
HETATM   16  O   UNL     1      -1.094   4.880 -33.025  1.00  0.00    -0.268 OA
BRANCH  14  17
HETATM   17  C   UNL     1      -0.227   5.108 -30.357  1.00  0.00     0.161 C 
BRANCH  17  18
HETATM   18  C   UNL     1      -0.144   6.273 -29.405  1.00  0.00    -0.038 A 
HETATM   19  C   UNL     1       0.726   6.232 -28.304  1.00  0.00     0.048 A 
HETATM   20  C   UNL     1       0.755   7.324 -27.462  1.00  0.00     0.105 A 
HETATM   21  C   UNL     1      -0.028   8.433 -27.682  1.00  0.00     0.105 A 
HETATM   22  O   UNL     1       1.525   7.444 -26.348  1.00  0.00    -0.323 OA
HETATM   23  O   UNL     1       0.149   9.388 -26.732  1.00  0.00    -0.323 OA
HETATM   24  C   UNL     1      -0.879   8.517 -28.761  1.00  0.00     0.040 A 
HETATM   25  C   UNL     1       1.121   8.748 -25.880  1.00  0.00     0.352 A 
HETATM   26  C   UNL     1      -0.932   7.425 -29.633  1.00  0.00     0.012 A 
ENDBRANCH  17  18
ENDBRANCH  14  17
ENDBRANCH  10  13
BRANCH   4  27
HETATM   27  C   UNL     1      -6.069   2.005 -30.407  1.00  0.00     0.237 C 
BRANCH  27  28
HETATM   28  C   UNL     1      -6.150   0.578 -30.950  1.00  0.00     0.240 C 
HETATM   29  N   UNL     1      -5.801   0.443 -32.280  1.00  0.00    -0.326 N 
HETATM   30  H   UNL     1      -5.497   1.287 -32.755  1.00  0.00     0.169 HD
HETATM   31  O   UNL     1      -6.446  -0.336 -30.182  1.00  0.00    -0.271 OA
BRANCH  29  32
HETATM   32  C   UNL     1      -5.797  -0.749 -33.037  1.00  0.00     0.034 A 
HETATM   33  C   UNL     1      -4.660  -1.536 -33.249  1.00  0.00     0.031 A 
HETATM   34  C   UNL     1      -4.729  -2.707 -34.011  1.00  0.00     0.021 A 
HETATM   35  C   UNL     1      -5.941  -3.102 -34.564  1.00  0.00     0.011 A 
HETATM   36 BR   UNL     1      -6.034  -4.683 -35.594  1.00  0.00    -0.051 Br
HETATM   37  C   UNL     1      -7.085  -2.334 -34.362  1.00  0.00     0.021 A 
HETATM   38  C   UNL     1      -7.011  -1.161 -33.600  1.00  0.00     0.031 A 
ENDBRANCH  29  32
ENDBRANCH  27  28
ENDBRANCH   4  27
BRANCH   1  39
HETATM   39  C   UNL     1      -9.787   3.889 -32.877  1.00  0.00     0.163 C 
BRANCH  39  40
HETATM   40  C   UNL     1     -10.083   2.918 -33.996  1.00  0.00    -0.017 C 
HETATM   41  C   UNL     1      -9.924   1.586 -34.018  1.00  0.00     0.008 C 
ENDBRANCH  39  40
ENDBRANCH   1  39
TORSDOF 8
ENDMDL
MODEL 2
REMARK VINA RESULT:      -9.7      4.149     10.263
REMARK  8 active torsions:
REMARK  status: ('A' for Active; 'I' for Inactive)
REMARK    1  A    between atoms: C_2  and  C_3 
REMARK    2  A    between atoms: C_3  and  N_4 
REMARK    3  A    between atoms: N_7  and  C_8 
REMARK    4  A    between atoms: C_8  and  C_9 
REMARK       I    between atoms: C_9  and  N_10 
REMARK    5  A    between atoms: N_10  and  C_11 
REMARK    6  A    between atoms: C_24  and  C_25 
REMARK       I    between atoms: C_25  and  N_26 
REMARK    7  A    between atoms: N_26  and  C_27 
REMARK    8  A    between atoms: C_27  and  C_28 
ROOT
HETATM    1  N   UNL     1      -4.169   7.160 -31.565  1.00  0.00    -0.262 N 
HETATM    2  C   UNL     1      -2.928   6.779 -32.056  1.00  0.00     0.332 C 
HETATM    3  O   UNL     1      -2.163   7.571 -32.607  1.00  0.00    -0.246 OA
HETATM    4  N   UNL     1      -2.575   5.443 -31.904  1.00  0.00    -0.290 N 
HETATM    5  C   UNL     1      -3.500   4.464 -31.444  1.00  0.00     0.056 A 
HETATM    6  C   UNL     1      -4.777   4.860 -31.054  1.00  0.00     0.059 A 
HETATM    7  C   UNL     1      -5.137   6.285 -31.092  1.00  0.00     0.264 C 
HETATM    8  O   UNL     1      -6.257   6.627 -30.720  1.00  0.00    -0.267 OA
HETATM    9  C   UNL     1      -3.187   3.093 -31.404  1.00  0.00     0.048 A 
HETATM   10  C   UNL     1      -4.130   2.137 -30.990  1.00  0.00     0.034 A 
HETATM   11  C   UNL     1      -5.399   2.566 -30.585  1.00  0.00     0.018 A 
HETATM   12  C   UNL     1      -5.721   3.921 -30.611  1.00  0.00     0.020 A 
ENDROOT
BRANCH  10  13
HETATM   13  C   UNL     1      -3.871   0.665 -31.053  1.00  0.00     0.252 C 
HETATM   14  N   UNL     1      -3.189   0.184 -32.149  1.00  0.00    -0.353 N 
HETATM   15  H   UNL     1      -2.704   0.801 -32.783  1.00  0.00     0.163 HD
HETATM   16  O   UNL     1      -4.283  -0.058 -30.152  1.00  0.00    -0.268 OA
BRANCH  14  17
HETATM   17  C   UNL     1      -2.981  -1.231 -32.355  1.00  0.00     0.161 C 
BRANCH  17  18
HETATM   18  C   UNL     1      -4.081  -1.822 -33.197  1.00  0.00    -0.038 A 
HETATM   19  C   UNL     1      -4.056  -3.181 -33.550  1.00  0.00     0.048 A 
HETATM   20  C   UNL     1      -5.086  -3.666 -34.328  1.00  0.00     0.105 A 
HETATM   21  C   UNL     1      -6.121  -2.863 -34.747  1.00  0.00     0.105 A 
HETATM   22  O   UNL     1      -5.210  -4.946 -34.769  1.00  0.00    -0.323 OA
HETATM   23  O   UNL     1      -7.023  -3.537 -35.508  1.00  0.00    -0.323 OA
HETATM   24  C   UNL     1      -6.189  -1.531 -34.406  1.00  0.00     0.040 A 
HETATM   25  C   UNL     1      -6.430  -4.852 -35.533  1.00  0.00     0.352 A 
HETATM   26  C   UNL     1      -5.159  -1.009 -33.618  1.00  0.00     0.012 A 
ENDBRANCH  17  18
ENDBRANCH  14  17
ENDBRANCH  10  13
BRANCH   4  27
HETATM   27  C   UNL     1      -1.156   5.099 -32.078  1.00  0.00     0.237 C 
BRANCH  27  28
HETATM   28  C   UNL     1      -0.225   5.403 -30.904  1.00  0.00     0.240 C 
HETATM   29  N   UNL     1      -0.696   6.356 -30.022  1.00  0.00    -0.326 N 
HETATM   30  H   UNL     1      -1.617   6.736 -30.217  1.00  0.00     0.169 HD
HETATM   31  O   UNL     1       0.816   4.758 -30.787  1.00  0.00    -0.271 OA
BRANCH  29  32
HETATM   32  C   UNL     1      -0.042   6.836 -28.866  1.00  0.00     0.034 A 
HETATM   33  C   UNL     1      -0.217   6.294 -27.588  1.00  0.00     0.031 A 
HETATM   34  C   UNL     1       0.465   6.821 -26.486  1.00  0.00     0.021 A 
HETATM   35  C   UNL     1       1.331   7.894 -26.656  1.00  0.00     0.011 A 
HETATM   36 BR   UNL     1       2.251   8.605 -25.167  1.00  0.00    -0.051 Br
HETATM   37  C   UNL     1       1.522   8.445 -27.921  1.00  0.00     0.021 A 
HETATM   38  C   UNL     1       0.836   7.916 -29.021  1.00  0.00     0.031 A 
ENDBRANCH  29  32
ENDBRANCH  27  28
ENDBRANCH   4  27
BRANCH   1  39
HETATM   39  C   UNL     1      -4.482   8.581 -31.541  1.00  0.00     0.163 C 
BRANCH  39  40
HETATM   40  C   UNL     1      -3.925   9.269 -30.316  1.00  0.00    -0.017 C 
HETATM   41  C   UNL     1      -2.821  10.022 -30.204  1.00  0.00     0.008 C 
ENDBRANCH  39  40
ENDBRANCH   1  39
TORSDOF 8
ENDMDL
MODEL 3
REMARK VINA RESULT:      -9.7      4.174     10.212
REMARK  8 active torsions:
REMARK  status: ('A' for Active; 'I' for Inactive)
REMARK    1  A    between atoms: C_2  and  C_3 
REMARK    2  A    between atoms: C_3  and  N_4 
REMARK    3  A    between atoms: N_7  and  C_8 
REMARK    4  A    between atoms: C_8  and  C_9 
REMARK       I    between atoms: C_9  and  N_10 
REMARK    5  A    between atoms: N_10  and  C_11 
REMARK    6  A    between atoms: C_24  and  C_25 
REMARK       I    between atoms: C_25  and  N_26 
REMARK    7  A    between atoms: N_26  and  C_27 
REMARK    8  A    between atoms: C_27  and  C_28 
ROOT
HETATM    1  N   UNL     1      -5.752   5.787 -30.166  1.00  0.00    -0.262 N 
HETATM    2  C   UNL     1      -4.630   6.075 -30.930  1.00  0.00     0.332 C 
HETATM    3  O   UNL     1      -4.344   7.221 -31.281  1.00  0.00    -0.246 OA
HETATM    4  N   UNL     1      -3.826   5.002 -31.298  1.00  0.00    -0.290 N 
HETATM    5  C   UNL     1      -4.219   3.652 -31.074  1.00  0.00     0.056 A 
HETATM    6  C   UNL     1      -5.405   3.389 -30.392  1.00  0.00     0.059 A 
HETATM    7  C   UNL     1      -6.214   4.508 -29.887  1.00  0.00     0.264 C 
HETATM    8  O   UNL     1      -7.245   4.265 -29.264  1.00  0.00    -0.267 OA
HETATM    9  C   UNL     1      -3.469   2.561 -31.550  1.00  0.00     0.048 A 
HETATM   10  C   UNL     1      -3.898   1.237 -31.359  1.00  0.00     0.034 A 
HETATM   11  C   UNL     1      -5.083   1.003 -30.654  1.00  0.00     0.018 A 
HETATM   12  C   UNL     1      -5.832   2.072 -30.167  1.00  0.00     0.020 A 
ENDROOT
BRANCH  10  13
HETATM   13  C   UNL     1      -3.190   0.063 -31.959  1.00  0.00     0.252 C 
HETATM   14  N   UNL     1      -3.416  -1.173 -31.395  1.00  0.00    -0.353 N 
HETATM   15  H   UNL     1      -4.172  -1.328 -30.745  1.00  0.00     0.163 HD
HETATM   16  O   UNL     1      -2.429   0.238 -32.904  1.00  0.00    -0.268 OA
BRANCH  14  17
HETATM   17  C   UNL     1      -2.702  -2.350 -31.832  1.00  0.00     0.161 C 
BRANCH  17  18
HETATM   18  C   UNL     1      -3.546  -3.182 -32.761  1.00  0.00    -0.038 A 
HETATM   19  C   UNL     1      -4.580  -2.590 -33.504  1.00  0.00     0.048 A 
HETATM   20  C   UNL     1      -5.326  -3.400 -34.334  1.00  0.00     0.105 A 
HETATM   21  C   UNL     1      -5.074  -4.747 -34.454  1.00  0.00     0.105 A 
HETATM   22  O   UNL     1      -6.367  -2.996 -35.110  1.00  0.00    -0.323 OA
HETATM   23  O   UNL     1      -5.928  -5.359 -35.317  1.00  0.00    -0.323 OA
HETATM   24  C   UNL     1      -4.057  -5.359 -33.756  1.00  0.00     0.040 A 
HETATM   25  C   UNL     1      -6.756  -4.247 -35.715  1.00  0.00     0.352 A 
HETATM   26  C   UNL     1      -3.283  -4.564 -32.905  1.00  0.00     0.012 A 
ENDBRANCH  17  18
ENDBRANCH  14  17
ENDBRANCH  10  13
BRANCH   4  27
HETATM   27  C   UNL     1      -2.473   5.310 -31.780  1.00  0.00     0.237 C 
BRANCH  27  28
HETATM   28  C   UNL     1      -1.391   5.509 -30.718  1.00  0.00     0.240 C 
HETATM   29  N   UNL     1      -1.621   6.556 -29.846  1.00  0.00    -0.326 N 
HETATM   30  H   UNL     1      -2.489   7.066 -29.972  1.00  0.00     0.169 HD
HETATM   31  O   UNL     1      -0.453   4.716 -30.667  1.00  0.00    -0.271 OA
BRANCH  29  32
HETATM   32  C   UNL     1      -0.787   6.971 -28.784  1.00  0.00     0.034 A 
HETATM   33  C   UNL     1      -1.064   6.729 -27.434  1.00  0.00     0.031 A 
HETATM   34  C   UNL     1      -0.192   7.170 -26.433  1.00  0.00     0.021 A 
HETATM   35  C   UNL     1       0.968   7.854 -26.777  1.00  0.00     0.011 A 
HETATM   36 BR   UNL     1       2.145   8.450 -25.424  1.00  0.00    -0.051 Br
HETATM   37  C   UNL     1       1.263   8.102 -28.115  1.00  0.00     0.021 A 
HETATM   38  C   UNL     1       0.386   7.661 -29.114  1.00  0.00     0.031 A 
ENDBRANCH  29  32
ENDBRANCH  27  28
ENDBRANCH   4  27
BRANCH   1  39
HETATM   39  C   UNL     1      -6.501   6.905 -29.612  1.00  0.00     0.163 C 
BRANCH  39  40
HETATM   40  C   UNL     1      -5.904   7.408 -28.318  1.00  0.00    -0.017 C 
HETATM   41  C   UNL     1      -5.248   6.720 -27.372  1.00  0.00     0.008 C 
ENDBRANCH  39  40
ENDBRANCH   1  39
TORSDOF 8
ENDMDL
MODEL 4
REMARK VINA RESULT:      -9.6      2.945      5.475
REMARK  8 active torsions:
REMARK  status: ('A' for Active; 'I' for Inactive)
REMARK    1  A    between atoms: C_2  and  C_3 
REMARK    2  A    between atoms: C_3  and  N_4 
REMARK    3  A    between atoms: N_7  and  C_8 
REMARK    4  A    between atoms: C_8  and  C_9 
REMARK       I    between atoms: C_9  and  N_10 
REMARK    5  A    between atoms: N_10  and  C_11 
REMARK    6  A    between atoms: C_24  and  C_25 
REMARK       I    between atoms: C_25  and  N_26 
REMARK    7  A    between atoms: N_26  and  C_27 
REMARK    8  A    between atoms: C_27  and  C_28 
ROOT
HETATM    1  N   UNL     1      -6.257  -1.106 -33.764  1.00  0.00    -0.262 N 
HETATM    2  C   UNL     1      -6.990  -0.133 -34.427  1.00  0.00     0.332 C 
HETATM    3  O   UNL     1      -7.865  -0.408 -35.250  1.00  0.00    -0.246 OA
HETATM    4  N   UNL     1      -6.693   1.192 -34.126  1.00  0.00    -0.290 N 
HETATM    5  C   UNL     1      -5.572   1.552 -33.327  1.00  0.00     0.056 A 
HETATM    6  C   UNL     1      -4.789   0.552 -32.756  1.00  0.00     0.059 A 
HETATM    7  C   UNL     1      -5.152  -0.858 -32.960  1.00  0.00     0.264 C 
HETATM    8  O   UNL     1      -4.472  -1.733 -32.431  1.00  0.00    -0.267 OA
HETATM    9  C   UNL     1      -5.195   2.893 -33.119  1.00  0.00     0.048 A 
HETATM   10  C   UNL     1      -4.057   3.225 -32.366  1.00  0.00     0.034 A 
HETATM   11  C   UNL     1      -3.301   2.200 -31.788  1.00  0.00     0.018 A 
HETATM   12  C   UNL     1      -3.667   0.869 -31.976  1.00  0.00     0.020 A 
ENDROOT
BRANCH  10  13
HETATM   13  C   UNL     1      -3.560   4.630 -32.229  1.00  0.00     0.252 C 
HETATM   14  N   UNL     1      -2.325   4.923 -32.762  1.00  0.00    -0.353 N 
HETATM   15  H   UNL     1      -1.857   4.290 -33.393  1.00  0.00     0.163 HD
HETATM   16  O   UNL     1      -4.248   5.457 -31.640  1.00  0.00    -0.268 OA
BRANCH  14  17
HETATM   17  C   UNL     1      -1.711   6.220 -32.591  1.00  0.00     0.161 C 
BRANCH  17  18
HETATM   18  C   UNL     1      -0.956   6.294 -31.290  1.00  0.00    -0.038 A 
HETATM   19  C   UNL     1      -0.990   7.462 -30.512  1.00  0.00     0.048 A 
HETATM   20  C   UNL     1      -0.275   7.475 -29.334  1.00  0.00     0.105 A 
HETATM   21  C   UNL     1       0.447   6.384 -28.908  1.00  0.00     0.105 A 
HETATM   22  O   UNL     1      -0.187   8.524 -28.471  1.00  0.00    -0.323 OA
HETATM   23  O   UNL     1       1.082   6.611 -27.728  1.00  0.00    -0.323 OA
HETATM   24  C   UNL     1       0.488   5.215 -29.635  1.00  0.00     0.040 A 
HETATM   25  C   UNL     1       0.690   7.975 -27.466  1.00  0.00     0.352 A 
HETATM   26  C   UNL     1      -0.226   5.171 -30.835  1.00  0.00     0.012 A 
ENDBRANCH  17  18
ENDBRANCH  14  17
ENDBRANCH  10  13
BRANCH   4  27
HETATM   27  C   UNL     1      -7.676   2.208 -34.526  1.00  0.00     0.237 C 
BRANCH  27  28
HETATM   28  C   UNL     1      -8.982   2.254 -33.732  1.00  0.00     0.240 C 
HETATM   29  N   UNL     1     -10.118   1.985 -34.470  1.00  0.00    -0.326 N 
HETATM   30  H   UNL     1      -9.978   1.755 -35.448  1.00  0.00     0.169 HD
HETATM   31  O   UNL     1      -8.935   2.456 -32.519  1.00  0.00    -0.271 OA
BRANCH  29  32
HETATM   32  C   UNL     1     -11.450   1.972 -33.999  1.00  0.00     0.034 A 
HETATM   33  C   UNL     1     -12.244   0.822 -33.934  1.00  0.00     0.031 A 
HETATM   34  C   UNL     1     -13.557   0.882 -33.455  1.00  0.00     0.021 A 
HETATM   35  C   UNL     1     -14.085   2.096 -33.033  1.00  0.00     0.011 A 
HETATM   36 BR   UNL     1     -15.858   2.177 -32.387  1.00  0.00    -0.051 Br
HETATM   37  C   UNL     1     -13.309   3.252 -33.086  1.00  0.00     0.021 A 
HETATM   38  C   UNL     1     -11.996   3.187 -33.568  1.00  0.00     0.031 A 
ENDBRANCH  29  32
ENDBRANCH  27  28
ENDBRANCH   4  27
BRANCH   1  39
HETATM   39  C   UNL     1      -6.675  -2.492 -33.918  1.00  0.00     0.163 C 
BRANCH  39  40
HETATM   40  C   UNL     1      -5.947  -3.187 -35.046  1.00  0.00    -0.017 C 
HETATM   41  C   UNL     1      -6.169  -4.404 -35.565  1.00  0.00     0.008 C 
ENDBRANCH  39  40
ENDBRANCH   1  39
TORSDOF 8
ENDMDL
MODEL 5
REMARK VINA RESULT:      -9.5      2.805      9.072
REMARK  8 active torsions:
REMARK  status: ('A' for Active; 'I' for Inactive)
REMARK    1  A    between atoms: C_2  and  C_3 
REMARK    2  A    between atoms: C_3  and  N_4 
REMARK    3  A    between atoms: N_7  and  C_8 
REMARK    4  A    between atoms: C_8  and  C_9 
REMARK       I    between atoms: C_9  and  N_10 
REMARK    5  A    between atoms: N_10  and  C_11 
REMARK    6  A    between atoms: C_24  and  C_25 
REMARK       I    between atoms: C_25  and  N_26 
REMARK    7  A    between atoms: N_26  and  C_27 
REMARK    8  A    between atoms: C_27  and  C_28 
ROOT
HETATM    1  N   UNL     1      -3.011   4.542 -32.207  1.00  0.00    -0.262 N 
HETATM    2  C   UNL     1      -3.399   3.361 -31.592  1.00  0.00     0.332 C 
HETATM    3  O   UNL     1      -2.617   2.429 -31.394  1.00  0.00    -0.246 OA
HETATM    4  N   UNL     1      -4.730   3.261 -31.203  1.00  0.00    -0.290 N 
HETATM    5  C   UNL     1      -5.701   4.232 -31.578  1.00  0.00     0.056 A 
HETATM    6  C   UNL     1      -5.300   5.362 -32.286  1.00  0.00     0.059 A 
HETATM    7  C   UNL     1      -3.877   5.550 -32.607  1.00  0.00     0.264 C 
HETATM    8  O   UNL     1      -3.530   6.563 -33.209  1.00  0.00    -0.267 OA
HETATM    9  C   UNL     1      -7.070   4.076 -31.291  1.00  0.00     0.048 A 
HETATM   10  C   UNL     1      -8.019   5.024 -31.711  1.00  0.00     0.034 A 
HETATM   11  C   UNL     1      -7.585   6.159 -32.404  1.00  0.00     0.018 A 
HETATM   12  C   UNL     1      -6.231   6.332 -32.687  1.00  0.00     0.020 A 
ENDROOT
BRANCH  10  13
HETATM   13  C   UNL     1      -9.491   4.827 -31.532  1.00  0.00     0.252 C 
HETATM   14  N   UNL     1     -10.332   5.474 -32.410  1.00  0.00    -0.353 N 
HETATM   15  H   UNL     1      -9.987   5.896 -33.259  1.00  0.00     0.163 HD
HETATM   16  O   UNL     1      -9.898   4.125 -30.613  1.00  0.00    -0.268 OA
BRANCH  14  17
HETATM   17  C   UNL     1     -11.768   5.435 -32.257  1.00  0.00     0.161 C 
BRANCH  17  18
HETATM   18  C   UNL     1     -12.364   4.296 -33.042  1.00  0.00    -0.038 A 
HETATM   19  C   UNL     1     -13.347   3.474 -32.469  1.00  0.00     0.048 A 
HETATM   20  C   UNL     1     -13.853   2.442 -33.231  1.00  0.00     0.105 A 
HETATM   21  C   UNL     1     -13.429   2.215 -34.520  1.00  0.00     0.105 A 
HETATM   22  O   UNL     1     -14.795   1.547 -32.829  1.00  0.00    -0.323 OA
HETATM   23  O   UNL     1     -14.049   1.146 -35.088  1.00  0.00    -0.323 OA
HETATM   24  C   UNL     1     -12.481   3.012 -35.122  1.00  0.00     0.040 A 
HETATM   25  C   UNL     1     -14.899   0.718 -34.005  1.00  0.00     0.352 A 
HETATM   26  C   UNL     1     -11.949   4.066 -34.374  1.00  0.00     0.012 A 
ENDBRANCH  17  18
ENDBRANCH  14  17
ENDBRANCH  10  13
BRANCH   4  27
HETATM   27  C   UNL     1      -5.073   2.200 -30.246  1.00  0.00     0.237 C 
BRANCH  27  28
HETATM   28  C   UNL     1      -5.603   0.890 -30.830  1.00  0.00     0.240 C 
HETATM   29  N   UNL     1      -5.141   0.592 -32.097  1.00  0.00    -0.326 N 
HETATM   30  H   UNL     1      -4.478   1.246 -32.502  1.00  0.00     0.169 HD
HETATM   31  O   UNL     1      -6.328   0.179 -30.136  1.00  0.00    -0.271 OA
BRANCH  29  32
HETATM   32  C   UNL     1      -5.474  -0.539 -32.875  1.00  0.00     0.034 A 
HETATM   33  C   UNL     1      -6.749  -0.777 -33.400  1.00  0.00     0.031 A 
HETATM   34  C   UNL     1      -7.008  -1.920 -34.164  1.00  0.00     0.021 A 
HETATM   35  C   UNL     1      -5.989  -2.833 -34.412  1.00  0.00     0.011 A 
HETATM   36 BR   UNL     1      -6.340  -4.376 -35.443  1.00  0.00    -0.051 Br
HETATM   37  C   UNL     1      -4.712  -2.611 -33.902  1.00  0.00     0.021 A 
HETATM   38  C   UNL     1      -4.458  -1.467 -33.136  1.00  0.00     0.031 A 
ENDBRANCH  29  32
ENDBRANCH  27  28
ENDBRANCH   4  27
BRANCH   1  39
HETATM   39  C   UNL     1      -1.590   4.745 -32.451  1.00  0.00     0.163 C 
BRANCH  39  40
HETATM   40  C   UNL     1      -0.905   5.440 -31.297  1.00  0.00    -0.017 C 
HETATM   41  C   UNL     1      -0.224   6.596 -31.296  1.00  0.00     0.008 C 
ENDBRANCH  39  40
ENDBRANCH   1  39
TORSDOF 8
ENDMDL
MODEL 6
REMARK VINA RESULT:      -9.1      3.409      4.716
REMARK  8 active torsions:
REMARK  status: ('A' for Active; 'I' for Inactive)
REMARK    1  A    between atoms: C_2  and  C_3 
REMARK    2  A    between atoms: C_3  and  N_4 
REMARK    3  A    between atoms: N_7  and  C_8 
REMARK    4  A    between atoms: C_8  and  C_9 
REMARK       I    between atoms: C_9  and  N_10 
REMARK    5  A    between atoms: N_10  and  C_11 
REMARK    6  A    between atoms: C_24  and  C_25 
REMARK       I    between atoms: C_25  and  N_26 
REMARK    7  A    between atoms: N_26  and  C_27 
REMARK    8  A    between atoms: C_27  and  C_28 
ROOT
HETATM    1  N   UNL     1     -12.081   3.691 -32.532  1.00  0.00    -0.262 N 
HETATM    2  C   UNL     1     -11.156   2.904 -33.202  1.00  0.00     0.332 C 
HETATM    3  O   UNL     1     -11.488   2.018 -33.991  1.00  0.00    -0.246 OA
HETATM    4  N   UNL     1      -9.813   3.152 -32.941  1.00  0.00    -0.290 N 
HETATM    5  C   UNL     1      -9.394   4.032 -31.904  1.00  0.00     0.056 A 
HETATM    6  C   UNL     1     -10.351   4.735 -31.176  1.00  0.00     0.059 A 
HETATM    7  C   UNL     1     -11.775   4.581 -31.512  1.00  0.00     0.264 C 
HETATM    8  O   UNL     1     -12.609   5.226 -30.882  1.00  0.00    -0.267 OA
HETATM    9  C   UNL     1      -8.040   4.194 -31.555  1.00  0.00     0.048 A 
HETATM   10  C   UNL     1      -7.652   5.033 -30.497  1.00  0.00     0.034 A 
HETATM   11  C   UNL     1      -8.633   5.741 -29.796  1.00  0.00     0.018 A 
HETATM   12  C   UNL     1      -9.977   5.599 -30.136  1.00  0.00     0.020 A 
ENDROOT
BRANCH  10  13
HETATM   13  C   UNL     1      -6.237   5.132 -30.022  1.00  0.00     0.252 C 
HETATM   14  N   UNL     1      -5.631   6.367 -30.078  1.00  0.00    -0.353 N 
HETATM   15  H   UNL     1      -6.162   7.210 -30.236  1.00  0.00     0.163 HD
HETATM   16  O   UNL     1      -5.664   4.124 -29.622  1.00  0.00    -0.268 OA
BRANCH  14  17
HETATM   17  C   UNL     1      -4.237   6.547 -29.743  1.00  0.00     0.161 C 
BRANCH  17  18
HETATM   18  C   UNL     1      -3.391   6.652 -30.985  1.00  0.00    -0.038 A 
HETATM   19  C   UNL     1      -3.195   5.532 -31.810  1.00  0.00     0.048 A 
HETATM   20  C   UNL     1      -2.406   5.684 -32.930  1.00  0.00     0.105 A 
HETATM   21  C   UNL     1      -1.830   6.889 -33.255  1.00  0.00     0.105 A 
HETATM   22  O   UNL     1      -2.102   4.705 -33.824  1.00  0.00    -0.323 OA
HETATM   23  O   UNL     1      -1.088   6.818 -34.393  1.00  0.00    -0.323 OA
HETATM   24  C   UNL     1      -2.015   8.013 -32.482  1.00  0.00     0.040 A 
HETATM   25  C   UNL     1      -1.251   5.427 -34.737  1.00  0.00     0.352 A 
HETATM   26  C   UNL     1      -2.809   7.891 -31.338  1.00  0.00     0.012 A 
ENDBRANCH  17  18
ENDBRANCH  14  17
ENDBRANCH  10  13
BRANCH   4  27
HETATM   27  C   UNL     1      -8.832   2.598 -33.885  1.00  0.00     0.237 C 
BRANCH  27  28
HETATM   28  C   UNL     1      -8.160   1.283 -33.490  1.00  0.00     0.240 C 
HETATM   29  N   UNL     1      -7.121   0.893 -34.312  1.00  0.00    -0.326 N 
HETATM   30  H   UNL     1      -6.885   1.524 -35.072  1.00  0.00     0.169 HD
HETATM   31  O   UNL     1      -8.530   0.709 -32.467  1.00  0.00    -0.271 OA
BRANCH  29  32
HETATM   32  C   UNL     1      -6.339  -0.277 -34.191  1.00  0.00     0.034 A 
HETATM   33  C   UNL     1      -5.141  -0.343 -33.471  1.00  0.00     0.031 A 
HETATM   34  C   UNL     1      -4.417  -1.538 -33.392  1.00  0.00     0.021 A 
HETATM   35  C   UNL     1      -4.890  -2.678 -34.032  1.00  0.00     0.011 A 
HETATM   36 BR   UNL     1      -3.911  -4.290 -33.926  1.00  0.00    -0.051 Br
HETATM   37  C   UNL     1      -6.082  -2.632 -34.751  1.00  0.00     0.021 A 
HETATM   38  C   UNL     1      -6.802  -1.434 -34.828  1.00  0.00     0.031 A 
ENDBRANCH  29  32
ENDBRANCH  27  28
ENDBRANCH   4  27
BRANCH   1  39
HETATM   39  C   UNL     1     -13.478   3.581 -32.927  1.00  0.00     0.163 C 
BRANCH  39  40
HETATM   40  C   UNL     1     -14.210   2.513 -32.148  1.00  0.00    -0.017 C 
HETATM   41  C   UNL     1     -15.527   2.266 -32.095  1.00  0.00     0.008 C 
ENDBRANCH  39  40
ENDBRANCH   1  39
TORSDOF 8
ENDMDL
MODEL 7
REMARK VINA RESULT:      -9.0      3.964      9.702
REMARK  8 active torsions:
REMARK  status: ('A' for Active; 'I' for Inactive)
REMARK    1  A    between atoms: C_2  and  C_3 
REMARK    2  A    between atoms: C_3  and  N_4 
REMARK    3  A    between atoms: N_7  and  C_8 
REMARK    4  A    between atoms: C_8  and  C_9 
REMARK       I    between atoms: C_9  and  N_10 
REMARK    5  A    between atoms: N_10  and  C_11 
REMARK    6  A    between atoms: C_24  and  C_25 
REMARK       I    between atoms: C_25  and  N_26 
REMARK    7  A    between atoms: N_26  and  C_27 
REMARK    8  A    between atoms: C_27  and  C_28 
ROOT
HETATM    1  N   UNL     1      -7.307   5.986 -30.746  1.00  0.00    -0.262 N 
HETATM    2  C   UNL     1      -6.407   6.359 -31.734  1.00  0.00     0.332 C 
HETATM    3  O   UNL     1      -6.479   7.439 -32.322  1.00  0.00    -0.246 OA
HETATM    4  N   UNL     1      -5.404   5.448 -32.046  1.00  0.00    -0.290 N 
HETATM    5  C   UNL     1      -5.397   4.123 -31.527  1.00  0.00     0.056 A 
HETATM    6  C   UNL     1      -6.376   3.742 -30.611  1.00  0.00     0.059 A 
HETATM    7  C   UNL     1      -7.379   4.724 -30.173  1.00  0.00     0.264 C 
HETATM    8  O   UNL     1      -8.221   4.386 -29.345  1.00  0.00    -0.267 OA
HETATM    9  C   UNL     1      -4.454   3.161 -31.933  1.00  0.00     0.048 A 
HETATM   10  C   UNL     1      -4.493   1.845 -31.443  1.00  0.00     0.034 A 
HETATM   11  C   UNL     1      -5.475   1.496 -30.509  1.00  0.00     0.018 A 
HETATM   12  C   UNL     1      -6.410   2.441 -30.090  1.00  0.00     0.020 A 
ENDROOT
BRANCH  10  13
HETATM   13  C   UNL     1      -3.585   0.767 -31.946  1.00  0.00     0.252 C 
HETATM   14  N   UNL     1      -3.767  -0.504 -31.447  1.00  0.00    -0.353 N 
HETATM   15  H   UNL     1      -4.594  -0.754 -30.926  1.00  0.00     0.163 HD
HETATM   16  O   UNL     1      -2.709   1.048 -32.757  1.00  0.00    -0.268 OA
BRANCH  14  17
HETATM   17  C   UNL     1      -2.877  -1.590 -31.789  1.00  0.00     0.161 C 
BRANCH  17  18
HETATM   18  C   UNL     1      -3.576  -2.613 -32.645  1.00  0.00    -0.038 A 
HETATM   19  C   UNL     1      -4.624  -2.231 -33.498  1.00  0.00     0.048 A 
HETATM   20  C   UNL     1      -5.232  -3.211 -34.253  1.00  0.00     0.105 A 
HETATM   21  C   UNL     1      -4.832  -4.526 -34.197  1.00  0.00     0.105 A 
HETATM   22  O   UNL     1      -6.266  -3.019 -35.116  1.00  0.00    -0.323 OA
HETATM   23  O   UNL     1      -5.567  -5.326 -35.014  1.00  0.00    -0.323 OA
HETATM   24  C   UNL     1      -3.797  -4.934 -33.387  1.00  0.00     0.040 A 
HETATM   25  C   UNL     1      -6.485  -4.368 -35.580  1.00  0.00     0.352 A 
HETATM   26  C   UNL     1      -3.160  -3.964 -32.608  1.00  0.00     0.012 A 
ENDBRANCH  17  18
ENDBRANCH  14  17
ENDBRANCH  10  13
BRANCH   4  27
HETATM   27  C   UNL     1      -4.252   5.953 -32.806  1.00  0.00     0.237 C 
BRANCH  27  28
HETATM   28  C   UNL     1      -3.248   6.817 -32.043  1.00  0.00     0.240 C 
HETATM   29  N   UNL     1      -2.527   6.148 -31.073  1.00  0.00    -0.326 N 
HETATM   30  H   UNL     1      -2.707   5.153 -30.982  1.00  0.00     0.169 HD
HETATM   31  O   UNL     1      -3.104   7.994 -32.371  1.00  0.00    -0.271 OA
BRANCH  29  32
HETATM   32  C   UNL     1      -1.549   6.698 -30.215  1.00  0.00     0.034 A 
HETATM   33  C   UNL     1      -0.188   6.772 -30.529  1.00  0.00     0.031 A 
HETATM   34  C   UNL     1       0.727   7.332 -29.630  1.00  0.00     0.021 A 
HETATM   35  C   UNL     1       0.283   7.825 -28.409  1.00  0.00     0.011 A 
HETATM   36 BR   UNL     1       1.519   8.580 -27.195  1.00  0.00    -0.051 Br
HETATM   37  C   UNL     1      -1.068   7.764 -28.079  1.00  0.00     0.021 A 
HETATM   38  C   UNL     1      -1.980   7.201 -28.982  1.00  0.00     0.031 A 
ENDBRANCH  29  32
ENDBRANCH  27  28
ENDBRANCH   4  27
BRANCH   1  39
HETATM   39  C   UNL     1      -8.246   6.991 -30.270  1.00  0.00     0.163 C 
BRANCH  39  40
HETATM   40  C   UNL     1      -7.725   7.734 -29.061  1.00  0.00    -0.017 C 
HETATM   41  C   UNL     1      -7.069   8.903 -29.011  1.00  0.00     0.008 C 
ENDBRANCH  39  40
ENDBRANCH   1  39
TORSDOF 8
ENDMDL
MODEL 8
REMARK VINA RESULT:      -8.9      3.951      6.624
REMARK  8 active torsions:
REMARK  status: ('A' for Active; 'I' for Inactive)
REMARK    1  A    between atoms: C_2  and  C_3 
REMARK    2  A    between atoms: C_3  and  N_4 
REMARK    3  A    between atoms: N_7  and  C_8 
REMARK    4  A    between atoms: C_8  and  C_9 
REMARK       I    between atoms: C_9  and  N_10 
REMARK    5  A    between atoms: N_10  and  C_11 
REMARK    6  A    between atoms: C_24  and  C_25 
REMARK       I    between atoms: C_25  and  N_26 
REMARK    7  A    between atoms: N_26  and  C_27 
REMARK    8  A    between atoms: C_27  and  C_28 
ROOT
HETATM    1  N   UNL     1     -11.986   2.152 -34.110  1.00  0.00    -0.262 N 
HETATM    2  C   UNL     1     -11.335   3.318 -34.488  1.00  0.00     0.332 C 
HETATM    3  O   UNL     1     -11.912   4.244 -35.060  1.00  0.00    -0.246 OA
HETATM    4  N   UNL     1      -9.978   3.403 -34.197  1.00  0.00    -0.290 N 
HETATM    5  C   UNL     1      -9.238   2.289 -33.710  1.00  0.00     0.056 A 
HETATM    6  C   UNL     1      -9.901   1.095 -33.434  1.00  0.00     0.059 A 
HETATM    7  C   UNL     1     -11.357   1.016 -33.621  1.00  0.00     0.264 C 
HETATM    8  O   UNL     1     -11.937  -0.033 -33.351  1.00  0.00    -0.267 OA
HETATM    9  C   UNL     1      -7.843   2.334 -33.528  1.00  0.00     0.048 A 
HETATM   10  C   UNL     1      -7.125   1.208 -33.090  1.00  0.00     0.034 A 
HETATM   11  C   UNL     1      -7.820   0.028 -32.803  1.00  0.00     0.018 A 
HETATM   12  C   UNL     1      -9.202  -0.028 -32.968  1.00  0.00     0.020 A 
ENDROOT
BRANCH  10  13
HETATM   13  C   UNL     1      -5.632   1.185 -33.005  1.00  0.00     0.252 C 
HETATM   14  N   UNL     1      -5.010   2.267 -32.424  1.00  0.00    -0.353 N 
HETATM   15  H   UNL     1      -5.526   2.952 -31.894  1.00  0.00     0.163 HD
HETATM   16  O   UNL     1      -5.017   0.229 -33.466  1.00  0.00    -0.268 OA
BRANCH  14  17
HETATM   17  C   UNL     1      -3.570   2.389 -32.389  1.00  0.00     0.161 C 
BRANCH  17  18
HETATM   18  C   UNL     1      -3.135   3.774 -32.790  1.00  0.00    -0.038 A 
HETATM   19  C   UNL     1      -2.263   4.511 -31.972  1.00  0.00     0.048 A 
HETATM   20  C   UNL     1      -1.905   5.777 -32.385  1.00  0.00     0.105 A 
HETATM   21  C   UNL     1      -2.365   6.315 -33.563  1.00  0.00     0.105 A 
HETATM   22  O   UNL     1      -1.085   6.627 -31.711  1.00  0.00    -0.323 OA
HETATM   23  O   UNL     1      -1.896   7.573 -33.776  1.00  0.00    -0.323 OA
HETATM   24  C   UNL     1      -3.206   5.616 -34.400  1.00  0.00     0.040 A 
HETATM   25  C   UNL     1      -1.100   7.771 -32.590  1.00  0.00     0.352 A 
HETATM   26  C   UNL     1      -3.589   4.330 -34.008  1.00  0.00     0.012 A 
ENDBRANCH  17  18
ENDBRANCH  14  17
ENDBRANCH  10  13
BRANCH   4  27
HETATM   27  C   UNL     1      -9.361   4.736 -34.252  1.00  0.00     0.237 C 
BRANCH  27  28
HETATM   28  C   UNL     1      -8.672   5.230 -32.980  1.00  0.00     0.240 C 
HETATM   29  N   UNL     1      -7.311   5.434 -33.101  1.00  0.00    -0.326 N 
HETATM   30  H   UNL     1      -6.909   5.269 -34.018  1.00  0.00     0.169 HD
HETATM   31  O   UNL     1      -9.355   5.468 -31.986  1.00  0.00    -0.271 OA
BRANCH  29  32
HETATM   32  C   UNL     1      -6.427   5.872 -32.089  1.00  0.00     0.034 A 
HETATM   33  C   UNL     1      -6.110   5.122 -30.952  1.00  0.00     0.031 A 
HETATM   34  C   UNL     1      -5.224   5.619 -29.989  1.00  0.00     0.021 A 
HETATM   35  C   UNL     1      -4.646   6.871 -30.161  1.00  0.00     0.011 A 
HETATM   36 BR   UNL     1      -3.451   7.542 -28.861  1.00  0.00    -0.051 Br
HETATM   37  C   UNL     1      -4.947   7.631 -31.289  1.00  0.00     0.021 A 
HETATM   38  C   UNL     1      -5.835   7.130 -32.249  1.00  0.00     0.031 A 
ENDBRANCH  29  32
ENDBRANCH  27  28
ENDBRANCH   4  27
BRANCH   1  39
HETATM   39  C   UNL     1     -13.436   2.116 -34.232  1.00  0.00     0.163 C 
BRANCH  39  40
HETATM   40  C   UNL     1     -14.128   2.492 -32.942  1.00  0.00    -0.017 C 
HETATM   41  C   UNL     1     -15.275   2.017 -32.435  1.00  0.00     0.008 C 
ENDBRANCH  39  40
ENDBRANCH   1  39
TORSDOF 8
ENDMDL
MODEL 9
REMARK VINA RESULT:      -8.8      4.854      8.025
REMARK  8 active torsions:
REMARK  status: ('A' for Active; 'I' for Inactive)
REMARK    1  A    between atoms: C_2  and  C_3 
REMARK    2  A    between atoms: C_3  and  N_4 
REMARK    3  A    between atoms: N_7  and  C_8 
REMARK    4  A    between atoms: C_8  and  C_9 
REMARK       I    between atoms: C_9  and  N_10 
REMARK    5  A    between atoms: N_10  and  C_11 
REMARK    6  A    between atoms: C_24  and  C_25 
REMARK       I    between atoms: C_25  and  N_26 
REMARK    7  A    between atoms: N_26  and  C_27 
REMARK    8  A    between atoms: C_27  and  C_28 
ROOT
HETATM    1  N   UNL     1     -12.851   1.761 -33.928  1.00  0.00    -0.262 N 
HETATM    2  C   UNL     1     -12.390   3.064 -34.044  1.00  0.00     0.332 C 
HETATM    3  O   UNL     1     -13.062   3.962 -34.554  1.00  0.00    -0.246 OA
HETATM    4  N   UNL     1     -11.114   3.326 -33.557  1.00  0.00    -0.290 N 
HETATM    5  C   UNL     1     -10.239   2.287 -33.133  1.00  0.00     0.056 A 
HETATM    6  C   UNL     1     -10.695   0.970 -33.124  1.00  0.00     0.059 A 
HETATM    7  C   UNL     1     -12.081   0.680 -33.521  1.00  0.00     0.264 C 
HETATM    8  O   UNL     1     -12.481  -0.480 -33.484  1.00  0.00    -0.267 OA
HETATM    9  C   UNL     1      -8.906   2.533 -32.754  1.00  0.00     0.048 A 
HETATM   10  C   UNL     1      -8.045   1.486 -32.383  1.00  0.00     0.034 A 
HETATM   11  C   UNL     1      -8.536   0.177 -32.365  1.00  0.00     0.018 A 
HETATM   12  C   UNL     1      -9.856  -0.082 -32.728  1.00  0.00     0.020 A 
ENDROOT
BRANCH  10  13
HETATM   13  C   UNL     1      -6.592   1.699 -32.095  1.00  0.00     0.252 C 
HETATM   14  N   UNL     1      -6.266   2.509 -31.031  1.00  0.00    -0.353 N 
HETATM   15  H   UNL     1      -6.953   2.786 -30.346  1.00  0.00     0.163 HD
HETATM   16  O   UNL     1      -5.752   1.171 -32.816  1.00  0.00    -0.268 OA
BRANCH  14  17
HETATM   17  C   UNL     1      -4.896   2.861 -30.735  1.00  0.00     0.161 C 
BRANCH  17  18
HETATM   18  C   UNL     1      -4.379   3.887 -31.710  1.00  0.00    -0.038 A 
HETATM   19  C   UNL     1      -3.092   3.763 -32.259  1.00  0.00     0.048 A 
HETATM   20  C   UNL     1      -2.669   4.734 -33.140  1.00  0.00     0.105 A 
HETATM   21  C   UNL     1      -3.470   5.794 -33.495  1.00  0.00     0.105 A 
HETATM   22  O   UNL     1      -1.454   4.775 -33.750  1.00  0.00    -0.323 OA
HETATM   23  O   UNL     1      -2.858   6.637 -34.368  1.00  0.00    -0.323 OA
HETATM   24  C   UNL     1      -4.744   5.939 -32.992  1.00  0.00     0.040 A 
HETATM   25  C   UNL     1      -1.575   5.995 -34.512  1.00  0.00     0.352 A 
HETATM   26  C   UNL     1      -5.202   4.970 -32.095  1.00  0.00     0.012 A 
ENDBRANCH  17  18
ENDBRANCH  14  17
ENDBRANCH  10  13
BRANCH   4  27
HETATM   27  C   UNL     1     -10.754   4.734 -33.337  1.00  0.00     0.237 C 
BRANCH  27  28
HETATM   28  C   UNL     1     -10.443   5.568 -34.580  1.00  0.00     0.240 C 
HETATM   29  N   UNL     1     -11.398   6.513 -34.899  1.00  0.00    -0.326 N 
HETATM   30  H   UNL     1     -12.190   6.585 -34.268  1.00  0.00     0.169 HD
HETATM   31  O   UNL     1      -9.371   5.396 -35.159  1.00  0.00    -0.271 OA
BRANCH  29  32
HETATM   32  C   UNL     1     -11.375   7.405 -35.993  1.00  0.00     0.034 A 
HETATM   33  C   UNL     1     -10.211   8.008 -36.484  1.00  0.00     0.031 A 
HETATM   34  C   UNL     1     -10.262   8.883 -37.575  1.00  0.00     0.021 A 
HETATM   35  C   UNL     1     -11.480   9.159 -38.185  1.00  0.00     0.011 A 
HETATM   36 BR   UNL     1     -11.548  10.341 -39.657  1.00  0.00    -0.051 Br
HETATM   37  C   UNL     1     -12.649   8.566 -37.713  1.00  0.00     0.021 A 
HETATM   38  C   UNL     1     -12.593   7.693 -36.620  1.00  0.00     0.031 A 
ENDBRANCH  29  32
ENDBRANCH  27  28
ENDBRANCH   4  27
BRANCH   1  39
HETATM   39  C   UNL     1     -14.246   1.503 -34.255  1.00  0.00     0.163 C 
BRANCH  39  40
HETATM   40  C   UNL     1     -15.129   1.497 -33.028  1.00  0.00    -0.017 C 
HETATM   41  C   UNL     1     -15.185   2.391 -32.029  1.00  0.00     0.008 C 
ENDBRANCH  39  40
ENDBRANCH   1  39
TORSDOF 8
ENDMDL
MODEL 10
REMARK VINA RESULT:      -8.7      4.462      9.688
REMARK  8 active torsions:
REMARK  status: ('A' for Active; 'I' for Inactive)
REMARK    1  A    between atoms: C_2  and  C_3 
REMARK    2  A    between atoms: C_3  and  N_4 
REMARK    3  A    between atoms: N_7  and  C_8 
REMARK    4  A    between atoms: C_8  and  C_9 
REMARK       I    between atoms: C_9  and  N_10 
REMARK    5  A    between atoms: N_10  and  C_11 
REMARK    6  A    between atoms: C_24  and  C_25 
REMARK       I    between atoms: C_25  and  N_26 
REMARK    7  A    between atoms: N_26  and  C_27 
REMARK    8  A    between atoms: C_27  and  C_28 
ROOT
HETATM    1  N   UNL     1      -0.960   9.954 -24.469  1.00  0.00    -0.262 N 
HETATM    2  C   UNL     1      -1.847   8.892 -24.368  1.00  0.00     0.332 C 
HETATM    3  O   UNL     1      -2.603   8.748 -23.406  1.00  0.00    -0.246 OA
HETATM    4  N   UNL     1      -1.848   7.973 -25.412  1.00  0.00    -0.290 N 
HETATM    5  C   UNL     1      -0.867   7.999 -26.443  1.00  0.00     0.056 A 
HETATM    6  C   UNL     1       0.078   9.023 -26.462  1.00  0.00     0.059 A 
HETATM    7  C   UNL     1       0.027  10.075 -25.437  1.00  0.00     0.264 C 
HETATM    8  O   UNL     1       0.848  10.988 -25.478  1.00  0.00    -0.267 OA
HETATM    9  C   UNL     1      -0.790   7.002 -27.433  1.00  0.00     0.048 A 
HETATM   10  C   UNL     1       0.215   7.022 -28.415  1.00  0.00     0.034 A 
HETATM   11  C   UNL     1       1.138   8.072 -28.422  1.00  0.00     0.018 A 
HETATM   12  C   UNL     1       1.068   9.072 -27.454  1.00  0.00     0.020 A 
ENDROOT
BRANCH  10  13
HETATM   13  C   UNL     1       0.400   5.914 -29.404  1.00  0.00     0.252 C 
HETATM   14  N   UNL     1      -0.224   6.040 -30.625  1.00  0.00    -0.353 N 
HETATM   15  H   UNL     1      -0.619   6.916 -30.930  1.00  0.00     0.163 HD
HETATM   16  O   UNL     1       1.074   4.938 -29.095  1.00  0.00    -0.268 OA
BRANCH  14  17
HETATM   17  C   UNL     1      -0.194   4.980 -31.607  1.00  0.00     0.161 C 
BRANCH  17  18
HETATM   18  C   UNL     1      -1.380   5.067 -32.532  1.00  0.00    -0.038 A 
HETATM   19  C   UNL     1      -2.528   4.294 -32.293  1.00  0.00     0.048 A 
HETATM   20  C   UNL     1      -3.580   4.409 -33.176  1.00  0.00     0.105 A 
HETATM   21  C   UNL     1      -3.532   5.256 -34.258  1.00  0.00     0.105 A 
HETATM   22  O   UNL     1      -4.755   3.727 -33.101  1.00  0.00    -0.323 OA
HETATM   23  O   UNL     1      -4.669   5.210 -35.002  1.00  0.00    -0.323 OA
HETATM   24  C   UNL     1      -2.432   6.042 -34.515  1.00  0.00     0.040 A 
HETATM   25  C   UNL     1      -5.432   4.226 -34.273  1.00  0.00     0.352 A 
HETATM   26  C   UNL     1      -1.347   5.948 -33.637  1.00  0.00     0.012 A 
ENDBRANCH  17  18
ENDBRANCH  14  17
ENDBRANCH  10  13
BRANCH   4  27
HETATM   27  C   UNL     1      -3.000   7.066 -25.507  1.00  0.00     0.237 C 
BRANCH  27  28
HETATM   28  C   UNL     1      -4.035   7.378 -26.588  1.00  0.00     0.240 C 
HETATM   29  N   UNL     1      -4.305   6.333 -27.451  1.00  0.00    -0.326 N 
HETATM   30  H   UNL     1      -3.820   5.460 -27.268  1.00  0.00     0.169 HD
HETATM   31  O   UNL     1      -4.591   8.475 -26.582  1.00  0.00    -0.271 OA
BRANCH  29  32
HETATM   32  C   UNL     1      -5.202   6.346 -28.542  1.00  0.00     0.034 A 
HETATM   33  C   UNL     1      -6.592   6.258 -28.410  1.00  0.00     0.031 A 
HETATM   34  C   UNL     1      -7.422   6.278 -29.536  1.00  0.00     0.021 A 
HETATM   35  C   UNL     1      -6.865   6.390 -30.805  1.00  0.00     0.011 A 
HETATM   36 BR   UNL     1      -7.986   6.416 -32.325  1.00  0.00    -0.051 Br
HETATM   37  C   UNL     1      -5.483   6.483 -30.956  1.00  0.00     0.021 A 
HETATM   38  C   UNL     1      -4.657   6.461 -29.826  1.00  0.00     0.031 A 
ENDBRANCH  29  32
ENDBRANCH  27  28
ENDBRANCH   4  27
BRANCH   1  39
HETATM   39  C   UNL     1      -1.072  11.025 -23.489  1.00  0.00     0.163 C 
BRANCH  39  40
HETATM   40  C   UNL     1      -0.132  10.832 -22.321  1.00  0.00    -0.017 C 
HETATM   41  C   UNL     1       0.996  11.497 -22.031  1.00  0.00     0.008 C 
ENDBRANCH  39  40
ENDBRANCH   1  39
TORSDOF 8
ENDMDL
