MODEL 1
REMARK VINA RESULT:      -9.7      0.000      0.000
REMARK  1 active torsions:
REMARK  status: ('A' for Active; 'I' for Inactive)
REMARK    1  A    between atoms: C_8  and  C_9 
ROOT
HETATM    1  C   UNL     1      -9.436   0.705 -34.597  1.00  0.00     0.073 C 
HETATM    2  C   UNL     1      -8.996   0.931 -33.195  1.00  0.00     0.062 C 
HETATM    3  N   UNL     1      -9.853   0.705 -32.195  1.00  0.00    -0.178 NA
HETATM    4  N   UNL     1      -9.130   0.933 -31.094  1.00  0.00    -0.262 N 
HETATM    5  H   UNL     1      -9.578   0.802 -30.195  1.00  0.00     0.191 HD
HETATM    6  C   UNL     1      -7.884   1.433 -31.352  1.00  0.00     0.134 C 
HETATM    7  C   UNL     1      -7.708   1.351 -32.722  1.00  0.00     0.032 C 
HETATM    8  C   UNL     1      -6.485   1.538 -33.567  1.00  0.00     0.119 C 
HETATM    9  S   UNL     1      -5.236   2.771 -33.095  1.00  0.00    -0.141 SA
HETATM   10  C   UNL     1      -6.043   3.651 -31.730  1.00  0.00     0.136 C 
HETATM   11  C   UNL     1      -5.236   4.926 -31.475  1.00  0.00     0.031 C 
HETATM   12  C   UNL     1      -6.082   2.795 -30.461  1.00  0.00     0.236 C 
HETATM   13  O   UNL     1      -5.335   2.985 -29.498  1.00  0.00    -0.272 OA
HETATM   14  N   UNL     1      -7.064   1.848 -30.335  1.00  0.00    -0.311 N 
HETATM   15  H   UNL     1      -7.204   1.518 -29.386  1.00  0.00     0.170 HD
ENDROOT
BRANCH   8  16
HETATM   16  C   UNL     1      -5.848   0.155 -33.680  1.00  0.00    -0.039 A 
HETATM   17  C   UNL     1      -6.512  -0.922 -34.303  1.00  0.00     0.021 A 
HETATM   18  C   UNL     1      -5.945  -2.206 -34.365  1.00  0.00    -0.025 A 
HETATM   19  C   UNL     1      -4.675  -2.428 -33.794  1.00  0.00    -0.026 A 
HETATM   20  C   UNL     1      -6.625  -3.274 -34.972  1.00  0.00     0.012 A 
HETATM   21  C   UNL     1      -4.006  -1.359 -33.180  1.00  0.00     0.013 A 
HETATM   22  C   UNL     1      -4.117  -3.716 -33.846  1.00  0.00     0.012 A 
HETATM   23  C   UNL     1      -4.585  -0.088 -33.119  1.00  0.00     0.009 A 
HETATM   24  C   UNL     1      -4.805  -4.769 -34.452  1.00  0.00     0.001 A 
HETATM   25  C   UNL     1      -6.059  -4.548 -35.015  1.00  0.00     0.001 A 
ENDBRANCH   8  16
TORSDOF 1
ENDMDL
MODEL 2
REMARK VINA RESULT:      -9.5      1.774      2.979
REMARK  1 active torsions:
REMARK  status: ('A' for Active; 'I' for Inactive)
REMARK    1  A    between atoms: C_8  and  C_9 
ROOT
HETATM    1  C   UNL     1      -9.133   3.172 -31.470  1.00  0.00     0.073 C 
HETATM    2  C   UNL     1      -7.730   3.103 -30.982  1.00  0.00     0.062 C 
HETATM    3  N   UNL     1      -7.498   2.955 -29.674  1.00  0.00    -0.178 NA
HETATM    4  N   UNL     1      -6.167   2.862 -29.593  1.00  0.00    -0.262 N 
HETATM    5  H   UNL     1      -5.755   2.722 -28.677  1.00  0.00     0.191 HD
HETATM    6  C   UNL     1      -5.529   3.086 -30.780  1.00  0.00     0.134 C 
HETATM    7  C   UNL     1      -6.517   3.145 -31.747  1.00  0.00     0.032 C 
HETATM    8  C   UNL     1      -6.427   3.150 -33.243  1.00  0.00     0.119 C 
HETATM    9  S   UNL     1      -5.039   3.984 -34.066  1.00  0.00    -0.141 SA
HETATM   10  C   UNL     1      -4.221   4.842 -32.693  1.00  0.00     0.136 C 
HETATM   11  C   UNL     1      -3.245   5.849 -33.306  1.00  0.00     0.031 C 
HETATM   12  C   UNL     1      -3.463   3.860 -31.795  1.00  0.00     0.236 C 
HETATM   13  O   UNL     1      -2.235   3.742 -31.812  1.00  0.00    -0.272 OA
HETATM   14  N   UNL     1      -4.162   3.161 -30.846  1.00  0.00    -0.311 N 
HETATM   15  H   UNL     1      -3.583   2.751 -30.121  1.00  0.00     0.170 HD
ENDROOT
BRANCH   8  16
HETATM   16  C   UNL     1      -6.489   1.683 -33.663  1.00  0.00    -0.039 A 
HETATM   17  C   UNL     1      -5.459   0.774 -33.346  1.00  0.00     0.021 A 
HETATM   18  C   UNL     1      -5.494  -0.564 -33.773  1.00  0.00    -0.025 A 
HETATM   19  C   UNL     1      -6.591  -1.017 -34.535  1.00  0.00    -0.026 A 
HETATM   20  C   UNL     1      -4.453  -1.455 -33.466  1.00  0.00     0.012 A 
HETATM   21  C   UNL     1      -7.623  -0.120 -34.847  1.00  0.00     0.013 A 
HETATM   22  C   UNL     1      -6.617  -2.352 -34.971  1.00  0.00     0.012 A 
HETATM   23  C   UNL     1      -7.571   1.211 -34.422  1.00  0.00     0.009 A 
HETATM   24  C   UNL     1      -5.574  -3.226 -34.659  1.00  0.00     0.001 A 
HETATM   25  C   UNL     1      -4.492  -2.778 -33.907  1.00  0.00     0.001 A 
ENDBRANCH   8  16
TORSDOF 1
ENDMDL
MODEL 3
REMARK VINA RESULT:      -9.2      2.605      3.651
REMARK  1 active torsions:
REMARK  status: ('A' for Active; 'I' for Inactive)
REMARK    1  A    between atoms: C_8  and  C_9 
ROOT
HETATM    1  C   UNL     1      -2.976   3.420 -32.093  1.00  0.00     0.073 C 
HETATM    2  C   UNL     1      -4.240   3.635 -32.845  1.00  0.00     0.062 C 
HETATM    3  N   UNL     1      -4.251   4.483 -33.878  1.00  0.00    -0.178 NA
HETATM    4  N   UNL     1      -5.495   4.388 -34.358  1.00  0.00    -0.262 N 
HETATM    5  H   UNL     1      -5.733   4.940 -35.174  1.00  0.00     0.191 HD
HETATM    6  C   UNL     1      -6.321   3.619 -33.588  1.00  0.00     0.134 C 
HETATM    7  C   UNL     1      -5.517   3.015 -32.638  1.00  0.00     0.032 C 
HETATM    8  C   UNL     1      -5.804   1.910 -31.668  1.00  0.00     0.119 C 
HETATM    9  S   UNL     1      -7.453   1.767 -30.918  1.00  0.00    -0.141 SA
HETATM   10  C   UNL     1      -8.265   3.299 -31.451  1.00  0.00     0.136 C 
HETATM   11  C   UNL     1      -9.532   3.456 -30.606  1.00  0.00     0.031 C 
HETATM   12  C   UNL     1      -8.631   3.248 -32.937  1.00  0.00     0.236 C 
HETATM   13  O   UNL     1      -9.783   3.071 -33.341  1.00  0.00    -0.272 OA
HETATM   14  N   UNL     1      -7.661   3.525 -33.863  1.00  0.00    -0.311 N 
HETATM   15  H   UNL     1      -8.019   3.744 -34.787  1.00  0.00     0.170 HD
ENDROOT
BRANCH   8  16
HETATM   16  C   UNL     1      -5.440   0.618 -32.397  1.00  0.00    -0.039 A 
HETATM   17  C   UNL     1      -6.415  -0.180 -33.030  1.00  0.00     0.021 A 
HETATM   18  C   UNL     1      -6.085  -1.391 -33.660  1.00  0.00    -0.025 A 
HETATM   19  C   UNL     1      -4.743  -1.823 -33.668  1.00  0.00    -0.026 A 
HETATM   20  C   UNL     1      -7.069  -2.186 -34.271  1.00  0.00     0.012 A 
HETATM   21  C   UNL     1      -3.767  -1.029 -33.047  1.00  0.00     0.013 A 
HETATM   22  C   UNL     1      -4.418  -3.041 -34.288  1.00  0.00     0.012 A 
HETATM   23  C   UNL     1      -4.110   0.171 -32.417  1.00  0.00     0.009 A 
HETATM   24  C   UNL     1      -5.407  -3.821 -34.890  1.00  0.00     0.001 A 
HETATM   25  C   UNL     1      -6.732  -3.394 -34.882  1.00  0.00     0.001 A 
ENDBRANCH   8  16
TORSDOF 1
ENDMDL
MODEL 4
REMARK VINA RESULT:      -8.7      3.519      5.211
REMARK  1 active torsions:
REMARK  status: ('A' for Active; 'I' for Inactive)
REMARK    1  A    between atoms: C_8  and  C_9 
ROOT
HETATM    1  C   UNL     1      -8.597   3.509 -30.819  1.00  0.00     0.073 C 
HETATM    2  C   UNL     1      -9.125   3.751 -32.187  1.00  0.00     0.062 C 
HETATM    3  N   UNL     1      -8.907   4.931 -32.775  1.00  0.00    -0.178 NA
HETATM    4  N   UNL     1      -9.443   4.789 -33.991  1.00  0.00    -0.262 N 
HETATM    5  H   UNL     1      -9.377   5.569 -34.634  1.00  0.00     0.191 HD
HETATM    6  C   UNL     1     -10.120   3.613 -34.156  1.00  0.00     0.134 C 
HETATM    7  C   UNL     1      -9.852   2.849 -33.035  1.00  0.00     0.032 C 
HETATM    8  C   UNL     1     -10.127   1.405 -32.742  1.00  0.00     0.119 C 
HETATM    9  S   UNL     1     -11.632   0.619 -33.387  1.00  0.00    -0.141 SA
HETATM   10  C   UNL     1     -12.554   2.026 -34.067  1.00  0.00     0.136 C 
HETATM   11  C   UNL     1     -13.983   1.544 -34.331  1.00  0.00     0.031 C 
HETATM   12  C   UNL     1     -11.923   2.529 -35.369  1.00  0.00     0.236 C 
HETATM   13  O   UNL     1     -12.404   2.301 -36.482  1.00  0.00    -0.272 OA
HETATM   14  N   UNL     1     -10.841   3.366 -35.296  1.00  0.00    -0.311 N 
HETATM   15  H   UNL     1     -10.649   3.872 -36.153  1.00  0.00     0.170 HD
ENDROOT
BRANCH   8  16
HETATM   16  C   UNL     1      -8.888   0.647 -33.216  1.00  0.00    -0.039 A 
HETATM   17  C   UNL     1      -7.871   0.251 -32.323  1.00  0.00     0.021 A 
HETATM   18  C   UNL     1      -6.710  -0.404 -32.767  1.00  0.00    -0.025 A 
HETATM   19  C   UNL     1      -6.555  -0.681 -34.141  1.00  0.00    -0.026 A 
HETATM   20  C   UNL     1      -5.696  -0.778 -31.870  1.00  0.00     0.012 A 
HETATM   21  C   UNL     1      -7.568  -0.296 -35.033  1.00  0.00     0.013 A 
HETATM   22  C   UNL     1      -5.388  -1.325 -34.583  1.00  0.00     0.012 A 
HETATM   23  C   UNL     1      -8.714   0.362 -34.579  1.00  0.00     0.009 A 
HETATM   24  C   UNL     1      -4.388  -1.689 -33.679  1.00  0.00     0.001 A 
HETATM   25  C   UNL     1      -4.542  -1.415 -32.323  1.00  0.00     0.001 A 
ENDBRANCH   8  16
TORSDOF 1
ENDMDL
MODEL 5
REMARK VINA RESULT:      -8.5      2.991      4.427
REMARK  1 active torsions:
REMARK  status: ('A' for Active; 'I' for Inactive)
REMARK    1  A    between atoms: C_8  and  C_9 
ROOT
HETATM    1  C   UNL     1      -7.834   5.219 -31.356  1.00  0.00     0.073 C 
HETATM    2  C   UNL     1      -6.421   5.176 -30.898  1.00  0.00     0.062 C 
HETATM    3  N   UNL     1      -6.152   5.275 -29.592  1.00  0.00    -0.178 NA
HETATM    4  N   UNL     1      -4.825   5.133 -29.525  1.00  0.00    -0.262 N 
HETATM    5  H   UNL     1      -4.390   5.154 -28.610  1.00  0.00     0.191 HD
HETATM    6  C   UNL     1      -4.217   5.088 -30.749  1.00  0.00     0.134 C 
HETATM    7  C   UNL     1      -5.233   5.007 -31.685  1.00  0.00     0.032 C 
HETATM    8  C   UNL     1      -5.193   4.715 -33.154  1.00  0.00     0.119 C 
HETATM    9  S   UNL     1      -3.797   5.301 -34.157  1.00  0.00    -0.141 SA
HETATM   10  C   UNL     1      -2.896   6.368 -32.999  1.00  0.00     0.136 C 
HETATM   11  C   UNL     1      -1.896   7.185 -33.822  1.00  0.00     0.031 C 
HETATM   12  C   UNL     1      -2.153   5.543 -31.944  1.00  0.00     0.236 C 
HETATM   13  O   UNL     1      -0.933   5.363 -31.967  1.00  0.00    -0.272 OA
HETATM   14  N   UNL     1      -2.851   5.079 -30.861  1.00  0.00    -0.311 N 
HETATM   15  H   UNL     1      -2.267   4.790 -30.083  1.00  0.00     0.170 HD
ENDROOT
BRANCH   8  16
HETATM   16  C   UNL     1      -5.334   3.199 -33.275  1.00  0.00    -0.039 A 
HETATM   17  C   UNL     1      -6.296   2.606 -34.118  1.00  0.00     0.021 A 
HETATM   18  C   UNL     1      -6.457   1.213 -34.194  1.00  0.00    -0.025 A 
HETATM   19  C   UNL     1      -5.632   0.379 -33.411  1.00  0.00    -0.026 A 
HETATM   20  C   UNL     1      -7.431   0.635 -35.025  1.00  0.00     0.012 A 
HETATM   21  C   UNL     1      -4.667   0.962 -32.576  1.00  0.00     0.013 A 
HETATM   22  C   UNL     1      -5.804  -1.014 -33.479  1.00  0.00     0.012 A 
HETATM   23  C   UNL     1      -4.524   2.351 -32.505  1.00  0.00     0.009 A 
HETATM   24  C   UNL     1      -6.778  -1.573 -34.308  1.00  0.00     0.001 A 
HETATM   25  C   UNL     1      -7.591  -0.749 -35.081  1.00  0.00     0.001 A 
ENDBRANCH   8  16
TORSDOF 1
ENDMDL
MODEL 6
REMARK VINA RESULT:      -8.2      2.831      4.193
REMARK  1 active torsions:
REMARK  status: ('A' for Active; 'I' for Inactive)
REMARK    1  A    between atoms: C_8  and  C_9 
ROOT
HETATM    1  C   UNL     1      -5.667   2.687 -30.314  1.00  0.00     0.073 C 
HETATM    2  C   UNL     1      -6.235   3.334 -31.526  1.00  0.00     0.062 C 
HETATM    3  N   UNL     1      -5.608   4.386 -32.061  1.00  0.00    -0.178 NA
HETATM    4  N   UNL     1      -6.329   4.670 -33.150  1.00  0.00    -0.262 N 
HETATM    5  H   UNL     1      -6.023   5.437 -33.737  1.00  0.00     0.191 HD
HETATM    6  C   UNL     1      -7.474   3.930 -33.256  1.00  0.00     0.134 C 
HETATM    7  C   UNL     1      -7.405   2.964 -32.269  1.00  0.00     0.032 C 
HETATM    8  C   UNL     1      -8.243   1.745 -32.028  1.00  0.00     0.119 C 
HETATM    9  S   UNL     1     -10.019   1.776 -32.408  1.00  0.00    -0.141 SA
HETATM   10  C   UNL     1     -10.313   3.526 -32.787  1.00  0.00     0.136 C 
HETATM   11  C   UNL     1     -11.829   3.739 -32.788  1.00  0.00     0.031 C 
HETATM   12  C   UNL     1      -9.731   3.906 -34.151  1.00  0.00     0.236 C 
HETATM   13  O   UNL     1     -10.425   4.075 -35.156  1.00  0.00    -0.272 OA
HETATM   14  N   UNL     1      -8.393   4.187 -34.240  1.00  0.00    -0.311 N 
HETATM   15  H   UNL     1      -8.129   4.688 -35.081  1.00  0.00     0.170 HD
ENDROOT
BRANCH   8  16
HETATM   16  C   UNL     1      -7.556   0.617 -32.795  1.00  0.00    -0.039 A 
HETATM   17  C   UNL     1      -6.397  -0.019 -32.306  1.00  0.00     0.021 A 
HETATM   18  C   UNL     1      -5.739  -1.024 -33.034  1.00  0.00    -0.025 A 
HETATM   19  C   UNL     1      -6.252  -1.416 -34.287  1.00  0.00    -0.026 A 
HETATM   20  C   UNL     1      -4.575  -1.636 -32.543  1.00  0.00     0.012 A 
HETATM   21  C   UNL     1      -7.410  -0.794 -34.777  1.00  0.00     0.013 A 
HETATM   22  C   UNL     1      -5.585  -2.413 -35.019  1.00  0.00     0.012 A 
HETATM   23  C   UNL     1      -8.050   0.211 -34.045  1.00  0.00     0.009 A 
HETATM   24  C   UNL     1      -4.427  -3.012 -34.519  1.00  0.00     0.001 A 
HETATM   25  C   UNL     1      -3.922  -2.624 -33.281  1.00  0.00     0.001 A 
ENDBRANCH   8  16
TORSDOF 1
ENDMDL
MODEL 7
REMARK VINA RESULT:      -8.1      3.212      6.552
REMARK  1 active torsions:
REMARK  status: ('A' for Active; 'I' for Inactive)
REMARK    1  A    between atoms: C_8  and  C_9 
ROOT
HETATM    1  C   UNL     1      -3.367   0.243 -31.128  1.00  0.00     0.073 C 
HETATM    2  C   UNL     1      -4.716   0.703 -30.706  1.00  0.00     0.062 C 
HETATM    3  N   UNL     1      -5.109   0.511 -29.443  1.00  0.00    -0.178 NA
HETATM    4  N   UNL     1      -6.311   1.091 -29.389  1.00  0.00    -0.262 N 
HETATM    5  H   UNL     1      -6.802   1.087 -28.502  1.00  0.00     0.191 HD
HETATM    6  C   UNL     1      -6.766   1.523 -30.603  1.00  0.00     0.134 C 
HETATM    7  C   UNL     1      -5.709   1.386 -31.485  1.00  0.00     0.032 C 
HETATM    8  C   UNL     1      -5.527   1.887 -32.886  1.00  0.00     0.119 C 
HETATM    9  S   UNL     1      -6.952   1.974 -34.009  1.00  0.00    -0.141 SA
HETATM   10  C   UNL     1      -8.251   1.125 -33.070  1.00  0.00     0.136 C 
HETATM   11  C   UNL     1      -9.396   0.834 -34.044  1.00  0.00     0.031 C 
HETATM   12  C   UNL     1      -8.757   1.990 -31.913  1.00  0.00     0.236 C 
HETATM   13  O   UNL     1      -9.839   2.582 -31.937  1.00  0.00    -0.272 OA
HETATM   14  N   UNL     1      -8.036   2.019 -30.748  1.00  0.00    -0.311 N 
HETATM   15  H   UNL     1      -8.550   2.373 -29.949  1.00  0.00     0.170 HD
ENDROOT
BRANCH   8  16
HETATM   16  C   UNL     1      -4.875   3.261 -32.749  1.00  0.00    -0.039 A 
HETATM   17  C   UNL     1      -3.475   3.426 -32.765  1.00  0.00     0.021 A 
HETATM   18  C   UNL     1      -2.875   4.684 -32.592  1.00  0.00    -0.025 A 
HETATM   19  C   UNL     1      -3.691   5.818 -32.402  1.00  0.00    -0.026 A 
HETATM   20  C   UNL     1      -1.478   4.832 -32.592  1.00  0.00     0.012 A 
HETATM   21  C   UNL     1      -5.085   5.663 -32.393  1.00  0.00     0.013 A 
HETATM   22  C   UNL     1      -3.087   7.073 -32.216  1.00  0.00     0.012 A 
HETATM   23  C   UNL     1      -5.669   4.403 -32.559  1.00  0.00     0.009 A 
HETATM   24  C   UNL     1      -1.698   7.204 -32.217  1.00  0.00     0.001 A 
HETATM   25  C   UNL     1      -0.893   6.084 -32.405  1.00  0.00     0.001 A 
ENDBRANCH   8  16
TORSDOF 1
ENDMDL
MODEL 8
REMARK VINA RESULT:      -7.9     14.053     15.702
REMARK  1 active torsions:
REMARK  status: ('A' for Active; 'I' for Inactive)
REMARK    1  A    between atoms: C_8  and  C_9 
ROOT
HETATM    1  C   UNL     1      -3.987 -15.608 -39.155  1.00  0.00     0.073 C 
HETATM    2  C   UNL     1      -3.945 -14.605 -38.059  1.00  0.00     0.062 C 
HETATM    3  N   UNL     1      -2.987 -13.673 -38.059  1.00  0.00    -0.178 NA
HETATM    4  N   UNL     1      -3.279 -12.912 -37.000  1.00  0.00    -0.262 N 
HETATM    5  H   UNL     1      -2.685 -12.113 -36.810  1.00  0.00     0.191 HD
HETATM    6  C   UNL     1      -4.303 -13.402 -36.239  1.00  0.00     0.134 C 
HETATM    7  C   UNL     1      -4.845 -14.458 -36.951  1.00  0.00     0.032 C 
HETATM    8  C   UNL     1      -6.107 -15.239 -36.741  1.00  0.00     0.119 C 
HETATM    9  S   UNL     1      -6.697 -15.572 -35.056  1.00  0.00    -0.141 SA
HETATM   10  C   UNL     1      -5.316 -14.997 -34.030  1.00  0.00     0.136 C 
HETATM   11  C   UNL     1      -5.548 -15.536 -32.616  1.00  0.00     0.031 C 
HETATM   12  C   UNL     1      -5.242 -13.468 -34.001  1.00  0.00     0.236 C 
HETATM   13  O   UNL     1      -5.604 -12.795 -33.033  1.00  0.00    -0.272 OA
HETATM   14  N   UNL     1      -4.642 -12.818 -35.047  1.00  0.00    -0.311 N 
HETATM   15  H   UNL     1      -4.381 -11.859 -34.845  1.00  0.00     0.170 HD
ENDROOT
BRANCH   8  16
HETATM   16  C   UNL     1      -7.181 -14.507 -37.544  1.00  0.00    -0.039 A 
HETATM   17  C   UNL     1      -8.145 -15.200 -38.304  1.00  0.00     0.021 A 
HETATM   18  C   UNL     1      -9.103 -14.526 -39.079  1.00  0.00    -0.025 A 
HETATM   19  C   UNL     1      -9.108 -13.115 -39.096  1.00  0.00    -0.026 A 
HETATM   20  C   UNL     1     -10.046 -15.228 -39.846  1.00  0.00     0.012 A 
HETATM   21  C   UNL     1      -8.157 -12.419 -38.336  1.00  0.00     0.013 A 
HETATM   22  C   UNL     1     -10.059 -12.444 -39.882  1.00  0.00     0.012 A 
HETATM   23  C   UNL     1      -7.204 -13.104 -37.574  1.00  0.00     0.009 A 
HETATM   24  C   UNL     1     -10.990 -13.156 -40.641  1.00  0.00     0.001 A 
HETATM   25  C   UNL     1     -10.983 -14.548 -40.623  1.00  0.00     0.001 A 
ENDBRANCH   8  16
TORSDOF 1
ENDMDL
MODEL 9
REMARK VINA RESULT:      -7.8      3.058      6.506
REMARK  1 active torsions:
REMARK  status: ('A' for Active; 'I' for Inactive)
REMARK    1  A    between atoms: C_8  and  C_9 
ROOT
HETATM    1  C   UNL     1      -6.817   3.716 -29.689  1.00  0.00     0.073 C 
HETATM    2  C   UNL     1      -7.448   3.346 -30.983  1.00  0.00     0.062 C 
HETATM    3  N   UNL     1      -8.673   3.797 -31.268  1.00  0.00    -0.178 NA
HETATM    4  N   UNL     1      -8.902   3.347 -32.505  1.00  0.00    -0.262 N 
HETATM    5  H   UNL     1      -9.783   3.589 -32.944  1.00  0.00     0.191 HD
HETATM    6  C   UNL     1      -7.930   2.506 -32.970  1.00  0.00     0.134 C 
HETATM    7  C   UNL     1      -6.899   2.556 -32.048  1.00  0.00     0.032 C 
HETATM    8  C   UNL     1      -5.497   2.032 -32.114  1.00  0.00     0.119 C 
HETATM    9  S   UNL     1      -5.150   0.478 -32.990  1.00  0.00    -0.141 SA
HETATM   10  C   UNL     1      -6.812  -0.148 -33.360  1.00  0.00     0.136 C 
HETATM   11  C   UNL     1      -6.658  -1.609 -33.790  1.00  0.00     0.031 C 
HETATM   12  C   UNL     1      -7.475   0.659 -34.479  1.00  0.00     0.236 C 
HETATM   13  O   UNL     1      -7.590   0.241 -35.634  1.00  0.00    -0.272 OA
HETATM   14  N   UNL     1      -8.073   1.851 -34.166  1.00  0.00    -0.311 N 
HETATM   15  H   UNL     1      -8.717   2.191 -34.872  1.00  0.00     0.170 HD
ENDROOT
BRANCH   8  16
HETATM   16  C   UNL     1      -4.661   3.168 -32.699  1.00  0.00    -0.039 A 
HETATM   17  C   UNL     1      -3.413   3.532 -32.152  1.00  0.00     0.021 A 
HETATM   18  C   UNL     1      -2.666   4.607 -32.661  1.00  0.00    -0.025 A 
HETATM   19  C   UNL     1      -3.171   5.343 -33.753  1.00  0.00    -0.026 A 
HETATM   20  C   UNL     1      -1.434   4.971 -32.096  1.00  0.00     0.012 A 
HETATM   21  C   UNL     1      -4.408   4.981 -34.308  1.00  0.00     0.013 A 
HETATM   22  C   UNL     1      -2.428   6.426 -34.252  1.00  0.00     0.012 A 
HETATM   23  C   UNL     1      -5.144   3.913 -33.786  1.00  0.00     0.009 A 
HETATM   24  C   UNL     1      -1.205   6.777 -33.678  1.00  0.00     0.001 A 
HETATM   25  C   UNL     1      -0.707   6.050 -32.601  1.00  0.00     0.001 A 
ENDBRANCH   8  16
TORSDOF 1
ENDMDL
MODEL 10
REMARK VINA RESULT:      -7.8     14.358     15.756
REMARK  1 active torsions:
REMARK  status: ('A' for Active; 'I' for Inactive)
REMARK    1  A    between atoms: C_8  and  C_9 
ROOT
HETATM    1  C   UNL     1      -6.898 -13.158 -34.242  1.00  0.00     0.073 C 
HETATM    2  C   UNL     1      -5.942 -14.108 -34.869  1.00  0.00     0.062 C 
HETATM    3  N   UNL     1      -5.633 -15.242 -34.233  1.00  0.00    -0.178 NA
HETATM    4  N   UNL     1      -4.824 -15.879 -35.086  1.00  0.00    -0.262 N 
HETATM    5  H   UNL     1      -4.473 -16.791 -34.817  1.00  0.00     0.191 HD
HETATM    6  C   UNL     1      -4.490 -15.135 -36.183  1.00  0.00     0.134 C 
HETATM    7  C   UNL     1      -5.284 -14.002 -36.140  1.00  0.00     0.032 C 
HETATM    8  C   UNL     1      -5.529 -12.936 -37.164  1.00  0.00     0.119 C 
HETATM    9  S   UNL     1      -4.187 -12.420 -38.275  1.00  0.00    -0.141 SA
HETATM   10  C   UNL     1      -2.747 -13.278 -37.583  1.00  0.00     0.136 C 
HETATM   11  C   UNL     1      -1.501 -12.657 -38.221  1.00  0.00     0.031 C 
HETATM   12  C   UNL     1      -2.794 -14.779 -37.884  1.00  0.00     0.236 C 
HETATM   13  O   UNL     1      -2.091 -15.316 -38.742  1.00  0.00    -0.272 OA
HETATM   14  N   UNL     1      -3.566 -15.585 -37.089  1.00  0.00    -0.311 N 
HETATM   15  H   UNL     1      -3.344 -16.573 -37.159  1.00  0.00     0.170 HD
ENDROOT
BRANCH   8  16
HETATM   16  C   UNL     1      -6.733 -13.413 -37.973  1.00  0.00    -0.039 A 
HETATM   17  C   UNL     1      -7.671 -12.511 -38.515  1.00  0.00     0.021 A 
HETATM   18  C   UNL     1      -8.803 -12.953 -39.219  1.00  0.00    -0.025 A 
HETATM   19  C   UNL     1      -9.010 -14.336 -39.396  1.00  0.00    -0.026 A 
HETATM   20  C   UNL     1      -9.739 -12.044 -39.739  1.00  0.00     0.012 A 
HETATM   21  C   UNL     1      -8.077 -15.239 -38.866  1.00  0.00     0.013 A 
HETATM   22  C   UNL     1     -10.150 -14.776 -40.089  1.00  0.00     0.012 A 
HETATM   23  C   UNL     1      -6.957 -14.786 -38.161  1.00  0.00     0.009 A 
HETATM   24  C   UNL     1     -11.073 -13.860 -40.599  1.00  0.00     0.001 A 
HETATM   25  C   UNL     1     -10.868 -12.495 -40.424  1.00  0.00     0.001 A 
ENDBRANCH   8  16
TORSDOF 1
ENDMDL
