MODEL 1
REMARK VINA RESULT:      -8.4      0.000      0.000
REMARK  2 active torsions:
REMARK  status: ('A' for Active; 'I' for Inactive)
REMARK    1  A    between atoms: N_9  and  N_11 
REMARK       I    between atoms: N_11  and  C_12 
REMARK    2  A    between atoms: C_12  and  C_13 
ROOT
HETATM    1  C   UNL     1     -10.844   0.068 -33.078  1.00  0.00     0.033 C 
HETATM    2  C   UNL     1      -9.638   1.006 -33.028  1.00  0.00     0.086 C 
HETATM    3  N   UNL     1     -10.010   2.295 -32.414  1.00  0.00    -0.379 N 
HETATM    4  C   UNL     1     -11.037   3.139 -33.028  1.00  0.00     0.150 C 
HETATM    5  C   UNL     1      -8.978   3.054 -31.823  1.00  0.00     0.052 A 
HETATM    6  C   UNL     1      -7.791   3.455 -32.486  1.00  0.00     0.040 A 
HETATM    7  N   UNL     1      -7.534   3.124 -33.862  1.00  0.00    -0.246 NA
HETATM    8  C   UNL     1      -7.675   1.756 -34.254  1.00  0.00     0.077 C 
HETATM    9  N   UNL     1      -6.545   1.080 -34.374  1.00  0.00    -0.291 N 
HETATM   10  H   UNL     1      -5.701   1.638 -34.198  1.00  0.00     0.188 HD
HETATM   11  C   UNL     1      -9.015   1.163 -34.420  1.00  0.00     0.096 C 
HETATM   12  C   UNL     1      -9.176   3.497 -30.505  1.00  0.00     0.031 A 
HETATM   13  C   UNL     1      -8.238   4.305 -29.860  1.00  0.00     0.002 A 
HETATM   14  C   UNL     1      -7.084   4.702 -30.529  1.00  0.00     0.002 A 
HETATM   15  C   UNL     1      -6.865   4.286 -31.841  1.00  0.00     0.026 A 
HETATM   16  H   UNL     1      -8.302   3.635 -34.310  1.00  0.00     0.135 HD
ENDROOT
BRANCH   9  17
HETATM   17  N   UNL     1      -6.395  -0.204 -34.658  1.00  0.00    -0.265 N 
HETATM   18  C   UNL     1      -5.517  -0.926 -33.865  1.00  0.00     0.270 C 
HETATM   19  O   UNL     1      -4.889  -0.412 -32.944  1.00  0.00    -0.266 OA
HETATM   20  H   UNL     1      -6.989  -0.655 -35.341  1.00  0.00     0.190 HD
BRANCH  18  21
HETATM   21  C   UNL     1      -5.409  -2.379 -34.160  1.00  0.00     0.033 A 
HETATM   22  C   UNL     1      -6.454  -3.101 -34.754  1.00  0.00     0.017 A 
HETATM   23  C   UNL     1      -6.310  -4.469 -34.990  1.00  0.00     0.001 A 
HETATM   24  C   UNL     1      -5.124  -5.118 -34.644  1.00  0.00     0.000 A 
HETATM   25  C   UNL     1      -4.074  -4.399 -34.074  1.00  0.00     0.001 A 
HETATM   26  C   UNL     1      -4.213  -3.031 -33.836  1.00  0.00     0.017 A 
ENDBRANCH  18  21
ENDBRANCH   9  17
TORSDOF 2
ENDMDL
MODEL 2
REMARK VINA RESULT:      -8.3      3.944      7.064
REMARK  2 active torsions:
REMARK  status: ('A' for Active; 'I' for Inactive)
REMARK    1  A    between atoms: N_9  and  N_11 
REMARK       I    between atoms: N_11  and  C_12 
REMARK    2  A    between atoms: C_12  and  C_13 
ROOT
HETATM    1  C   UNL     1      -6.870   5.072 -33.878  1.00  0.00     0.033 C 
HETATM    2  C   UNL     1      -6.511   3.703 -33.296  1.00  0.00     0.086 C 
HETATM    3  N   UNL     1      -7.476   2.681 -33.745  1.00  0.00    -0.379 N 
HETATM    4  C   UNL     1      -8.894   2.802 -33.408  1.00  0.00     0.150 C 
HETATM    5  C   UNL     1      -7.040   1.339 -33.754  1.00  0.00     0.052 A 
HETATM    6  C   UNL     1      -6.498   0.660 -32.634  1.00  0.00     0.040 A 
HETATM    7  N   UNL     1      -6.350   1.296 -31.352  1.00  0.00    -0.246 NA
HETATM    8  C   UNL     1      -5.690   2.564 -31.310  1.00  0.00     0.077 C 
HETATM    9  N   UNL     1      -4.430   2.536 -30.911  1.00  0.00    -0.291 N 
HETATM   10  H   UNL     1      -4.092   1.601 -30.652  1.00  0.00     0.188 HD
HETATM   11  C   UNL     1      -6.385   3.780 -31.771  1.00  0.00     0.096 C 
HETATM   12  C   UNL     1      -7.221   0.610 -34.941  1.00  0.00     0.031 A 
HETATM   13  C   UNL     1      -6.879  -0.742 -35.023  1.00  0.00     0.002 A 
HETATM   14  C   UNL     1      -6.359  -1.398 -33.911  1.00  0.00     0.002 A 
HETATM   15  C   UNL     1      -6.178  -0.701 -32.718  1.00  0.00     0.026 A 
HETATM   16  H   UNL     1      -7.335   1.473 -31.133  1.00  0.00     0.135 HD
ENDROOT
BRANCH   9  17
HETATM   17  N   UNL     1      -3.579   3.546 -30.844  1.00  0.00    -0.265 N 
HETATM   18  C   UNL     1      -2.679   3.684 -31.888  1.00  0.00     0.270 C 
HETATM   19  O   UNL     1      -2.650   2.905 -32.837  1.00  0.00    -0.266 OA
HETATM   20  H   UNL     1      -3.670   4.252 -30.124  1.00  0.00     0.190 HD
BRANCH  18  21
HETATM   21  C   UNL     1      -1.773   4.861 -31.825  1.00  0.00     0.033 A 
HETATM   22  C   UNL     1      -1.822   5.894 -32.772  1.00  0.00     0.017 A 
HETATM   23  C   UNL     1      -0.934   6.967 -32.679  1.00  0.00     0.001 A 
HETATM   24  C   UNL     1      -0.003   7.018 -31.641  1.00  0.00     0.000 A 
HETATM   25  C   UNL     1       0.034   6.003 -30.685  1.00  0.00     0.001 A 
HETATM   26  C   UNL     1      -0.852   4.929 -30.773  1.00  0.00     0.017 A 
ENDBRANCH  18  21
ENDBRANCH   9  17
TORSDOF 2
ENDMDL
MODEL 3
REMARK VINA RESULT:      -8.2      3.007      7.450
REMARK  2 active torsions:
REMARK  status: ('A' for Active; 'I' for Inactive)
REMARK    1  A    between atoms: N_9  and  N_11 
REMARK       I    between atoms: N_11  and  C_12 
REMARK    2  A    between atoms: C_12  and  C_13 
ROOT
HETATM    1  C   UNL     1      -7.571   3.009 -30.992  1.00  0.00     0.033 C 
HETATM    2  C   UNL     1      -7.667   2.050 -32.180  1.00  0.00     0.086 C 
HETATM    3  N   UNL     1      -6.324   1.593 -32.586  1.00  0.00    -0.379 N 
HETATM    4  C   UNL     1      -5.321   2.555 -33.042  1.00  0.00     0.150 C 
HETATM    5  C   UNL     1      -6.238   0.364 -33.274  1.00  0.00     0.052 A 
HETATM    6  C   UNL     1      -6.950   0.053 -34.460  1.00  0.00     0.040 A 
HETATM    7  N   UNL     1      -7.838   0.994 -35.088  1.00  0.00    -0.246 NA
HETATM    8  C   UNL     1      -8.832   1.618 -34.272  1.00  0.00     0.077 C 
HETATM    9  N   UNL     1     -10.051   1.118 -34.378  1.00  0.00    -0.291 N 
HETATM   10  H   UNL     1     -10.135   0.357 -35.063  1.00  0.00     0.188 HD
HETATM   11  C   UNL     1      -8.456   2.688 -33.329  1.00  0.00     0.096 C 
HETATM   12  C   UNL     1      -5.331  -0.589 -32.782  1.00  0.00     0.031 A 
HETATM   13  C   UNL     1      -5.132  -1.808 -33.433  1.00  0.00     0.002 A 
HETATM   14  C   UNL     1      -5.829  -2.094 -34.604  1.00  0.00     0.002 A 
HETATM   15  C   UNL     1      -6.728  -1.163 -35.121  1.00  0.00     0.026 A 
HETATM   16  H   UNL     1      -7.166   1.726 -35.339  1.00  0.00     0.135 HD
ENDROOT
BRANCH   9  17
HETATM   17  N   UNL     1     -11.131   1.463 -33.695  1.00  0.00    -0.265 N 
HETATM   18  C   UNL     1     -12.302   1.640 -34.414  1.00  0.00     0.270 C 
HETATM   19  O   UNL     1     -12.352   1.500 -35.632  1.00  0.00    -0.266 OA
HETATM   20  H   UNL     1     -11.121   1.471 -32.683  1.00  0.00     0.190 HD
BRANCH  18  21
HETATM   21  C   UNL     1     -13.517   1.966 -33.621  1.00  0.00     0.033 A 
HETATM   22  C   UNL     1     -13.505   2.922 -32.595  1.00  0.00     0.017 A 
HETATM   23  C   UNL     1     -14.668   3.175 -31.866  1.00  0.00     0.001 A 
HETATM   24  C   UNL     1     -15.845   2.487 -32.163  1.00  0.00     0.000 A 
HETATM   25  C   UNL     1     -15.866   1.553 -33.198  1.00  0.00     0.001 A 
HETATM   26  C   UNL     1     -14.706   1.295 -33.930  1.00  0.00     0.017 A 
ENDBRANCH  18  21
ENDBRANCH   9  17
TORSDOF 2
ENDMDL
MODEL 4
REMARK VINA RESULT:      -8.1      4.266      6.078
REMARK  2 active torsions:
REMARK  status: ('A' for Active; 'I' for Inactive)
REMARK    1  A    between atoms: N_9  and  N_11 
REMARK       I    between atoms: N_11  and  C_12 
REMARK    2  A    between atoms: C_12  and  C_13 
ROOT
HETATM    1  C   UNL     1      -3.218   5.503 -35.108  1.00  0.00     0.033 C 
HETATM    2  C   UNL     1      -3.173   5.469 -33.579  1.00  0.00     0.086 C 
HETATM    3  N   UNL     1      -2.618   6.729 -33.049  1.00  0.00    -0.379 N 
HETATM    4  C   UNL     1      -1.257   7.141 -33.393  1.00  0.00     0.150 C 
HETATM    5  C   UNL     1      -2.969   7.088 -31.730  1.00  0.00     0.052 A 
HETATM    6  C   UNL     1      -2.780   6.263 -30.593  1.00  0.00     0.040 A 
HETATM    7  N   UNL     1      -2.186   4.955 -30.687  1.00  0.00    -0.246 NA
HETATM    8  C   UNL     1      -2.722   4.050 -31.655  1.00  0.00     0.077 C 
HETATM    9  N   UNL     1      -3.538   3.125 -31.179  1.00  0.00    -0.291 N 
HETATM   10  H   UNL     1      -3.661   3.158 -30.160  1.00  0.00     0.188 HD
HETATM   11  C   UNL     1      -2.419   4.228 -33.087  1.00  0.00     0.096 C 
HETATM   12  C   UNL     1      -3.480   8.380 -31.527  1.00  0.00     0.031 A 
HETATM   13  C   UNL     1      -3.795   8.845 -30.249  1.00  0.00     0.002 A 
HETATM   14  C   UNL     1      -3.592   8.028 -29.141  1.00  0.00     0.002 A 
HETATM   15  C   UNL     1      -3.077   6.744 -29.311  1.00  0.00     0.026 A 
HETATM   16  H   UNL     1      -1.251   5.213 -31.015  1.00  0.00     0.135 HD
ENDROOT
BRANCH   9  17
HETATM   17  N   UNL     1      -4.214   2.213 -31.859  1.00  0.00    -0.265 N 
HETATM   18  C   UNL     1      -3.733   0.915 -31.823  1.00  0.00     0.270 C 
HETATM   19  O   UNL     1      -2.720   0.607 -31.203  1.00  0.00    -0.266 OA
HETATM   20  H   UNL     1      -5.107   2.439 -32.279  1.00  0.00     0.190 HD
BRANCH  18  21
HETATM   21  C   UNL     1      -4.541  -0.106 -32.541  1.00  0.00     0.033 A 
HETATM   22  C   UNL     1      -3.955  -1.207 -33.182  1.00  0.00     0.017 A 
HETATM   23  C   UNL     1      -4.758  -2.125 -33.861  1.00  0.00     0.001 A 
HETATM   24  C   UNL     1      -6.142  -1.955 -33.896  1.00  0.00     0.000 A 
HETATM   25  C   UNL     1      -6.730  -0.873 -33.242  1.00  0.00     0.001 A 
HETATM   26  C   UNL     1      -5.933   0.048 -32.561  1.00  0.00     0.017 A 
ENDBRANCH  18  21
ENDBRANCH   9  17
TORSDOF 2
ENDMDL
MODEL 5
REMARK VINA RESULT:      -7.9      1.447      1.875
REMARK  2 active torsions:
REMARK  status: ('A' for Active; 'I' for Inactive)
REMARK    1  A    between atoms: N_9  and  N_11 
REMARK       I    between atoms: N_11  and  C_12 
REMARK    2  A    between atoms: C_12  and  C_13 
ROOT
HETATM    1  C   UNL     1      -9.521   2.552 -34.159  1.00  0.00     0.033 C 
HETATM    2  C   UNL     1      -8.248   2.738 -33.331  1.00  0.00     0.086 C 
HETATM    3  N   UNL     1      -8.236   4.068 -32.692  1.00  0.00    -0.379 N 
HETATM    4  C   UNL     1      -8.257   5.282 -33.508  1.00  0.00     0.150 C 
HETATM    5  C   UNL     1      -7.455   4.220 -31.527  1.00  0.00     0.052 A 
HETATM    6  C   UNL     1      -6.074   3.915 -31.437  1.00  0.00     0.040 A 
HETATM    7  N   UNL     1      -5.325   3.419 -32.561  1.00  0.00    -0.246 NA
HETATM    8  C   UNL     1      -5.856   2.298 -33.272  1.00  0.00     0.077 C 
HETATM    9  N   UNL     1      -5.300   1.132 -32.993  1.00  0.00    -0.291 N 
HETATM   10  H   UNL     1      -4.530   1.185 -32.315  1.00  0.00     0.188 HD
HETATM   11  C   UNL     1      -7.003   2.471 -34.183  1.00  0.00     0.096 C 
HETATM   12  C   UNL     1      -8.080   4.777 -30.399  1.00  0.00     0.031 A 
HETATM   13  C   UNL     1      -7.371   5.023 -29.221  1.00  0.00     0.002 A 
HETATM   14  C   UNL     1      -6.012   4.730 -29.153  1.00  0.00     0.002 A 
HETATM   15  C   UNL     1      -5.363   4.186 -30.260  1.00  0.00     0.026 A 
HETATM   16  H   UNL     1      -5.402   4.225 -33.189  1.00  0.00     0.135 HD
ENDROOT
BRANCH   9  17
HETATM   17  N   UNL     1      -5.642  -0.060 -33.454  1.00  0.00    -0.265 N 
HETATM   18  C   UNL     1      -4.634  -1.003 -33.572  1.00  0.00     0.270 C 
HETATM   19  O   UNL     1      -3.468  -0.758 -33.277  1.00  0.00    -0.266 OA
HETATM   20  H   UNL     1      -6.615  -0.301 -33.593  1.00  0.00     0.190 HD
BRANCH  18  21
HETATM   21  C   UNL     1      -5.048  -2.354 -34.033  1.00  0.00     0.033 A 
HETATM   22  C   UNL     1      -6.306  -2.595 -34.605  1.00  0.00     0.017 A 
HETATM   23  C   UNL     1      -6.654  -3.888 -35.003  1.00  0.00     0.001 A 
HETATM   24  C   UNL     1      -5.750  -4.938 -34.841  1.00  0.00     0.000 A 
HETATM   25  C   UNL     1      -4.490  -4.697 -34.293  1.00  0.00     0.001 A 
HETATM   26  C   UNL     1      -4.137  -3.408 -33.894  1.00  0.00     0.017 A 
ENDBRANCH  18  21
ENDBRANCH   9  17
TORSDOF 2
ENDMDL
MODEL 6
REMARK VINA RESULT:      -7.9      3.072      4.937
REMARK  2 active torsions:
REMARK  status: ('A' for Active; 'I' for Inactive)
REMARK    1  A    between atoms: N_9  and  N_11 
REMARK       I    between atoms: N_11  and  C_12 
REMARK    2  A    between atoms: C_12  and  C_13 
ROOT
HETATM    1  C   UNL     1      -2.131   4.422 -33.514  1.00  0.00     0.033 C 
HETATM    2  C   UNL     1      -3.296   4.389 -32.523  1.00  0.00     0.086 C 
HETATM    3  N   UNL     1      -3.384   5.664 -31.785  1.00  0.00    -0.379 N 
HETATM    4  C   UNL     1      -2.272   6.111 -30.946  1.00  0.00     0.150 C 
HETATM    5  C   UNL     1      -4.638   6.013 -31.242  1.00  0.00     0.052 A 
HETATM    6  C   UNL     1      -5.394   5.194 -30.367  1.00  0.00     0.040 A 
HETATM    7  N   UNL     1      -4.930   3.902 -29.935  1.00  0.00    -0.246 NA
HETATM    8  C   UNL     1      -4.493   2.983 -30.939  1.00  0.00     0.077 C 
HETATM    9  N   UNL     1      -5.360   2.038 -31.260  1.00  0.00    -0.291 N 
HETATM   10  H   UNL     1      -6.233   2.068 -30.720  1.00  0.00     0.188 HD
HETATM   11  C   UNL     1      -3.189   3.169 -31.601  1.00  0.00     0.096 C 
HETATM   12  C   UNL     1      -5.137   7.292 -31.540  1.00  0.00     0.031 A 
HETATM   13  C   UNL     1      -6.339   7.749 -30.997  1.00  0.00     0.002 A 
HETATM   14  C   UNL     1      -7.064   6.938 -30.129  1.00  0.00     0.002 A 
HETATM   15  C   UNL     1      -6.589   5.668 -29.807  1.00  0.00     0.026 A 
HETATM   16  H   UNL     1      -4.093   4.185 -29.415  1.00  0.00     0.135 HD
ENDROOT
BRANCH   9  17
HETATM   17  N   UNL     1      -5.237   1.108 -32.193  1.00  0.00    -0.265 N 
HETATM   18  C   UNL     1      -5.757  -0.144 -31.910  1.00  0.00     0.270 C 
HETATM   19  O   UNL     1      -6.301  -0.402 -30.840  1.00  0.00    -0.266 OA
HETATM   20  H   UNL     1      -4.891   1.345 -33.115  1.00  0.00     0.190 HD
BRANCH  18  21
HETATM   21  C   UNL     1      -5.664  -1.156 -32.995  1.00  0.00     0.033 A 
HETATM   22  C   UNL     1      -4.465  -1.817 -33.299  1.00  0.00     0.017 A 
HETATM   23  C   UNL     1      -4.427  -2.743 -34.343  1.00  0.00     0.001 A 
HETATM   24  C   UNL     1      -5.581  -3.020 -35.077  1.00  0.00     0.000 A 
HETATM   25  C   UNL     1      -6.780  -2.382 -34.762  1.00  0.00     0.001 A 
HETATM   26  C   UNL     1      -6.824  -1.454 -33.720  1.00  0.00     0.017 A 
ENDBRANCH  18  21
ENDBRANCH   9  17
TORSDOF 2
ENDMDL
MODEL 7
REMARK VINA RESULT:      -7.9     14.786     16.903
REMARK  2 active torsions:
REMARK  status: ('A' for Active; 'I' for Inactive)
REMARK    1  A    between atoms: N_9  and  N_11 
REMARK       I    between atoms: N_11  and  C_12 
REMARK    2  A    between atoms: C_12  and  C_13 
ROOT
HETATM    1  C   UNL     1      -4.842 -15.023 -36.166  1.00  0.00     0.033 C 
HETATM    2  C   UNL     1      -4.047 -14.380 -37.304  1.00  0.00     0.086 C 
HETATM    3  N   UNL     1      -2.614 -14.708 -37.183  1.00  0.00    -0.379 N 
HETATM    4  C   UNL     1      -1.857 -14.295 -36.001  1.00  0.00     0.150 C 
HETATM    5  C   UNL     1      -1.837 -14.660 -38.360  1.00  0.00     0.052 A 
HETATM    6  C   UNL     1      -1.739 -13.535 -39.216  1.00  0.00     0.040 A 
HETATM    7  N   UNL     1      -2.435 -12.305 -38.946  1.00  0.00    -0.246 NA
HETATM    8  C   UNL     1      -3.836 -12.380 -38.673  1.00  0.00     0.077 C 
HETATM    9  N   UNL     1      -4.630 -12.055 -39.678  1.00  0.00    -0.291 N 
HETATM   10  H   UNL     1      -4.133 -11.759 -40.527  1.00  0.00     0.188 HD
HETATM   11  C   UNL     1      -4.314 -12.872 -37.367  1.00  0.00     0.096 C 
HETATM   12  C   UNL     1      -1.055 -15.787 -38.663  1.00  0.00     0.031 A 
HETATM   13  C   UNL     1      -0.207 -15.807 -39.772  1.00  0.00     0.002 A 
HETATM   14  C   UNL     1      -0.112 -14.689 -40.596  1.00  0.00     0.002 A 
HETATM   15  C   UNL     1      -0.868 -13.553 -40.314  1.00  0.00     0.026 A 
HETATM   16  H   UNL     1      -1.981 -12.039 -38.066  1.00  0.00     0.135 HD
ENDROOT
BRANCH   9  17
HETATM   17  N   UNL     1      -5.952 -12.100 -39.715  1.00  0.00    -0.265 N 
HETATM   18  C   UNL     1      -6.528 -13.180 -40.364  1.00  0.00     0.270 C 
HETATM   19  O   UNL     1      -5.858 -14.059 -40.897  1.00  0.00    -0.266 OA
HETATM   20  H   UNL     1      -6.506 -11.440 -39.185  1.00  0.00     0.190 HD
BRANCH  18  21
HETATM   21  C   UNL     1      -8.013 -13.245 -40.340  1.00  0.00     0.033 A 
HETATM   22  C   UNL     1      -8.709 -14.460 -40.423  1.00  0.00     0.017 A 
HETATM   23  C   UNL     1     -10.105 -14.464 -40.419  1.00  0.00     0.001 A 
HETATM   24  C   UNL     1     -10.809 -13.263 -40.323  1.00  0.00     0.000 A 
HETATM   25  C   UNL     1     -10.120 -12.055 -40.217  1.00  0.00     0.001 A 
HETATM   26  C   UNL     1      -8.724 -12.045 -40.221  1.00  0.00     0.017 A 
ENDBRANCH  18  21
ENDBRANCH   9  17
TORSDOF 2
ENDMDL
MODEL 8
REMARK VINA RESULT:      -7.9      2.455      4.047
REMARK  2 active torsions:
REMARK  status: ('A' for Active; 'I' for Inactive)
REMARK    1  A    between atoms: N_9  and  N_11 
REMARK       I    between atoms: N_11  and  C_12 
REMARK    2  A    between atoms: C_12  and  C_13 
ROOT
HETATM    1  C   UNL     1      -3.736   3.760 -32.011  1.00  0.00     0.033 C 
HETATM    2  C   UNL     1      -5.145   3.586 -31.443  1.00  0.00     0.086 C 
HETATM    3  N   UNL     1      -5.679   4.881 -30.978  1.00  0.00    -0.379 N 
HETATM    4  C   UNL     1      -5.001   5.622 -29.913  1.00  0.00     0.150 C 
HETATM    5  C   UNL     1      -7.081   5.020 -30.917  1.00  0.00     0.052 A 
HETATM    6  C   UNL     1      -7.947   4.151 -30.206  1.00  0.00     0.040 A 
HETATM    7  N   UNL     1      -7.455   3.027 -29.455  1.00  0.00    -0.246 NA
HETATM    8  C   UNL     1      -6.565   2.124 -30.115  1.00  0.00     0.077 C 
HETATM    9  N   UNL     1      -7.110   0.997 -30.539  1.00  0.00    -0.291 N 
HETATM   10  H   UNL     1      -8.107   0.901 -30.312  1.00  0.00     0.188 HD
HETATM   11  C   UNL     1      -5.162   2.506 -30.356  1.00  0.00     0.096 C 
HETATM   12  C   UNL     1      -7.647   6.137 -31.552  1.00  0.00     0.031 A 
HETATM   13  C   UNL     1      -9.019   6.391 -31.491  1.00  0.00     0.002 A 
HETATM   14  C   UNL     1      -9.855   5.536 -30.779  1.00  0.00     0.002 A 
HETATM   15  C   UNL     1      -9.319   4.424 -30.131  1.00  0.00     0.026 A 
HETATM   16  H   UNL     1      -6.899   3.521 -28.750  1.00  0.00     0.135 HD
ENDROOT
BRANCH   9  17
HETATM   17  N   UNL     1      -6.533   0.027 -31.230  1.00  0.00    -0.265 N 
HETATM   18  C   UNL     1      -6.984  -0.180 -32.524  1.00  0.00     0.270 C 
HETATM   19  O   UNL     1      -7.886   0.488 -33.020  1.00  0.00    -0.266 OA
HETATM   20  H   UNL     1      -5.718  -0.451 -30.868  1.00  0.00     0.190 HD
BRANCH  18  21
HETATM   21  C   UNL     1      -6.281  -1.232 -33.304  1.00  0.00     0.033 A 
HETATM   22  C   UNL     1      -4.895  -1.426 -33.218  1.00  0.00     0.017 A 
HETATM   23  C   UNL     1      -4.281  -2.414 -33.989  1.00  0.00     0.001 A 
HETATM   24  C   UNL     1      -5.044  -3.215 -34.838  1.00  0.00     0.000 A 
HETATM   25  C   UNL     1      -6.426  -3.040 -34.910  1.00  0.00     0.001 A 
HETATM   26  C   UNL     1      -7.045  -2.054 -34.141  1.00  0.00     0.017 A 
ENDBRANCH  18  21
ENDBRANCH   9  17
TORSDOF 2
ENDMDL
MODEL 9
REMARK VINA RESULT:      -7.8      1.942      3.944
REMARK  2 active torsions:
REMARK  status: ('A' for Active; 'I' for Inactive)
REMARK    1  A    between atoms: N_9  and  N_11 
REMARK       I    between atoms: N_11  and  C_12 
REMARK    2  A    between atoms: C_12  and  C_13 
ROOT
HETATM    1  C   UNL     1      -7.238   3.916 -31.884  1.00  0.00     0.033 C 
HETATM    2  C   UNL     1      -8.532   3.375 -32.495  1.00  0.00     0.086 C 
HETATM    3  N   UNL     1      -9.524   4.457 -32.644  1.00  0.00    -0.379 N 
HETATM    4  C   UNL     1     -10.012   5.182 -31.471  1.00  0.00     0.150 C 
HETATM    5  C   UNL     1     -10.527   4.285 -33.622  1.00  0.00     0.052 A 
HETATM    6  C   UNL     1     -11.397   3.168 -33.696  1.00  0.00     0.040 A 
HETATM    7  N   UNL     1     -11.339   2.088 -32.748  1.00  0.00    -0.246 NA
HETATM    8  C   UNL     1     -10.065   1.487 -32.503  1.00  0.00     0.077 C 
HETATM    9  N   UNL     1      -9.854   0.333 -33.113  1.00  0.00    -0.291 N 
HETATM   10  H   UNL     1     -10.651  -0.001 -33.667  1.00  0.00     0.188 HD
HETATM   11  C   UNL     1      -9.058   2.186 -31.684  1.00  0.00     0.096 C 
HETATM   12  C   UNL     1     -10.716   5.328 -34.543  1.00  0.00     0.031 A 
HETATM   13  C   UNL     1     -11.726   5.275 -35.506  1.00  0.00     0.002 A 
HETATM   14  C   UNL     1     -12.581   4.178 -35.558  1.00  0.00     0.002 A 
HETATM   15  C   UNL     1     -12.423   3.132 -34.651  1.00  0.00     0.026 A 
HETATM   16  H   UNL     1     -11.591   2.594 -31.893  1.00  0.00     0.135 HD
ENDROOT
BRANCH   9  17
HETATM   17  N   UNL     1      -8.749  -0.395 -33.110  1.00  0.00    -0.265 N 
HETATM   18  C   UNL     1      -7.947  -0.329 -34.237  1.00  0.00     0.270 C 
HETATM   19  O   UNL     1      -8.239   0.359 -35.211  1.00  0.00    -0.266 OA
HETATM   20  H   UNL     1      -8.449  -0.875 -32.270  1.00  0.00     0.190 HD
BRANCH  18  21
HETATM   21  C   UNL     1      -6.680  -1.106 -34.189  1.00  0.00     0.033 A 
HETATM   22  C   UNL     1      -5.514  -0.597 -33.599  1.00  0.00     0.017 A 
HETATM   23  C   UNL     1      -4.344  -1.359 -33.599  1.00  0.00     0.001 A 
HETATM   24  C   UNL     1      -4.335  -2.628 -34.178  1.00  0.00     0.000 A 
HETATM   25  C   UNL     1      -5.499  -3.146 -34.746  1.00  0.00     0.001 A 
HETATM   26  C   UNL     1      -6.671  -2.389 -34.748  1.00  0.00     0.017 A 
ENDBRANCH  18  21
ENDBRANCH   9  17
TORSDOF 2
ENDMDL
MODEL 10
REMARK VINA RESULT:      -7.7      4.696      6.937
REMARK  2 active torsions:
REMARK  status: ('A' for Active; 'I' for Inactive)
REMARK    1  A    between atoms: N_9  and  N_11 
REMARK       I    between atoms: N_11  and  C_12 
REMARK    2  A    between atoms: C_12  and  C_13 
ROOT
HETATM    1  C   UNL     1      -3.824   5.236 -35.019  1.00  0.00     0.033 C 
HETATM    2  C   UNL     1      -3.297   5.258 -33.583  1.00  0.00     0.086 C 
HETATM    3  N   UNL     1      -2.359   6.381 -33.394  1.00  0.00    -0.379 N 
HETATM    4  C   UNL     1      -1.127   6.458 -34.180  1.00  0.00     0.150 C 
HETATM    5  C   UNL     1      -2.187   6.868 -32.081  1.00  0.00     0.052 A 
HETATM    6  C   UNL     1      -1.813   6.072 -30.969  1.00  0.00     0.040 A 
HETATM    7  N   UNL     1      -1.558   4.661 -31.089  1.00  0.00    -0.246 NA
HETATM    8  C   UNL     1      -2.548   3.860 -31.739  1.00  0.00     0.077 C 
HETATM    9  N   UNL     1      -3.336   3.167 -30.936  1.00  0.00    -0.291 N 
HETATM   10  H   UNL     1      -3.116   3.271 -29.938  1.00  0.00     0.188 HD
HETATM   11  C   UNL     1      -2.692   3.902 -33.206  1.00  0.00     0.096 C 
HETATM   12  C   UNL     1      -2.333   8.250 -31.880  1.00  0.00     0.031 A 
HETATM   13  C   UNL     1      -2.120   8.830 -30.628  1.00  0.00     0.002 A 
HETATM   14  C   UNL     1      -1.740   8.038 -29.549  1.00  0.00     0.002 A 
HETATM   15  C   UNL     1      -1.578   6.664 -29.721  1.00  0.00     0.026 A 
HETATM   16  H   UNL     1      -0.746   4.685 -31.714  1.00  0.00     0.135 HD
ENDROOT
BRANCH   9  17
HETATM   17  N   UNL     1      -4.364   2.404 -31.270  1.00  0.00    -0.265 N 
HETATM   18  C   UNL     1      -5.630   2.907 -31.019  1.00  0.00     0.270 C 
HETATM   19  O   UNL     1      -5.810   4.005 -30.500  1.00  0.00    -0.266 OA
HETATM   20  H   UNL     1      -4.225   1.551 -31.796  1.00  0.00     0.190 HD
BRANCH  18  21
HETATM   21  C   UNL     1      -6.772   2.062 -31.458  1.00  0.00     0.033 A 
HETATM   22  C   UNL     1      -8.102   2.384 -31.149  1.00  0.00     0.017 A 
HETATM   23  C   UNL     1      -9.137   1.545 -31.567  1.00  0.00     0.001 A 
HETATM   24  C   UNL     1      -8.851   0.392 -32.298  1.00  0.00     0.000 A 
HETATM   25  C   UNL     1      -7.532   0.081 -32.626  1.00  0.00     0.001 A 
HETATM   26  C   UNL     1      -6.494   0.916 -32.212  1.00  0.00     0.017 A 
ENDBRANCH  18  21
ENDBRANCH   9  17
TORSDOF 2
ENDMDL
