MODEL 1
REMARK VINA RESULT:      -8.9      0.000      0.000
REMARK  4 active torsions:
REMARK  status: ('A' for Active; 'I' for Inactive)
REMARK    1  A    between atoms: C_4  and  N_5 
REMARK       I    between atoms: N_5  and  C_6 
REMARK    2  A    between atoms: C_6  and  C_7 
REMARK    3  A    between atoms: C_7  and  C_8 
REMARK    4  A    between atoms: C_10  and  O_11 
ROOT
HETATM    1  N   UNL     1      -7.888  -0.276 -33.201  1.00  0.00    -0.325 N 
HETATM    2  C   UNL     1      -8.514   0.561 -34.099  1.00  0.00     0.226 C 
HETATM    3  O   UNL     1      -8.364   0.549 -35.319  1.00  0.00    -0.273 OA
HETATM    4  H   UNL     1      -8.224  -0.318 -32.241  1.00  0.00     0.169 HD
ENDROOT
BRANCH   1   5
HETATM    5  C   UNL     1      -6.833  -1.188 -33.451  1.00  0.00     0.065 A 
HETATM    6  C   UNL     1      -6.962  -2.280 -34.317  1.00  0.00     0.038 A 
HETATM    7  C   UNL     1      -5.877  -3.124 -34.568  1.00  0.00    -0.059 A 
HETATM    8  C   UNL     1      -6.006  -4.283 -35.511  1.00  0.00     0.048 C 
HETATM    9  C   UNL     1      -4.663  -2.874 -33.923  1.00  0.00     0.020 A 
HETATM   10  C   UNL     1      -4.526  -1.781 -33.051  1.00  0.00    -0.005 A 
HETATM   11  C   UNL     1      -5.614  -0.916 -32.811  1.00  0.00     0.093 A 
HETATM   12  C   UNL     1      -3.313  -1.517 -32.399  1.00  0.00     0.015 A 
HETATM   13  N   UNL     1      -5.507   0.154 -31.983  1.00  0.00    -0.258 NA
HETATM   14  C   UNL     1      -4.320   0.370 -31.371  1.00  0.00     0.117 A 
HETATM   15  C   UNL     1      -3.207  -0.428 -31.545  1.00  0.00     0.020 A 
ENDBRANCH   1   5
BRANCH   2  16
HETATM   16  C   UNL     1      -9.434   1.578 -33.436  1.00  0.00     0.141 C 
BRANCH  16  17
HETATM   17  C   UNL     1     -10.881   1.361 -33.819  1.00  0.00    -0.047 A 
HETATM   18  C   UNL     1     -11.588   0.258 -33.311  1.00  0.00     0.044 A 
HETATM   19  C   UNL     1     -12.907   0.039 -33.693  1.00  0.00     0.066 A 
HETATM   20  C   UNL     1     -13.550   0.911 -34.562  1.00  0.00     0.036 A 
HETATM   21  C   UNL     1     -12.862   2.016 -35.062  1.00  0.00     0.003 A 
HETATM   22  C   UNL     1     -11.532   2.239 -34.695  1.00  0.00     0.007 A 
BRANCH  19  23
HETATM   23  O   UNL     1     -13.606  -1.040 -33.237  1.00  0.00    -0.361 OA
HETATM   24  H   UNL     1     -14.381  -0.714 -32.749  1.00  0.00     0.217 HD
ENDBRANCH  19  23
ENDBRANCH  16  17
ENDBRANCH   2  16
TORSDOF 4
ENDMDL
MODEL 2
REMARK VINA RESULT:      -8.4      1.923      2.599
REMARK  4 active torsions:
REMARK  status: ('A' for Active; 'I' for Inactive)
REMARK    1  A    between atoms: C_4  and  N_5 
REMARK       I    between atoms: N_5  and  C_6 
REMARK    2  A    between atoms: C_6  and  C_7 
REMARK    3  A    between atoms: C_7  and  C_8 
REMARK    4  A    between atoms: C_10  and  O_11 
ROOT
HETATM    1  N   UNL     1      -9.085   1.207 -33.866  1.00  0.00    -0.325 N 
HETATM    2  C   UNL     1     -10.424   0.929 -33.698  1.00  0.00     0.226 C 
HETATM    3  O   UNL     1     -10.889  -0.023 -33.075  1.00  0.00    -0.273 OA
HETATM    4  H   UNL     1      -8.806   2.117 -34.227  1.00  0.00     0.169 HD
ENDROOT
BRANCH   1   5
HETATM    5  C   UNL     1      -7.977   0.394 -33.522  1.00  0.00     0.065 A 
HETATM    6  C   UNL     1      -7.533  -0.664 -34.324  1.00  0.00     0.038 A 
HETATM    7  C   UNL     1      -6.404  -1.406 -33.965  1.00  0.00    -0.059 A 
HETATM    8  C   UNL     1      -5.915  -2.528 -34.833  1.00  0.00     0.048 C 
HETATM    9  C   UNL     1      -5.737  -1.091 -32.779  1.00  0.00     0.020 A 
HETATM   10  C   UNL     1      -6.177  -0.032 -31.968  1.00  0.00    -0.005 A 
HETATM   11  C   UNL     1      -7.304   0.732 -32.337  1.00  0.00     0.093 A 
HETATM   12  C   UNL     1      -5.515   0.297 -30.777  1.00  0.00     0.015 A 
HETATM   13  N   UNL     1      -7.745   1.768 -31.579  1.00  0.00    -0.258 NA
HETATM   14  C   UNL     1      -7.079   2.048 -30.435  1.00  0.00     0.117 A 
HETATM   15  C   UNL     1      -5.972   1.350 -29.997  1.00  0.00     0.020 A 
ENDBRANCH   1   5
BRANCH   2  16
HETATM   16  C   UNL     1     -11.339   1.921 -34.404  1.00  0.00     0.141 C 
BRANCH  16  17
HETATM   17  C   UNL     1     -12.770   1.802 -33.928  1.00  0.00    -0.047 A 
HETATM   18  C   UNL     1     -13.690   1.018 -34.644  1.00  0.00     0.044 A 
HETATM   19  C   UNL     1     -15.014   0.940 -34.225  1.00  0.00     0.066 A 
HETATM   20  C   UNL     1     -15.443   1.616 -33.090  1.00  0.00     0.036 A 
HETATM   21  C   UNL     1     -14.535   2.387 -32.365  1.00  0.00     0.003 A 
HETATM   22  C   UNL     1     -13.205   2.483 -32.783  1.00  0.00     0.007 A 
BRANCH  19  23
HETATM   23  O   UNL     1     -15.933   0.208 -34.919  1.00  0.00    -0.361 OA
HETATM   24  H   UNL     1     -16.273   0.759 -35.643  1.00  0.00     0.217 HD
ENDBRANCH  19  23
ENDBRANCH  16  17
ENDBRANCH   2  16
TORSDOF 4
ENDMDL
MODEL 3
REMARK VINA RESULT:      -8.4      3.751      6.714
REMARK  4 active torsions:
REMARK  status: ('A' for Active; 'I' for Inactive)
REMARK    1  A    between atoms: C_4  and  N_5 
REMARK       I    between atoms: N_5  and  C_6 
REMARK    2  A    between atoms: C_6  and  C_7 
REMARK    3  A    between atoms: C_7  and  C_8 
REMARK    4  A    between atoms: C_10  and  O_11 
ROOT
HETATM    1  N   UNL     1      -3.544   0.870 -32.593  1.00  0.00    -0.325 N 
HETATM    2  C   UNL     1      -3.941   1.590 -31.487  1.00  0.00     0.226 C 
HETATM    3  O   UNL     1      -4.770   1.230 -30.654  1.00  0.00    -0.273 OA
HETATM    4  H   UNL     1      -2.717   1.165 -33.109  1.00  0.00     0.169 HD
ENDROOT
BRANCH   1   5
HETATM    5  C   UNL     1      -4.108  -0.326 -33.102  1.00  0.00     0.065 A 
HETATM    6  C   UNL     1      -3.524  -1.583 -32.909  1.00  0.00     0.038 A 
HETATM    7  C   UNL     1      -4.146  -2.739 -33.389  1.00  0.00    -0.059 A 
HETATM    8  C   UNL     1      -3.532  -4.090 -33.167  1.00  0.00     0.048 C 
HETATM    9  C   UNL     1      -5.350  -2.619 -34.086  1.00  0.00     0.020 A 
HETATM   10  C   UNL     1      -5.942  -1.361 -34.285  1.00  0.00    -0.005 A 
HETATM   11  C   UNL     1      -5.328  -0.194 -33.784  1.00  0.00     0.093 A 
HETATM   12  C   UNL     1      -7.152  -1.227 -34.980  1.00  0.00     0.015 A 
HETATM   13  N   UNL     1      -5.882   1.034 -33.952  1.00  0.00    -0.258 NA
HETATM   14  C   UNL     1      -7.048   1.118 -34.632  1.00  0.00     0.117 A 
HETATM   15  C   UNL     1      -7.714   0.030 -35.159  1.00  0.00     0.020 A 
ENDBRANCH   1   5
BRANCH   2  16
HETATM   16  C   UNL     1      -3.266   2.951 -31.378  1.00  0.00     0.141 C 
BRANCH  16  17
HETATM   17  C   UNL     1      -3.408   3.753 -32.653  1.00  0.00    -0.047 A 
HETATM   18  C   UNL     1      -2.267   4.130 -33.380  1.00  0.00     0.044 A 
HETATM   19  C   UNL     1      -2.397   4.898 -34.533  1.00  0.00     0.066 A 
HETATM   20  C   UNL     1      -3.649   5.287 -34.991  1.00  0.00     0.036 A 
HETATM   21  C   UNL     1      -4.789   4.908 -34.284  1.00  0.00     0.003 A 
HETATM   22  C   UNL     1      -4.670   4.146 -33.118  1.00  0.00     0.007 A 
BRANCH  19  23
HETATM   23  O   UNL     1      -1.303   5.302 -35.241  1.00  0.00    -0.361 OA
HETATM   24  H   UNL     1      -1.378   6.258 -35.395  1.00  0.00     0.217 HD
ENDBRANCH  19  23
ENDBRANCH  16  17
ENDBRANCH   2  16
TORSDOF 4
ENDMDL
MODEL 4
REMARK VINA RESULT:      -8.2      2.399      6.953
REMARK  4 active torsions:
REMARK  status: ('A' for Active; 'I' for Inactive)
REMARK    1  A    between atoms: C_4  and  N_5 
REMARK       I    between atoms: N_5  and  C_6 
REMARK    2  A    between atoms: C_6  and  C_7 
REMARK    3  A    between atoms: C_7  and  C_8 
REMARK    4  A    between atoms: C_10  and  O_11 
ROOT
HETATM    1  N   UNL     1      -7.520   0.638 -33.348  1.00  0.00    -0.325 N 
HETATM    2  C   UNL     1      -6.650   0.188 -34.318  1.00  0.00     0.226 C 
HETATM    3  O   UNL     1      -6.783   0.339 -35.530  1.00  0.00    -0.273 OA
HETATM    4  H   UNL     1      -7.226   0.635 -32.374  1.00  0.00     0.169 HD
ENDROOT
BRANCH   1   5
HETATM    5  C   UNL     1      -8.808   1.201 -33.528  1.00  0.00     0.065 A 
HETATM    6  C   UNL     1      -9.981   0.438 -33.505  1.00  0.00     0.038 A 
HETATM    7  C   UNL     1     -11.231   1.048 -33.638  1.00  0.00    -0.059 A 
HETATM    8  C   UNL     1     -12.491   0.235 -33.594  1.00  0.00     0.048 C 
HETATM    9  C   UNL     1     -11.292   2.432 -33.817  1.00  0.00     0.020 A 
HETATM   10  C   UNL     1     -10.120   3.205 -33.843  1.00  0.00    -0.005 A 
HETATM   11  C   UNL     1      -8.857   2.595 -33.689  1.00  0.00     0.093 A 
HETATM   12  C   UNL     1     -10.167   4.594 -34.019  1.00  0.00     0.015 A 
HETATM   13  N   UNL     1      -7.708   3.317 -33.698  1.00  0.00    -0.258 NA
HETATM   14  C   UNL     1      -7.799   4.655 -33.875  1.00  0.00     0.117 A 
HETATM   15  C   UNL     1      -8.991   5.332 -34.038  1.00  0.00     0.020 A 
ENDBRANCH   1   5
BRANCH   2  16
HETATM   16  C   UNL     1      -5.462  -0.580 -33.753  1.00  0.00     0.141 C 
BRANCH  16  17
HETATM   17  C   UNL     1      -5.533  -2.053 -34.088  1.00  0.00    -0.047 A 
HETATM   18  C   UNL     1      -4.392  -2.862 -33.960  1.00  0.00     0.044 A 
HETATM   19  C   UNL     1      -4.451  -4.209 -34.303  1.00  0.00     0.066 A 
HETATM   20  C   UNL     1      -5.634  -4.777 -34.757  1.00  0.00     0.036 A 
HETATM   21  C   UNL     1      -6.775  -3.986 -34.876  1.00  0.00     0.003 A 
HETATM   22  C   UNL     1      -6.726  -2.628 -34.545  1.00  0.00     0.007 A 
BRANCH  19  23
HETATM   23  O   UNL     1      -3.350  -5.010 -34.215  1.00  0.00    -0.361 OA
HETATM   24  H   UNL     1      -2.562  -4.441 -34.201  1.00  0.00     0.217 HD
ENDBRANCH  19  23
ENDBRANCH  16  17
ENDBRANCH   2  16
TORSDOF 4
ENDMDL
MODEL 5
REMARK VINA RESULT:      -8.1      2.053      7.525
REMARK  4 active torsions:
REMARK  status: ('A' for Active; 'I' for Inactive)
REMARK    1  A    between atoms: C_4  and  N_5 
REMARK       I    between atoms: N_5  and  C_6 
REMARK    2  A    between atoms: C_6  and  C_7 
REMARK    3  A    between atoms: C_7  and  C_8 
REMARK    4  A    between atoms: C_10  and  O_11 
ROOT
HETATM    1  N   UNL     1      -9.009   1.135 -33.211  1.00  0.00    -0.325 N 
HETATM    2  C   UNL     1      -8.049   0.369 -33.835  1.00  0.00     0.226 C 
HETATM    3  O   UNL     1      -7.765   0.403 -35.031  1.00  0.00    -0.273 OA
HETATM    4  H   UNL     1      -9.033   1.174 -32.194  1.00  0.00     0.169 HD
ENDROOT
BRANCH   1   5
HETATM    5  C   UNL     1      -9.976   1.979 -33.813  1.00  0.00     0.065 A 
HETATM    6  C   UNL     1      -9.669   3.248 -34.316  1.00  0.00     0.038 A 
HETATM    7  C   UNL     1     -10.648   4.022 -34.944  1.00  0.00    -0.059 A 
HETATM    8  C   UNL     1     -10.318   5.374 -35.503  1.00  0.00     0.048 C 
HETATM    9  C   UNL     1     -11.948   3.518 -35.043  1.00  0.00     0.020 A 
HETATM   10  C   UNL     1     -12.264   2.246 -34.539  1.00  0.00    -0.005 A 
HETATM   11  C   UNL     1     -11.273   1.454 -33.922  1.00  0.00     0.093 A 
HETATM   12  C   UNL     1     -13.563   1.728 -34.633  1.00  0.00     0.015 A 
HETATM   13  N   UNL     1     -11.548   0.217 -33.436  1.00  0.00    -0.258 NA
HETATM   14  C   UNL     1     -12.815  -0.244 -33.544  1.00  0.00     0.117 A 
HETATM   15  C   UNL     1     -13.845   0.466 -34.128  1.00  0.00     0.020 A 
ENDBRANCH   1   5
BRANCH   2  16
HETATM   16  C   UNL     1      -7.344  -0.600 -32.894  1.00  0.00     0.141 C 
BRANCH  16  17
HETATM   17  C   UNL     1      -6.525  -1.622 -33.650  1.00  0.00    -0.047 A 
HETATM   18  C   UNL     1      -7.148  -2.746 -34.218  1.00  0.00     0.044 A 
HETATM   19  C   UNL     1      -6.388  -3.704 -34.881  1.00  0.00     0.066 A 
HETATM   20  C   UNL     1      -5.013  -3.558 -35.009  1.00  0.00     0.036 A 
HETATM   21  C   UNL     1      -4.386  -2.440 -34.460  1.00  0.00     0.003 A 
HETATM   22  C   UNL     1      -5.138  -1.477 -33.781  1.00  0.00     0.007 A 
BRANCH  19  23
HETATM   23  O   UNL     1      -6.965  -4.818 -35.416  1.00  0.00    -0.361 OA
HETATM   24  H   UNL     1      -6.680  -5.587 -34.894  1.00  0.00     0.217 HD
ENDBRANCH  19  23
ENDBRANCH  16  17
ENDBRANCH   2  16
TORSDOF 4
ENDMDL
MODEL 6
REMARK VINA RESULT:      -8.1      3.769      7.311
REMARK  4 active torsions:
REMARK  status: ('A' for Active; 'I' for Inactive)
REMARK    1  A    between atoms: C_4  and  N_5 
REMARK       I    between atoms: N_5  and  C_6 
REMARK    2  A    between atoms: C_6  and  C_7 
REMARK    3  A    between atoms: C_7  and  C_8 
REMARK    4  A    between atoms: C_10  and  O_11 
ROOT
HETATM    1  N   UNL     1      -4.511   1.489 -32.641  1.00  0.00    -0.325 N 
HETATM    2  C   UNL     1      -4.429   2.519 -31.729  1.00  0.00     0.226 C 
HETATM    3  O   UNL     1      -5.379   3.060 -31.167  1.00  0.00    -0.273 OA
HETATM    4  H   UNL     1      -3.667   0.982 -32.899  1.00  0.00     0.169 HD
ENDROOT
BRANCH   1   5
HETATM    5  C   UNL     1      -5.674   0.957 -33.251  1.00  0.00     0.065 A 
HETATM    6  C   UNL     1      -6.841   1.705 -33.445  1.00  0.00     0.038 A 
HETATM    7  C   UNL     1      -7.945   1.149 -34.096  1.00  0.00    -0.059 A 
HETATM    8  C   UNL     1      -9.190   1.955 -34.322  1.00  0.00     0.048 C 
HETATM    9  C   UNL     1      -7.876  -0.177 -34.533  1.00  0.00     0.020 A 
HETATM   10  C   UNL     1      -6.709  -0.935 -34.341  1.00  0.00    -0.005 A 
HETATM   11  C   UNL     1      -5.585  -0.370 -33.701  1.00  0.00     0.093 A 
HETATM   12  C   UNL     1      -6.625  -2.264 -34.776  1.00  0.00     0.015 A 
HETATM   13  N   UNL     1      -4.441  -1.075 -33.512  1.00  0.00    -0.258 NA
HETATM   14  C   UNL     1      -4.404  -2.356 -33.944  1.00  0.00     0.117 A 
HETATM   15  C   UNL     1      -5.458  -2.988 -34.574  1.00  0.00     0.020 A 
ENDBRANCH   1   5
BRANCH   2  16
HETATM   16  C   UNL     1      -3.003   2.987 -31.474  1.00  0.00     0.141 C 
BRANCH  16  17
HETATM   17  C   UNL     1      -2.607   4.115 -32.401  1.00  0.00    -0.047 A 
HETATM   18  C   UNL     1      -3.373   4.390 -33.546  1.00  0.00     0.044 A 
HETATM   19  C   UNL     1      -2.987   5.403 -34.417  1.00  0.00     0.066 A 
HETATM   20  C   UNL     1      -1.856   6.167 -34.163  1.00  0.00     0.036 A 
HETATM   21  C   UNL     1      -1.095   5.911 -33.023  1.00  0.00     0.003 A 
HETATM   22  C   UNL     1      -1.466   4.887 -32.147  1.00  0.00     0.007 A 
BRANCH  19  23
HETATM   23  O   UNL     1      -3.698   5.671 -35.550  1.00  0.00    -0.361 OA
HETATM   24  H   UNL     1      -3.574   6.609 -35.771  1.00  0.00     0.217 HD
ENDBRANCH  19  23
ENDBRANCH  16  17
ENDBRANCH   2  16
TORSDOF 4
ENDMDL
MODEL 7
REMARK VINA RESULT:      -7.9      2.830      7.297
REMARK  4 active torsions:
REMARK  status: ('A' for Active; 'I' for Inactive)
REMARK    1  A    between atoms: C_4  and  N_5 
REMARK       I    between atoms: N_5  and  C_6 
REMARK    2  A    between atoms: C_6  and  C_7 
REMARK    3  A    between atoms: C_7  and  C_8 
REMARK    4  A    between atoms: C_10  and  O_11 
ROOT
HETATM    1  N   UNL     1      -6.544   0.984 -33.077  1.00  0.00    -0.325 N 
HETATM    2  C   UNL     1      -5.902  -0.154 -32.641  1.00  0.00     0.226 C 
HETATM    3  O   UNL     1      -6.072  -0.705 -31.555  1.00  0.00    -0.273 OA
HETATM    4  H   UNL     1      -6.480   1.248 -34.058  1.00  0.00     0.169 HD
ENDROOT
BRANCH   1   5
HETATM    5  C   UNL     1      -7.385   1.849 -32.333  1.00  0.00     0.065 A 
HETATM    6  C   UNL     1      -6.929   2.602 -31.246  1.00  0.00     0.038 A 
HETATM    7  C   UNL     1      -7.787   3.478 -30.575  1.00  0.00    -0.059 A 
HETATM    8  C   UNL     1      -7.295   4.302 -29.422  1.00  0.00     0.048 C 
HETATM    9  C   UNL     1      -9.117   3.575 -30.992  1.00  0.00     0.020 A 
HETATM   10  C   UNL     1      -9.583   2.820 -32.082  1.00  0.00    -0.005 A 
HETATM   11  C   UNL     1      -8.714   1.950 -32.774  1.00  0.00     0.093 A 
HETATM   12  C   UNL     1     -10.913   2.909 -32.513  1.00  0.00     0.015 A 
HETATM   13  N   UNL     1      -9.134   1.218 -33.837  1.00  0.00    -0.258 NA
HETATM   14  C   UNL     1     -10.427   1.331 -34.217  1.00  0.00     0.117 A 
HETATM   15  C   UNL     1     -11.345   2.153 -33.594  1.00  0.00     0.020 A 
ENDBRANCH   1   5
BRANCH   2  16
HETATM   16  C   UNL     1      -4.887  -0.696 -33.639  1.00  0.00     0.141 C 
BRANCH  16  17
HETATM   17  C   UNL     1      -5.185  -2.128 -34.023  1.00  0.00    -0.047 A 
HETATM   18  C   UNL     1      -4.212  -3.124 -33.842  1.00  0.00     0.044 A 
HETATM   19  C   UNL     1      -4.475  -4.435 -34.230  1.00  0.00     0.066 A 
HETATM   20  C   UNL     1      -5.701  -4.781 -34.781  1.00  0.00     0.036 A 
HETATM   21  C   UNL     1      -6.679  -3.802 -34.954  1.00  0.00     0.003 A 
HETATM   22  C   UNL     1      -6.422  -2.480 -34.580  1.00  0.00     0.007 A 
BRANCH  19  23
HETATM   23  O   UNL     1      -3.537  -5.415 -34.091  1.00  0.00    -0.361 OA
HETATM   24  H   UNL     1      -3.889  -6.086 -33.483  1.00  0.00     0.217 HD
ENDBRANCH  19  23
ENDBRANCH  16  17
ENDBRANCH   2  16
TORSDOF 4
ENDMDL
MODEL 8
REMARK VINA RESULT:      -7.8      4.585      7.701
REMARK  4 active torsions:
REMARK  status: ('A' for Active; 'I' for Inactive)
REMARK    1  A    between atoms: C_4  and  N_5 
REMARK       I    between atoms: N_5  and  C_6 
REMARK    2  A    between atoms: C_6  and  C_7 
REMARK    3  A    between atoms: C_7  and  C_8 
REMARK    4  A    between atoms: C_10  and  O_11 
ROOT
HETATM    1  N   UNL     1      -5.243   2.668 -31.953  1.00  0.00    -0.325 N 
HETATM    2  C   UNL     1      -4.754   3.862 -32.436  1.00  0.00     0.226 C 
HETATM    3  O   UNL     1      -4.605   4.152 -33.621  1.00  0.00    -0.273 OA
HETATM    4  H   UNL     1      -5.511   2.599 -30.973  1.00  0.00     0.169 HD
ENDROOT
BRANCH   1   5
HETATM    5  C   UNL     1      -5.508   1.479 -32.676  1.00  0.00     0.065 A 
HETATM    6  C   UNL     1      -6.547   1.372 -33.608  1.00  0.00     0.038 A 
HETATM    7  C   UNL     1      -6.736   0.191 -34.331  1.00  0.00    -0.059 A 
HETATM    8  C   UNL     1      -7.838   0.080 -35.344  1.00  0.00     0.048 C 
HETATM    9  C   UNL     1      -5.885  -0.891 -34.096  1.00  0.00     0.020 A 
HETATM   10  C   UNL     1      -4.841  -0.792 -33.162  1.00  0.00    -0.005 A 
HETATM   11  C   UNL     1      -4.634   0.405 -32.443  1.00  0.00     0.093 A 
HETATM   12  C   UNL     1      -3.978  -1.869 -32.917  1.00  0.00     0.015 A 
HETATM   13  N   UNL     1      -3.626   0.533 -31.543  1.00  0.00    -0.258 NA
HETATM   14  C   UNL     1      -2.819  -0.532 -31.335  1.00  0.00     0.117 A 
HETATM   15  C   UNL     1      -2.953  -1.741 -31.990  1.00  0.00     0.020 A 
ENDBRANCH   1   5
BRANCH   2  16
HETATM   16  C   UNL     1      -4.362   4.843 -31.338  1.00  0.00     0.141 C 
BRANCH  16  17
HETATM   17  C   UNL     1      -3.036   5.511 -31.629  1.00  0.00    -0.047 A 
HETATM   18  C   UNL     1      -2.990   6.875 -31.957  1.00  0.00     0.044 A 
HETATM   19  C   UNL     1      -1.774   7.480 -32.260  1.00  0.00     0.066 A 
HETATM   20  C   UNL     1      -0.591   6.754 -32.225  1.00  0.00     0.036 A 
HETATM   21  C   UNL     1      -0.624   5.401 -31.888  1.00  0.00     0.003 A 
HETATM   22  C   UNL     1      -1.841   4.781 -31.593  1.00  0.00     0.007 A 
BRANCH  19  23
HETATM   23  O   UNL     1      -1.706   8.796 -32.610  1.00  0.00    -0.361 OA
HETATM   24  H   UNL     1      -2.514   9.021 -33.101  1.00  0.00     0.217 HD
ENDBRANCH  19  23
ENDBRANCH  16  17
ENDBRANCH   2  16
TORSDOF 4
ENDMDL
MODEL 9
REMARK VINA RESULT:      -7.8     13.382     14.870
REMARK  4 active torsions:
REMARK  status: ('A' for Active; 'I' for Inactive)
REMARK    1  A    between atoms: C_4  and  N_5 
REMARK       I    between atoms: N_5  and  C_6 
REMARK    2  A    between atoms: C_6  and  C_7 
REMARK    3  A    between atoms: C_7  and  C_8 
REMARK    4  A    between atoms: C_10  and  O_11 
ROOT
HETATM    1  N   UNL     1      -5.517 -13.825 -39.725  1.00  0.00    -0.325 N 
HETATM    2  C   UNL     1      -6.159 -12.606 -39.751  1.00  0.00     0.226 C 
HETATM    3  O   UNL     1      -5.879 -11.661 -40.487  1.00  0.00    -0.273 OA
HETATM    4  H   UNL     1      -5.944 -14.603 -39.224  1.00  0.00     0.169 HD
ENDROOT
BRANCH   1   5
HETATM    5  C   UNL     1      -4.321 -14.194 -40.388  1.00  0.00     0.065 A 
HETATM    6  C   UNL     1      -4.307 -14.783 -41.658  1.00  0.00     0.038 A 
HETATM    7  C   UNL     1      -3.097 -15.084 -42.291  1.00  0.00    -0.059 A 
HETATM    8  C   UNL     1      -3.079 -15.698 -43.659  1.00  0.00     0.048 C 
HETATM    9  C   UNL     1      -1.899 -14.808 -41.627  1.00  0.00     0.020 A 
HETATM   10  C   UNL     1      -1.905 -14.218 -40.352  1.00  0.00    -0.005 A 
HETATM   11  C   UNL     1      -3.124 -13.894 -39.719  1.00  0.00     0.093 A 
HETATM   12  C   UNL     1      -0.711 -13.933 -39.677  1.00  0.00     0.015 A 
HETATM   13  N   UNL     1      -3.159 -13.314 -38.493  1.00  0.00    -0.258 NA
HETATM   14  C   UNL     1      -1.984 -13.059 -37.874  1.00  0.00     0.117 A 
HETATM   15  C   UNL     1      -0.748 -13.347 -38.418  1.00  0.00     0.020 A 
ENDBRANCH   1   5
BRANCH   2  16
HETATM   16  C   UNL     1      -7.282 -12.492 -38.728  1.00  0.00     0.141 C 
BRANCH  16  17
HETATM   17  C   UNL     1      -8.634 -12.776 -39.344  1.00  0.00    -0.047 A 
HETATM   18  C   UNL     1      -9.414 -11.723 -39.850  1.00  0.00     0.044 A 
HETATM   19  C   UNL     1     -10.673 -11.982 -40.382  1.00  0.00     0.066 A 
HETATM   20  C   UNL     1     -11.169 -13.277 -40.439  1.00  0.00     0.036 A 
HETATM   21  C   UNL     1     -10.398 -14.331 -39.950  1.00  0.00     0.003 A 
HETATM   22  C   UNL     1      -9.136 -14.082 -39.402  1.00  0.00     0.007 A 
BRANCH  19  23
HETATM   23  O   UNL     1     -11.462 -10.974 -40.855  1.00  0.00    -0.361 OA
HETATM   24  H   UNL     1     -10.967 -10.141 -40.777  1.00  0.00     0.217 HD
ENDBRANCH  19  23
ENDBRANCH  16  17
ENDBRANCH   2  16
TORSDOF 4
ENDMDL
MODEL 10
REMARK VINA RESULT:      -7.8      4.399      7.661
REMARK  4 active torsions:
REMARK  status: ('A' for Active; 'I' for Inactive)
REMARK    1  A    between atoms: C_4  and  N_5 
REMARK       I    between atoms: N_5  and  C_6 
REMARK    2  A    between atoms: C_6  and  C_7 
REMARK    3  A    between atoms: C_7  and  C_8 
REMARK    4  A    between atoms: C_10  and  O_11 
ROOT
HETATM    1  N   UNL     1      -5.116   2.092 -31.983  1.00  0.00    -0.325 N 
HETATM    2  C   UNL     1      -4.656   3.297 -32.467  1.00  0.00     0.226 C 
HETATM    3  O   UNL     1      -5.179   3.961 -33.360  1.00  0.00    -0.273 OA
HETATM    4  H   UNL     1      -4.728   1.721 -31.118  1.00  0.00     0.169 HD
ENDROOT
BRANCH   1   5
HETATM    5  C   UNL     1      -6.156   1.284 -32.505  1.00  0.00     0.065 A 
HETATM    6  C   UNL     1      -7.502   1.667 -32.476  1.00  0.00     0.038 A 
HETATM    7  C   UNL     1      -8.486   0.855 -33.048  1.00  0.00    -0.059 A 
HETATM    8  C   UNL     1      -9.928   1.272 -33.035  1.00  0.00     0.048 C 
HETATM    9  C   UNL     1      -8.109  -0.357 -33.631  1.00  0.00     0.020 A 
HETATM   10  C   UNL     1      -6.760  -0.748 -33.663  1.00  0.00    -0.005 A 
HETATM   11  C   UNL     1      -5.762   0.077 -33.104  1.00  0.00     0.093 A 
HETATM   12  C   UNL     1      -6.368  -1.960 -34.247  1.00  0.00     0.015 A 
HETATM   13  N   UNL     1      -4.450  -0.270 -33.131  1.00  0.00    -0.258 NA
HETATM   14  C   UNL     1      -4.115  -1.450 -33.701  1.00  0.00     0.117 A 
HETATM   15  C   UNL     1      -5.027  -2.319 -34.266  1.00  0.00     0.020 A 
ENDBRANCH   1   5
BRANCH   2  16
HETATM   16  C   UNL     1      -3.367   3.763 -31.803  1.00  0.00     0.141 C 
BRANCH  16  17
HETATM   17  C   UNL     1      -2.659   4.815 -32.626  1.00  0.00    -0.047 A 
HETATM   18  C   UNL     1      -2.640   6.153 -32.198  1.00  0.00     0.044 A 
HETATM   19  C   UNL     1      -2.020   7.126 -32.975  1.00  0.00     0.066 A 
HETATM   20  C   UNL     1      -1.397   6.792 -34.170  1.00  0.00     0.036 A 
HETATM   21  C   UNL     1      -1.399   5.465 -34.599  1.00  0.00     0.003 A 
HETATM   22  C   UNL     1      -2.029   4.481 -33.832  1.00  0.00     0.007 A 
BRANCH  19  23
HETATM   23  O   UNL     1      -2.013   8.436 -32.595  1.00  0.00    -0.361 OA
HETATM   24  H   UNL     1      -1.890   8.981 -33.390  1.00  0.00     0.217 HD
ENDBRANCH  19  23
ENDBRANCH  16  17
ENDBRANCH   2  16
TORSDOF 4
ENDMDL
