MODEL 1
REMARK VINA RESULT:      -8.7      0.000      0.000
REMARK  6 active torsions:
REMARK  status: ('A' for Active; 'I' for Inactive)
REMARK    1  A    between atoms: C_2  and  N_3 
REMARK    2  A    between atoms: C_7  and  N_8 
REMARK       I    between atoms: N_8  and  C_9 
REMARK       I    between atoms: C_9  and  N_10 
REMARK    3  A    between atoms: N_10  and  C_11 
REMARK    4  A    between atoms: C_11  and  C_12 
REMARK    5  A    between atoms: C_15  and  N_16 
REMARK       I    between atoms: N_16  and  C_17 
REMARK    6  A    between atoms: C_17  and  C_18 
ROOT
HETATM    1  N   UNL     1      -2.546   5.401 -30.604  1.00  0.00    -0.338 N 
HETATM    2  C   UNL     1      -3.889   5.430 -30.904  1.00  0.00     0.316 C 
HETATM    3  N   UNL     1      -4.593   4.608 -30.066  1.00  0.00    -0.339 N 
HETATM    4  O   UNL     1      -4.371   6.036 -31.847  1.00  0.00    -0.247 OA
HETATM    5  H   UNL     1      -2.417   5.407 -29.598  1.00  0.00     0.164 HD
HETATM    6  H   UNL     1      -4.075   3.958 -29.496  1.00  0.00     0.164 HD
ENDROOT
BRANCH   3   7
HETATM    7  C   UNL     1      -5.963   4.243 -30.373  1.00  0.00     0.162 C 
BRANCH   7   8
HETATM    8  C   UNL     1      -6.096   2.857 -30.971  1.00  0.00    -0.040 A 
HETATM    9  C   UNL     1      -6.086   1.690 -30.194  1.00  0.00     0.011 A 
HETATM   10  C   UNL     1      -6.138   0.426 -30.793  1.00  0.00     0.030 A 
HETATM   11  C   UNL     1      -6.232   0.302 -32.179  1.00  0.00     0.035 A 
HETATM   12  C   UNL     1      -6.325   1.462 -32.953  1.00  0.00     0.030 A 
HETATM   13  C   UNL     1      -6.252   2.727 -32.358  1.00  0.00     0.011 A 
BRANCH  11  14
HETATM   14  N   UNL     1      -6.228  -0.928 -32.856  1.00  0.00    -0.321 N 
HETATM   15  C   UNL     1      -5.193  -1.508 -33.572  1.00  0.00     0.279 C 
HETATM   16  O   UNL     1      -4.075  -1.023 -33.719  1.00  0.00    -0.265 OA
HETATM   17  H   UNL     1      -7.109  -1.432 -32.909  1.00  0.00     0.169 HD
BRANCH  15  18
HETATM   18  C   UNL     1      -5.585  -2.762 -34.191  1.00  0.00     0.142 A 
HETATM   19  O   UNL     1      -4.685  -3.799 -34.229  1.00  0.00    -0.317 OA
HETATM   20  C   UNL     1      -5.303  -4.844 -34.839  1.00  0.00     0.143 A 
HETATM   21  C   UNL     1      -6.586  -4.504 -35.194  1.00  0.00     0.027 A 
HETATM   22  C   UNL     1      -6.769  -3.163 -34.780  1.00  0.00     0.045 A 
ENDBRANCH  15  18
ENDBRANCH  11  14
ENDBRANCH   7   8
ENDBRANCH   3   7
BRANCH   1  23
HETATM   23  C   UNL     1      -1.538   6.149 -31.363  1.00  0.00     0.089 C 
HETATM   24  C   UNL     1      -0.106   5.615 -31.284  1.00  0.00     0.053 C 
HETATM   25  C   UNL     1       0.426   5.631 -29.863  1.00  0.00     0.237 C 
HETATM   26  N   UNL     1       0.420   7.060 -29.318  1.00  0.00    -0.067 N 
HETATM   27  H   UNL     1       1.058   7.610 -29.908  1.00  0.00     0.280 HD
HETATM   28  C   UNL     1      -0.964   7.677 -29.432  1.00  0.00     0.237 C 
HETATM   29  C   UNL     1      -1.509   7.590 -30.856  1.00  0.00     0.053 C 
BRANCH  26  30
HETATM   30  C   UNL     1       0.981   7.122 -27.880  1.00  0.00     0.180 C 
HETATM   31  C   UNL     1      -0.119   6.796 -26.866  1.00  0.00     0.039 C 
HETATM   32  C   UNL     1       1.528   8.520 -27.586  1.00  0.00     0.039 C 
ENDBRANCH  26  30
ENDBRANCH   1  23
TORSDOF 6
ENDMDL
MODEL 2
REMARK VINA RESULT:      -8.2      3.546      4.350
REMARK  6 active torsions:
REMARK  status: ('A' for Active; 'I' for Inactive)
REMARK    1  A    between atoms: C_2  and  N_3 
REMARK    2  A    between atoms: C_7  and  N_8 
REMARK       I    between atoms: N_8  and  C_9 
REMARK       I    between atoms: C_9  and  N_10 
REMARK    3  A    between atoms: N_10  and  C_11 
REMARK    4  A    between atoms: C_11  and  C_12 
REMARK    5  A    between atoms: C_15  and  N_16 
REMARK       I    between atoms: N_16  and  C_17 
REMARK    6  A    between atoms: C_17  and  C_18 
ROOT
HETATM    1  N   UNL     1      -2.311   4.953 -30.929  1.00  0.00    -0.338 N 
HETATM    2  C   UNL     1      -2.756   3.902 -31.699  1.00  0.00     0.316 C 
HETATM    3  N   UNL     1      -3.534   3.052 -30.959  1.00  0.00    -0.339 N 
HETATM    4  O   UNL     1      -2.424   3.708 -32.856  1.00  0.00    -0.247 OA
HETATM    5  H   UNL     1      -3.059   5.281 -30.328  1.00  0.00     0.164 HD
HETATM    6  H   UNL     1      -3.532   3.161 -29.957  1.00  0.00     0.164 HD
ENDROOT
BRANCH   3   7
HETATM    7  C   UNL     1      -3.864   1.732 -31.462  1.00  0.00     0.162 C 
BRANCH   7   8
HETATM    8  C   UNL     1      -5.293   1.615 -31.953  1.00  0.00    -0.040 A 
HETATM    9  C   UNL     1      -5.630   1.013 -33.173  1.00  0.00     0.011 A 
HETATM   10  C   UNL     1      -6.955   0.991 -33.623  1.00  0.00     0.030 A 
HETATM   11  C   UNL     1      -7.975   1.543 -32.848  1.00  0.00     0.035 A 
HETATM   12  C   UNL     1      -7.656   2.071 -31.594  1.00  0.00     0.030 A 
HETATM   13  C   UNL     1      -6.329   2.113 -31.152  1.00  0.00     0.011 A 
BRANCH  11  14
HETATM   14  N   UNL     1      -9.317   1.614 -33.257  1.00  0.00    -0.321 N 
HETATM   15  C   UNL     1     -10.299   0.644 -33.142  1.00  0.00     0.279 C 
HETATM   16  O   UNL     1     -10.145  -0.463 -32.634  1.00  0.00    -0.265 OA
HETATM   17  H   UNL     1      -9.601   2.439 -33.778  1.00  0.00     0.169 HD
BRANCH  15  18
HETATM   18  C   UNL     1     -11.557   1.058 -33.740  1.00  0.00     0.142 A 
HETATM   19  O   UNL     1     -11.596   2.209 -34.488  1.00  0.00    -0.317 OA
HETATM   20  C   UNL     1     -12.869   2.353 -34.937  1.00  0.00     0.143 A 
HETATM   21  C   UNL     1     -13.655   1.315 -34.498  1.00  0.00     0.027 A 
HETATM   22  C   UNL     1     -12.812   0.480 -33.725  1.00  0.00     0.045 A 
ENDBRANCH  15  18
ENDBRANCH  11  14
ENDBRANCH   7   8
ENDBRANCH   3   7
BRANCH   1  23
HETATM   23  C   UNL     1      -1.421   6.000 -31.439  1.00  0.00     0.089 C 
HETATM   24  C   UNL     1       0.079   5.706 -31.356  1.00  0.00     0.053 C 
HETATM   25  C   UNL     1       0.537   5.509 -29.923  1.00  0.00     0.237 C 
HETATM   26  N   UNL     1       0.253   6.769 -29.105  1.00  0.00    -0.067 N 
HETATM   27  H   UNL     1       0.808   7.529 -29.520  1.00  0.00     0.280 HD
HETATM   28  C   UNL     1      -1.212   7.159 -29.202  1.00  0.00     0.237 C 
HETATM   29  C   UNL     1      -1.671   7.287 -30.653  1.00  0.00     0.053 C 
BRANCH  26  30
HETATM   30  C   UNL     1       0.731   6.617 -27.643  1.00  0.00     0.180 C 
HETATM   31  C   UNL     1      -0.445   6.250 -26.734  1.00  0.00     0.039 C 
HETATM   32  C   UNL     1       1.348   7.928 -27.150  1.00  0.00     0.039 C 
ENDBRANCH  26  30
ENDBRANCH   1  23
TORSDOF 6
ENDMDL
MODEL 3
REMARK VINA RESULT:      -8.1      4.695     10.370
REMARK  6 active torsions:
REMARK  status: ('A' for Active; 'I' for Inactive)
REMARK    1  A    between atoms: C_2  and  N_3 
REMARK    2  A    between atoms: C_7  and  N_8 
REMARK       I    between atoms: N_8  and  C_9 
REMARK       I    between atoms: C_9  and  N_10 
REMARK    3  A    between atoms: N_10  and  C_11 
REMARK    4  A    between atoms: C_11  and  C_12 
REMARK    5  A    between atoms: C_15  and  N_16 
REMARK       I    between atoms: N_16  and  C_17 
REMARK    6  A    between atoms: C_17  and  C_18 
ROOT
HETATM    1  N   UNL     1     -10.356   1.854 -33.483  1.00  0.00    -0.338 N 
HETATM    2  C   UNL     1      -9.301   0.972 -33.543  1.00  0.00     0.316 C 
HETATM    3  N   UNL     1      -8.695   0.854 -32.321  1.00  0.00    -0.339 N 
HETATM    4  O   UNL     1      -8.906   0.440 -34.567  1.00  0.00    -0.247 OA
HETATM    5  H   UNL     1     -10.879   1.709 -32.627  1.00  0.00     0.164 HD
HETATM    6  H   UNL     1      -8.932   1.528 -31.610  1.00  0.00     0.164 HD
ENDROOT
BRANCH   3   7
HETATM    7  C   UNL     1      -7.393   0.226 -32.203  1.00  0.00     0.162 C 
BRANCH   7   8
HETATM    8  C   UNL     1      -6.283   1.200 -31.866  1.00  0.00    -0.040 A 
HETATM    9  C   UNL     1      -6.494   2.581 -31.745  1.00  0.00     0.011 A 
HETATM   10  C   UNL     1      -5.427   3.454 -31.505  1.00  0.00     0.030 A 
HETATM   11  C   UNL     1      -4.132   2.963 -31.350  1.00  0.00     0.035 A 
HETATM   12  C   UNL     1      -3.927   1.581 -31.388  1.00  0.00     0.030 A 
HETATM   13  C   UNL     1      -4.989   0.708 -31.650  1.00  0.00     0.011 A 
BRANCH  11  14
HETATM   14  N   UNL     1      -3.003   3.778 -31.167  1.00  0.00    -0.321 N 
HETATM   15  C   UNL     1      -2.200   4.359 -32.135  1.00  0.00     0.279 C 
HETATM   16  O   UNL     1      -2.365   4.255 -33.348  1.00  0.00    -0.265 OA
HETATM   17  H   UNL     1      -2.669   3.903 -30.216  1.00  0.00     0.169 HD
BRANCH  15  18
HETATM   18  C   UNL     1      -1.080   5.085 -31.562  1.00  0.00     0.142 A 
HETATM   19  O   UNL     1      -0.384   4.528 -30.517  1.00  0.00    -0.317 OA
HETATM   20  C   UNL     1       0.607   5.395 -30.188  1.00  0.00     0.143 A 
HETATM   21  C   UNL     1       0.568   6.503 -31.000  1.00  0.00     0.027 A 
HETATM   22  C   UNL     1      -0.519   6.306 -31.885  1.00  0.00     0.045 A 
ENDBRANCH  15  18
ENDBRANCH  11  14
ENDBRANCH   7   8
ENDBRANCH   3   7
BRANCH   1  23
HETATM   23  C   UNL     1     -11.167   2.214 -34.651  1.00  0.00     0.089 C 
HETATM   24  C   UNL     1     -11.670   3.659 -34.700  1.00  0.00     0.053 C 
HETATM   25  C   UNL     1     -12.568   3.984 -33.521  1.00  0.00     0.237 C 
HETATM   26  N   UNL     1     -13.784   3.058 -33.518  1.00  0.00    -0.067 N 
HETATM   27  H   UNL     1     -14.307   3.244 -34.384  1.00  0.00     0.280 HD
HETATM   28  C   UNL     1     -13.354   1.601 -33.541  1.00  0.00     0.237 C 
HETATM   29  C   UNL     1     -12.398   1.308 -34.695  1.00  0.00     0.053 C 
BRANCH  26  30
HETATM   30  C   UNL     1     -14.738   3.377 -32.346  1.00  0.00     0.180 C 
HETATM   31  C   UNL     1     -13.938   3.738 -31.091  1.00  0.00     0.039 C 
HETATM   32  C   UNL     1     -15.622   2.166 -32.039  1.00  0.00     0.039 C 
ENDBRANCH  26  30
ENDBRANCH   1  23
TORSDOF 6
ENDMDL
MODEL 4
REMARK VINA RESULT:      -8.0      2.541     10.215
REMARK  6 active torsions:
REMARK  status: ('A' for Active; 'I' for Inactive)
REMARK    1  A    between atoms: C_2  and  N_3 
REMARK    2  A    between atoms: C_7  and  N_8 
REMARK       I    between atoms: N_8  and  C_9 
REMARK       I    between atoms: C_9  and  N_10 
REMARK    3  A    between atoms: N_10  and  C_11 
REMARK    4  A    between atoms: C_11  and  C_12 
REMARK    5  A    between atoms: C_15  and  N_16 
REMARK       I    between atoms: N_16  and  C_17 
REMARK    6  A    between atoms: C_17  and  C_18 
ROOT
HETATM    1  N   UNL     1      -6.036   1.697 -33.324  1.00  0.00    -0.338 N 
HETATM    2  C   UNL     1      -6.308   3.044 -33.410  1.00  0.00     0.316 C 
HETATM    3  N   UNL     1      -5.365   3.683 -34.170  1.00  0.00    -0.339 N 
HETATM    4  O   UNL     1      -7.214   3.603 -32.814  1.00  0.00    -0.247 OA
HETATM    5  H   UNL     1      -5.733   1.348 -34.226  1.00  0.00     0.164 HD
HETATM    6  H   UNL     1      -4.522   3.181 -34.397  1.00  0.00     0.164 HD
ENDROOT
BRANCH   3   7
HETATM    7  C   UNL     1      -5.268   5.131 -34.157  1.00  0.00     0.162 C 
BRANCH   7   8
HETATM    8  C   UNL     1      -4.193   5.653 -33.225  1.00  0.00    -0.040 A 
HETATM    9  C   UNL     1      -2.830   5.639 -33.553  1.00  0.00     0.011 A 
HETATM   10  C   UNL     1      -1.864   6.063 -32.635  1.00  0.00     0.030 A 
HETATM   11  C   UNL     1      -2.241   6.539 -31.379  1.00  0.00     0.035 A 
HETATM   12  C   UNL     1      -3.602   6.632 -31.077  1.00  0.00     0.030 A 
HETATM   13  C   UNL     1      -4.569   6.188 -31.986  1.00  0.00     0.011 A 
BRANCH  11  14
HETATM   14  N   UNL     1      -1.330   6.925 -30.383  1.00  0.00    -0.321 N 
HETATM   15  C   UNL     1      -0.390   6.142 -29.732  1.00  0.00     0.279 C 
HETATM   16  O   UNL     1      -0.195   4.948 -29.943  1.00  0.00    -0.265 OA
HETATM   17  H   UNL     1      -1.409   7.872 -30.023  1.00  0.00     0.169 HD
BRANCH  15  18
HETATM   18  C   UNL     1       0.332   6.880 -28.710  1.00  0.00     0.142 A 
HETATM   19  O   UNL     1       0.527   6.303 -27.479  1.00  0.00    -0.317 OA
HETATM   20  C   UNL     1       1.233   7.188 -26.729  1.00  0.00     0.143 A 
HETATM   21  C   UNL     1       1.502   8.325 -27.452  1.00  0.00     0.027 A 
HETATM   22  C   UNL     1       0.920   8.130 -28.727  1.00  0.00     0.045 A 
ENDBRANCH  15  18
ENDBRANCH  11  14
ENDBRANCH   7   8
ENDBRANCH   3   7
BRANCH   1  23
HETATM   23  C   UNL     1      -6.849   0.764 -32.538  1.00  0.00     0.089 C 
HETATM   24  C   UNL     1      -6.099  -0.408 -31.901  1.00  0.00     0.053 C 
HETATM   25  C   UNL     1      -5.441  -1.292 -32.944  1.00  0.00     0.237 C 
HETATM   26  N   UNL     1      -6.498  -1.862 -33.890  1.00  0.00    -0.067 N 
HETATM   27  H   UNL     1      -7.127  -2.445 -33.323  1.00  0.00     0.280 HD
HETATM   28  C   UNL     1      -7.330  -0.749 -34.506  1.00  0.00     0.237 C 
HETATM   29  C   UNL     1      -7.928   0.169 -33.442  1.00  0.00     0.053 C 
BRANCH  26  30
HETATM   30  C   UNL     1      -5.869  -2.790 -34.952  1.00  0.00     0.180 C 
HETATM   31  C   UNL     1      -6.630  -4.117 -35.018  1.00  0.00     0.039 C 
HETATM   32  C   UNL     1      -4.406  -3.075 -34.606  1.00  0.00     0.039 C 
ENDBRANCH  26  30
ENDBRANCH   1  23
TORSDOF 6
ENDMDL
MODEL 5
REMARK VINA RESULT:      -7.9      4.770     10.231
REMARK  6 active torsions:
REMARK  status: ('A' for Active; 'I' for Inactive)
REMARK    1  A    between atoms: C_2  and  N_3 
REMARK    2  A    between atoms: C_7  and  N_8 
REMARK       I    between atoms: N_8  and  C_9 
REMARK       I    between atoms: C_9  and  N_10 
REMARK    3  A    between atoms: N_10  and  C_11 
REMARK    4  A    between atoms: C_11  and  C_12 
REMARK    5  A    between atoms: C_15  and  N_16 
REMARK       I    between atoms: N_16  and  C_17 
REMARK    6  A    between atoms: C_17  and  C_18 
ROOT
HETATM    1  N   UNL     1     -10.872   1.701 -33.173  1.00  0.00    -0.338 N 
HETATM    2  C   UNL     1     -10.057   0.756 -32.591  1.00  0.00     0.316 C 
HETATM    3  N   UNL     1      -8.969   1.346 -32.004  1.00  0.00    -0.339 N 
HETATM    4  O   UNL     1     -10.235  -0.448 -32.668  1.00  0.00    -0.247 OA
HETATM    5  H   UNL     1     -10.950   2.510 -32.566  1.00  0.00     0.164 HD
HETATM    6  H   UNL     1      -8.782   2.313 -32.220  1.00  0.00     0.164 HD
ENDROOT
BRANCH   3   7
HETATM    7  C   UNL     1      -7.830   0.546 -31.596  1.00  0.00     0.162 C 
BRANCH   7   8
HETATM    8  C   UNL     1      -6.533   1.329 -31.544  1.00  0.00    -0.040 A 
HETATM    9  C   UNL     1      -5.291   0.725 -31.305  1.00  0.00     0.011 A 
HETATM   10  C   UNL     1      -4.127   1.493 -31.192  1.00  0.00     0.030 A 
HETATM   11  C   UNL     1      -4.175   2.878 -31.346  1.00  0.00     0.035 A 
HETATM   12  C   UNL     1      -5.397   3.477 -31.665  1.00  0.00     0.030 A 
HETATM   13  C   UNL     1      -6.566   2.713 -31.757  1.00  0.00     0.011 A 
BRANCH  11  14
HETATM   14  N   UNL     1      -3.064   3.722 -31.187  1.00  0.00    -0.321 N 
HETATM   15  C   UNL     1      -2.227   4.229 -32.167  1.00  0.00     0.279 C 
HETATM   16  O   UNL     1      -2.339   4.021 -33.371  1.00  0.00    -0.265 OA
HETATM   17  H   UNL     1      -2.773   3.932 -30.236  1.00  0.00     0.169 HD
BRANCH  15  18
HETATM   18  C   UNL     1      -1.141   5.018 -31.612  1.00  0.00     0.142 A 
HETATM   19  O   UNL     1      -0.381   4.491 -30.596  1.00  0.00    -0.317 OA
HETATM   20  C   UNL     1       0.561   5.416 -30.278  1.00  0.00     0.143 A 
HETATM   21  C   UNL     1       0.429   6.530 -31.071  1.00  0.00     0.027 A 
HETATM   22  C   UNL     1      -0.668   6.277 -31.929  1.00  0.00     0.045 A 
ENDBRANCH  15  18
ENDBRANCH  11  14
ENDBRANCH   7   8
ENDBRANCH   3   7
BRANCH   1  23
HETATM   23  C   UNL     1     -12.091   1.362 -33.914  1.00  0.00     0.089 C 
HETATM   24  C   UNL     1     -12.191   1.923 -35.334  1.00  0.00     0.053 C 
HETATM   25  C   UNL     1     -12.172   3.441 -35.344  1.00  0.00     0.237 C 
HETATM   26  N   UNL     1     -13.349   3.984 -34.534  1.00  0.00    -0.067 N 
HETATM   27  H   UNL     1     -14.208   3.669 -35.002  1.00  0.00     0.280 HD
HETATM   28  C   UNL     1     -13.349   3.409 -33.128  1.00  0.00     0.237 C 
HETATM   29  C   UNL     1     -13.300   1.882 -33.138  1.00  0.00     0.053 C 
BRANCH  26  30
HETATM   30  C   UNL     1     -13.380   5.529 -34.543  1.00  0.00     0.180 C 
HETATM   31  C   UNL     1     -13.353   6.054 -35.981  1.00  0.00     0.039 C 
HETATM   32  C   UNL     1     -12.170   6.086 -33.790  1.00  0.00     0.039 C 
ENDBRANCH  26  30
ENDBRANCH   1  23
TORSDOF 6
ENDMDL
MODEL 6
REMARK VINA RESULT:      -7.8      2.051      2.820
REMARK  6 active torsions:
REMARK  status: ('A' for Active; 'I' for Inactive)
REMARK    1  A    between atoms: C_2  and  N_3 
REMARK    2  A    between atoms: C_7  and  N_8 
REMARK       I    between atoms: N_8  and  C_9 
REMARK       I    between atoms: C_9  and  N_10 
REMARK    3  A    between atoms: N_10  and  C_11 
REMARK    4  A    between atoms: C_11  and  C_12 
REMARK    5  A    between atoms: C_15  and  N_16 
REMARK       I    between atoms: N_16  and  C_17 
REMARK    6  A    between atoms: C_17  and  C_18 
ROOT
HETATM    1  N   UNL     1      -3.861   6.615 -28.037  1.00  0.00    -0.338 N 
HETATM    2  C   UNL     1      -5.034   5.897 -28.102  1.00  0.00     0.316 C 
HETATM    3  N   UNL     1      -4.998   4.999 -29.136  1.00  0.00    -0.339 N 
HETATM    4  O   UNL     1      -6.006   6.100 -27.393  1.00  0.00    -0.247 OA
HETATM    5  H   UNL     1      -3.071   6.001 -28.200  1.00  0.00     0.164 HD
HETATM    6  H   UNL     1      -4.261   5.092 -29.817  1.00  0.00     0.164 HD
ENDROOT
BRANCH   3   7
HETATM    7  C   UNL     1      -6.214   4.350 -29.588  1.00  0.00     0.162 C 
BRANCH   7   8
HETATM    8  C   UNL     1      -5.963   3.058 -30.338  1.00  0.00    -0.040 A 
HETATM    9  C   UNL     1      -4.915   2.904 -31.257  1.00  0.00     0.011 A 
HETATM   10  C   UNL     1      -4.762   1.717 -31.983  1.00  0.00     0.030 A 
HETATM   11  C   UNL     1      -5.635   0.649 -31.783  1.00  0.00     0.035 A 
HETATM   12  C   UNL     1      -6.631   0.766 -30.810  1.00  0.00     0.030 A 
HETATM   13  C   UNL     1      -6.799   1.960 -30.099  1.00  0.00     0.011 A 
BRANCH  11  14
HETATM   14  N   UNL     1      -5.584  -0.549 -32.514  1.00  0.00    -0.321 N 
HETATM   15  C   UNL     1      -6.032  -0.786 -33.804  1.00  0.00     0.279 C 
HETATM   16  O   UNL     1      -6.551   0.051 -34.537  1.00  0.00    -0.265 OA
HETATM   17  H   UNL     1      -5.257  -1.378 -32.026  1.00  0.00     0.169 HD
BRANCH  15  18
HETATM   18  C   UNL     1      -5.868  -2.173 -34.200  1.00  0.00     0.142 A 
HETATM   19  O   UNL     1      -6.963  -2.880 -34.634  1.00  0.00    -0.317 OA
HETATM   20  C   UNL     1      -6.533  -4.129 -34.953  1.00  0.00     0.143 A 
HETATM   21  C   UNL     1      -5.181  -4.243 -34.737  1.00  0.00     0.027 A 
HETATM   22  C   UNL     1      -4.751  -2.985 -34.251  1.00  0.00     0.045 A 
ENDBRANCH  15  18
ENDBRANCH  11  14
ENDBRANCH   7   8
ENDBRANCH   3   7
BRANCH   1  23
HETATM   23  C   UNL     1      -3.627   7.681 -27.058  1.00  0.00     0.089 C 
HETATM   24  C   UNL     1      -2.789   8.867 -27.543  1.00  0.00     0.053 C 
HETATM   25  C   UNL     1      -1.392   8.440 -27.954  1.00  0.00     0.237 C 
HETATM   26  N   UNL     1      -0.670   7.801 -26.768  1.00  0.00    -0.067 N 
HETATM   27  H   UNL     1      -0.586   8.523 -26.041  1.00  0.00     0.280 HD
HETATM   28  C   UNL     1      -1.485   6.655 -26.191  1.00  0.00     0.237 C 
HETATM   29  C   UNL     1      -2.908   7.088 -25.846  1.00  0.00     0.053 C 
BRANCH  26  30
HETATM   30  C   UNL     1       0.768   7.377 -27.141  1.00  0.00     0.180 C 
HETATM   31  C   UNL     1       1.534   8.560 -27.739  1.00  0.00     0.039 C 
HETATM   32  C   UNL     1       0.736   6.239 -28.164  1.00  0.00     0.039 C 
ENDBRANCH  26  30
ENDBRANCH   1  23
TORSDOF 6
ENDMDL
MODEL 7
REMARK VINA RESULT:      -7.7      2.827     10.585
REMARK  6 active torsions:
REMARK  status: ('A' for Active; 'I' for Inactive)
REMARK    1  A    between atoms: C_2  and  N_3 
REMARK    2  A    between atoms: C_7  and  N_8 
REMARK       I    between atoms: N_8  and  C_9 
REMARK       I    between atoms: C_9  and  N_10 
REMARK    3  A    between atoms: N_10  and  C_11 
REMARK    4  A    between atoms: C_11  and  C_12 
REMARK    5  A    between atoms: C_15  and  N_16 
REMARK       I    between atoms: N_16  and  C_17 
REMARK    6  A    between atoms: C_17  and  C_18 
ROOT
HETATM    1  N   UNL     1      -4.520   3.516 -32.796  1.00  0.00    -0.338 N 
HETATM    2  C   UNL     1      -3.816   4.574 -33.326  1.00  0.00     0.316 C 
HETATM    3  N   UNL     1      -2.481   4.278 -33.405  1.00  0.00    -0.339 N 
HETATM    4  O   UNL     1      -4.304   5.658 -33.601  1.00  0.00    -0.247 OA
HETATM    5  H   UNL     1      -4.176   2.644 -33.182  1.00  0.00     0.164 HD
HETATM    6  H   UNL     1      -2.148   3.464 -32.914  1.00  0.00     0.164 HD
ENDROOT
BRANCH   3   7
HETATM    7  C   UNL     1      -1.509   5.328 -33.644  1.00  0.00     0.162 C 
BRANCH   7   8
HETATM    8  C   UNL     1      -0.879   5.865 -32.374  1.00  0.00    -0.040 A 
HETATM    9  C   UNL     1       0.064   5.143 -31.630  1.00  0.00     0.011 A 
HETATM   10  C   UNL     1       0.567   5.645 -30.424  1.00  0.00     0.030 A 
HETATM   11  C   UNL     1       0.160   6.893 -29.953  1.00  0.00     0.035 A 
HETATM   12  C   UNL     1      -0.717   7.653 -30.731  1.00  0.00     0.030 A 
HETATM   13  C   UNL     1      -1.237   7.143 -31.926  1.00  0.00     0.011 A 
BRANCH  11  14
HETATM   14  N   UNL     1       0.571   7.437 -28.725  1.00  0.00    -0.321 N 
HETATM   15  C   UNL     1       0.123   7.118 -27.454  1.00  0.00     0.279 C 
HETATM   16  O   UNL     1      -0.726   6.270 -27.194  1.00  0.00    -0.265 OA
HETATM   17  H   UNL     1       1.218   8.220 -28.758  1.00  0.00     0.169 HD
BRANCH  15  18
HETATM   18  C   UNL     1       0.739   7.942 -26.428  1.00  0.00     0.142 A 
HETATM   19  O   UNL     1       2.076   7.787 -26.158  1.00  0.00    -0.317 OA
HETATM   20  C   UNL     1       2.394   8.677 -25.183  1.00  0.00     0.143 A 
HETATM   21  C   UNL     1       1.289   9.408 -24.819  1.00  0.00     0.027 A 
HETATM   22  C   UNL     1       0.221   8.935 -25.618  1.00  0.00     0.045 A 
ENDBRANCH  15  18
ENDBRANCH  11  14
ENDBRANCH   7   8
ENDBRANCH   3   7
BRANCH   1  23
HETATM   23  C   UNL     1      -5.966   3.559 -32.551  1.00  0.00     0.089 C 
HETATM   24  C   UNL     1      -6.477   2.688 -31.400  1.00  0.00     0.053 C 
HETATM   25  C   UNL     1      -6.193   1.216 -31.636  1.00  0.00     0.237 C 
HETATM   26  N   UNL     1      -6.874   0.751 -32.923  1.00  0.00    -0.067 N 
HETATM   27  H   UNL     1      -7.887   0.867 -32.788  1.00  0.00     0.280 HD
HETATM   28  C   UNL     1      -6.462   1.622 -34.099  1.00  0.00     0.237 C 
HETATM   29  C   UNL     1      -6.693   3.105 -33.816  1.00  0.00     0.053 C 
BRANCH  26  30
HETATM   30  C   UNL     1      -6.630  -0.752 -33.184  1.00  0.00     0.180 C 
HETATM   31  C   UNL     1      -5.192  -1.128 -32.819  1.00  0.00     0.039 C 
HETATM   32  C   UNL     1      -6.868  -1.078 -34.661  1.00  0.00     0.039 C 
ENDBRANCH  26  30
ENDBRANCH   1  23
TORSDOF 6
ENDMDL
MODEL 8
REMARK VINA RESULT:      -7.3      3.014      4.298
REMARK  6 active torsions:
REMARK  status: ('A' for Active; 'I' for Inactive)
REMARK    1  A    between atoms: C_2  and  N_3 
REMARK    2  A    between atoms: C_7  and  N_8 
REMARK       I    between atoms: N_8  and  C_9 
REMARK       I    between atoms: C_9  and  N_10 
REMARK    3  A    between atoms: N_10  and  C_11 
REMARK    4  A    between atoms: C_11  and  C_12 
REMARK    5  A    between atoms: C_15  and  N_16 
REMARK       I    between atoms: N_16  and  C_17 
REMARK    6  A    between atoms: C_17  and  C_18 
ROOT
HETATM    1  N   UNL     1      -0.020   6.909 -29.867  1.00  0.00    -0.338 N 
HETATM    2  C   UNL     1       0.090   6.013 -30.907  1.00  0.00     0.316 C 
HETATM    3  N   UNL     1      -0.760   6.346 -31.928  1.00  0.00    -0.339 N 
HETATM    4  O   UNL     1       0.783   5.010 -30.881  1.00  0.00    -0.247 OA
HETATM    5  H   UNL     1      -0.093   7.852 -30.231  1.00  0.00     0.164 HD
HETATM    6  H   UNL     1      -1.472   7.035 -31.744  1.00  0.00     0.164 HD
ENDROOT
BRANCH   3   7
HETATM    7  C   UNL     1      -1.042   5.397 -32.988  1.00  0.00     0.162 C 
BRANCH   7   8
HETATM    8  C   UNL     1      -2.355   4.663 -32.805  1.00  0.00    -0.040 A 
HETATM    9  C   UNL     1      -2.571   3.740 -31.772  1.00  0.00     0.011 A 
HETATM   10  C   UNL     1      -3.773   3.029 -31.682  1.00  0.00     0.030 A 
HETATM   11  C   UNL     1      -4.796   3.248 -32.604  1.00  0.00     0.035 A 
HETATM   12  C   UNL     1      -4.617   4.225 -33.587  1.00  0.00     0.030 A 
HETATM   13  C   UNL     1      -3.408   4.921 -33.692  1.00  0.00     0.011 A 
BRANCH  11  14
HETATM   14  N   UNL     1      -6.004   2.532 -32.617  1.00  0.00    -0.321 N 
HETATM   15  C   UNL     1      -6.227   1.236 -33.051  1.00  0.00     0.279 C 
HETATM   16  O   UNL     1      -5.368   0.481 -33.497  1.00  0.00    -0.265 OA
HETATM   17  H   UNL     1      -6.846   3.038 -32.355  1.00  0.00     0.169 HD
BRANCH  15  18
HETATM   18  C   UNL     1      -7.628   0.859 -32.970  1.00  0.00     0.142 A 
HETATM   19  O   UNL     1      -8.179   0.591 -31.741  1.00  0.00    -0.317 OA
HETATM   20  C   UNL     1      -9.486   0.284 -31.945  1.00  0.00     0.143 A 
HETATM   21  C   UNL     1      -9.793   0.352 -33.283  1.00  0.00     0.027 A 
HETATM   22  C   UNL     1      -8.597   0.720 -33.945  1.00  0.00     0.045 A 
ENDBRANCH  15  18
ENDBRANCH  11  14
ENDBRANCH   7   8
ENDBRANCH   3   7
BRANCH   1  23
HETATM   23  C   UNL     1       0.737   6.783 -28.618  1.00  0.00     0.089 C 
HETATM   24  C   UNL     1       0.018   6.077 -27.465  1.00  0.00     0.053 C 
HETATM   25  C   UNL     1      -1.243   6.813 -27.052  1.00  0.00     0.237 C 
HETATM   26  N   UNL     1      -0.897   8.231 -26.599  1.00  0.00    -0.067 N 
HETATM   27  H   UNL     1      -0.289   8.145 -25.775  1.00  0.00     0.280 HD
HETATM   28  C   UNL     1      -0.117   8.968 -27.675  1.00  0.00     0.237 C 
HETATM   29  C   UNL     1       1.112   8.181 -28.125  1.00  0.00     0.053 C 
BRANCH  26  30
HETATM   30  C   UNL     1      -2.155   9.004 -26.144  1.00  0.00     0.180 C 
HETATM   31  C   UNL     1      -1.757  10.218 -25.299  1.00  0.00     0.039 C 
HETATM   32  C   UNL     1      -3.061   8.096 -25.310  1.00  0.00     0.039 C 
ENDBRANCH  26  30
ENDBRANCH   1  23
TORSDOF 6
ENDMDL
MODEL 9
REMARK VINA RESULT:      -7.2      3.198     11.194
REMARK  6 active torsions:
REMARK  status: ('A' for Active; 'I' for Inactive)
REMARK    1  A    between atoms: C_2  and  N_3 
REMARK    2  A    between atoms: C_7  and  N_8 
REMARK       I    between atoms: N_8  and  C_9 
REMARK       I    between atoms: C_9  and  N_10 
REMARK    3  A    between atoms: N_10  and  C_11 
REMARK    4  A    between atoms: C_11  and  C_12 
REMARK    5  A    between atoms: C_15  and  N_16 
REMARK       I    between atoms: N_16  and  C_17 
REMARK    6  A    between atoms: C_17  and  C_18 
ROOT
HETATM    1  N   UNL     1      -3.619   3.647 -31.270  1.00  0.00    -0.338 N 
HETATM    2  C   UNL     1      -2.866   4.728 -31.667  1.00  0.00     0.316 C 
HETATM    3  N   UNL     1      -1.528   4.450 -31.576  1.00  0.00    -0.339 N 
HETATM    4  O   UNL     1      -3.329   5.816 -31.970  1.00  0.00    -0.247 OA
HETATM    5  H   UNL     1      -3.213   2.792 -31.634  1.00  0.00     0.164 HD
HETATM    6  H   UNL     1      -1.251   3.623 -31.071  1.00  0.00     0.164 HD
ENDROOT
BRANCH   3   7
HETATM    7  C   UNL     1      -0.548   5.517 -31.649  1.00  0.00     0.162 C 
BRANCH   7   8
HETATM    8  C   UNL     1      -0.301   6.198 -30.318  1.00  0.00    -0.040 A 
HETATM    9  C   UNL     1       0.382   5.577 -29.262  1.00  0.00     0.011 A 
HETATM   10  C   UNL     1       0.526   6.215 -28.025  1.00  0.00     0.030 A 
HETATM   11  C   UNL     1       0.017   7.497 -27.826  1.00  0.00     0.035 A 
HETATM   12  C   UNL     1      -0.593   8.153 -28.899  1.00  0.00     0.030 A 
HETATM   13  C   UNL     1      -0.756   7.510 -30.130  1.00  0.00     0.011 A 
BRANCH  11  14
HETATM   14  N   UNL     1       0.067   8.177 -26.598  1.00  0.00    -0.321 N 
HETATM   15  C   UNL     1       1.145   8.833 -26.025  1.00  0.00     0.279 C 
HETATM   16  O   UNL     1       2.260   8.935 -26.529  1.00  0.00    -0.265 OA
HETATM   17  H   UNL     1      -0.755   8.122 -26.002  1.00  0.00     0.169 HD
BRANCH  15  18
HETATM   18  C   UNL     1       0.833   9.364 -24.710  1.00  0.00     0.142 A 
HETATM   19  O   UNL     1      -0.471   9.660 -24.399  1.00  0.00    -0.317 OA
HETATM   20  C   UNL     1      -0.485  10.119 -23.121  1.00  0.00     0.143 A 
HETATM   21  C   UNL     1       0.785  10.124 -22.597  1.00  0.00     0.027 A 
HETATM   22  C   UNL     1       1.636   9.640 -23.620  1.00  0.00     0.045 A 
ENDBRANCH  15  18
ENDBRANCH  11  14
ENDBRANCH   7   8
ENDBRANCH   3   7
BRANCH   1  23
HETATM   23  C   UNL     1      -5.085   3.665 -31.220  1.00  0.00     0.089 C 
HETATM   24  C   UNL     1      -5.732   2.758 -30.171  1.00  0.00     0.053 C 
HETATM   25  C   UNL     1      -5.397   1.297 -30.405  1.00  0.00     0.237 C 
HETATM   26  N   UNL     1      -5.893   0.859 -31.783  1.00  0.00    -0.067 N 
HETATM   27  H   UNL     1      -6.916   0.960 -31.781  1.00  0.00     0.280 HD
HETATM   28  C   UNL     1      -5.340   1.767 -32.870  1.00  0.00     0.237 C 
HETATM   29  C   UNL     1      -5.630   3.238 -32.583  1.00  0.00     0.053 C 
BRANCH  26  30
HETATM   30  C   UNL     1      -5.593  -0.633 -32.047  1.00  0.00     0.180 C 
HETATM   31  C   UNL     1      -4.102  -0.920 -31.851  1.00  0.00     0.039 C 
HETATM   32  C   UNL     1      -5.985  -1.006 -33.479  1.00  0.00     0.039 C 
ENDBRANCH  26  30
ENDBRANCH   1  23
TORSDOF 6
ENDMDL
MODEL 10
REMARK VINA RESULT:      -7.1      5.047     10.520
REMARK  6 active torsions:
REMARK  status: ('A' for Active; 'I' for Inactive)
REMARK    1  A    between atoms: C_2  and  N_3 
REMARK    2  A    between atoms: C_7  and  N_8 
REMARK       I    between atoms: N_8  and  C_9 
REMARK       I    between atoms: C_9  and  N_10 
REMARK    3  A    between atoms: N_10  and  C_11 
REMARK    4  A    between atoms: C_11  and  C_12 
REMARK    5  A    between atoms: C_15  and  N_16 
REMARK       I    between atoms: N_16  and  C_17 
REMARK    6  A    between atoms: C_17  and  C_18 
ROOT
HETATM    1  N   UNL     1     -11.325   2.135 -32.884  1.00  0.00    -0.338 N 
HETATM    2  C   UNL     1     -10.283   1.241 -32.778  1.00  0.00     0.316 C 
HETATM    3  N   UNL     1      -9.457   1.577 -31.738  1.00  0.00    -0.339 N 
HETATM    4  O   UNL     1     -10.075   0.330 -33.562  1.00  0.00    -0.247 OA
HETATM    5  H   UNL     1     -11.675   2.366 -31.961  1.00  0.00     0.164 HD
HETATM    6  H   UNL     1      -9.570   2.487 -31.320  1.00  0.00     0.164 HD
ENDROOT
BRANCH   3   7
HETATM    7  C   UNL     1      -8.145   0.971 -31.617  1.00  0.00     0.162 C 
BRANCH   7   8
HETATM    8  C   UNL     1      -7.027   1.983 -31.465  1.00  0.00    -0.040 A 
HETATM    9  C   UNL     1      -6.624   2.831 -32.507  1.00  0.00     0.011 A 
HETATM   10  C   UNL     1      -5.539   3.701 -32.348  1.00  0.00     0.030 A 
HETATM   11  C   UNL     1      -4.854   3.763 -31.135  1.00  0.00     0.035 A 
HETATM   12  C   UNL     1      -5.302   2.980 -30.068  1.00  0.00     0.030 A 
HETATM   13  C   UNL     1      -6.374   2.095 -30.231  1.00  0.00     0.011 A 
BRANCH  11  14
HETATM   14  N   UNL     1      -3.720   4.563 -30.917  1.00  0.00    -0.321 N 
HETATM   15  C   UNL     1      -2.485   4.487 -31.540  1.00  0.00     0.279 C 
HETATM   16  O   UNL     1      -2.184   3.685 -32.420  1.00  0.00    -0.265 OA
HETATM   17  H   UNL     1      -3.765   5.234 -30.155  1.00  0.00     0.169 HD
BRANCH  15  18
HETATM   18  C   UNL     1      -1.535   5.445 -31.003  1.00  0.00     0.142 A 
HETATM   19  O   UNL     1      -1.984   6.679 -30.600  1.00  0.00    -0.317 OA
HETATM   20  C   UNL     1      -0.908   7.363 -30.130  1.00  0.00     0.143 A 
HETATM   21  C   UNL     1       0.227   6.595 -30.219  1.00  0.00     0.027 A 
HETATM   22  C   UNL     1      -0.174   5.360 -30.783  1.00  0.00     0.045 A 
ENDBRANCH  15  18
ENDBRANCH  11  14
ENDBRANCH   7   8
ENDBRANCH   3   7
BRANCH   1  23
HETATM   23  C   UNL     1     -12.345   2.055 -33.934  1.00  0.00     0.089 C 
HETATM   24  C   UNL     1     -12.480   3.286 -34.833  1.00  0.00     0.053 C 
HETATM   25  C   UNL     1     -12.868   4.523 -34.044  1.00  0.00     0.237 C 
HETATM   26  N   UNL     1     -14.208   4.297 -33.343  1.00  0.00    -0.067 N 
HETATM   27  H   UNL     1     -14.912   4.149 -34.078  1.00  0.00     0.280 HD
HETATM   28  C   UNL     1     -14.165   3.045 -32.484  1.00  0.00     0.237 C 
HETATM   29  C   UNL     1     -13.708   1.825 -33.280  1.00  0.00     0.053 C 
BRANCH  26  30
HETATM   30  C   UNL     1     -14.651   5.546 -32.549  1.00  0.00     0.180 C 
HETATM   31  C   UNL     1     -13.579   6.637 -32.631  1.00  0.00     0.039 C 
HETATM   32  C   UNL     1     -14.880   5.185 -31.080  1.00  0.00     0.039 C 
ENDBRANCH  26  30
ENDBRANCH   1  23
TORSDOF 6
ENDMDL
