MODEL 1
REMARK VINA RESULT:      -7.6      0.000      0.000
REMARK  8 active torsions:
REMARK  status: ('A' for Active; 'I' for Inactive)
REMARK    1  A    between atoms: C_2  and  C_3 
REMARK    2  A    between atoms: C_3  and  N_4 
REMARK    3  A    between atoms: C_7  and  C_8 
REMARK       I    between atoms: C_8  and  N_9 
REMARK    4  A    between atoms: N_9  and  C_10 
REMARK    5  A    between atoms: C_13  and  O_14 
REMARK    6  A    between atoms: O_14  and  C_15 
REMARK    7  A    between atoms: C_15  and  C_16 
REMARK       I    between atoms: C_16  and  N_17 
REMARK    8  A    between atoms: C_23  and  C_24 
ROOT
HETATM    1  C   UNL     1      -7.710   2.269 -32.938  1.00  0.00     0.259 C 
HETATM    2  N   UNL     1      -6.913   3.377 -32.745  1.00  0.00    -0.323 N 
HETATM    3  O   UNL     1      -8.860   2.346 -32.504  1.00  0.00    -0.267 OA
HETATM    4  H   UNL     1      -7.418   4.046 -32.176  1.00  0.00     0.169 HD
ENDROOT
BRANCH   2   5
HETATM    5  C   UNL     1      -5.600   3.738 -33.095  1.00  0.00     0.035 A 
HETATM    6  C   UNL     1      -4.442   3.330 -32.444  1.00  0.00     0.032 A 
HETATM    7  C   UNL     1      -3.199   3.875 -32.802  1.00  0.00     0.039 A 
HETATM    8  C   UNL     1      -3.089   4.798 -33.842  1.00  0.00     0.069 A 
HETATM    9  C   UNL     1      -4.228   5.108 -34.581  1.00  0.00     0.039 A 
HETATM   10  C   UNL     1      -5.470   4.586 -34.203  1.00  0.00     0.032 A 
BRANCH   8  11
HETATM   11  O   UNL     1      -1.842   5.325 -34.022  1.00  0.00    -0.342 OA
BRANCH  11  12
HETATM   12  C   UNL     1      -1.741   6.736 -34.202  1.00  0.00     0.278 C 
BRANCH  12  13
HETATM   13  C   UNL     1      -1.316   7.434 -32.911  1.00  0.00     0.241 C 
HETATM   14  N   UNL     1      -0.544   6.652 -32.078  1.00  0.00    -0.364 N 
HETATM   15  C   UNL     1      -0.215   7.054 -30.735  1.00  0.00     0.149 C 
HETATM   16  H   UNL     1      -0.305   5.718 -32.395  1.00  0.00     0.161 HD
HETATM   17  O   UNL     1      -1.721   8.554 -32.608  1.00  0.00    -0.271 OA
ENDBRANCH  12  13
ENDBRANCH  11  12
ENDBRANCH   8  11
ENDBRANCH   2   5
BRANCH   1  18
HETATM   18  C   UNL     1      -7.196   1.057 -33.541  1.00  0.00     0.076 A 
HETATM   19  C   UNL     1      -7.123   0.786 -34.928  1.00  0.00     0.158 A 
HETATM   20  N   UNL     1      -6.682  -0.439 -35.201  1.00  0.00    -0.183 NA
HETATM   21  N   UNL     1      -6.367  -0.944 -33.992  1.00  0.00    -0.268 N 
HETATM   22  C   UNL     1      -6.607  -0.061 -32.955  1.00  0.00     0.052 A 
BRANCH  21  23
HETATM   23  C   UNL     1      -5.897  -2.327 -33.896  1.00  0.00     0.106 C 
HETATM   24  C   UNL     1      -6.701  -3.207 -34.858  1.00  0.00     0.034 C 
BRANCH  23  25
HETATM   25  C   UNL     1      -4.385  -2.505 -34.139  1.00  0.00     0.022 C 
HETATM   26  C   UNL     1      -3.633  -2.944 -32.888  1.00  0.00     0.007 C 
ENDBRANCH  23  25
ENDBRANCH  21  23
BRANCH  22  27
HETATM   27  C   UNL     1      -6.284  -0.363 -31.487  1.00  0.00     0.038 A 
HETATM   28  C   UNL     1      -4.922   0.008 -30.947  1.00  0.00     0.011 A 
HETATM   29  C   UNL     1      -6.137   0.723 -30.453  1.00  0.00     0.011 A 
ENDBRANCH  22  27
ENDBRANCH   1  18
TORSDOF 8
ENDMDL
MODEL 2
REMARK VINA RESULT:      -7.5      1.731      2.882
REMARK  8 active torsions:
REMARK  status: ('A' for Active; 'I' for Inactive)
REMARK    1  A    between atoms: C_2  and  C_3 
REMARK    2  A    between atoms: C_3  and  N_4 
REMARK    3  A    between atoms: C_7  and  C_8 
REMARK       I    between atoms: C_8  and  N_9 
REMARK    4  A    between atoms: N_9  and  C_10 
REMARK    5  A    between atoms: C_13  and  O_14 
REMARK    6  A    between atoms: O_14  and  C_15 
REMARK    7  A    between atoms: C_15  and  C_16 
REMARK       I    between atoms: C_16  and  N_17 
REMARK    8  A    between atoms: C_23  and  C_24 
ROOT
HETATM    1  C   UNL     1      -8.134   1.183 -32.119  1.00  0.00     0.259 C 
HETATM    2  N   UNL     1      -8.189   2.490 -32.555  1.00  0.00    -0.323 N 
HETATM    3  O   UNL     1      -9.213   0.659 -31.841  1.00  0.00    -0.267 OA
HETATM    4  H   UNL     1      -9.144   2.819 -32.477  1.00  0.00     0.169 HD
ENDROOT
BRANCH   2   5
HETATM    5  C   UNL     1      -7.250   3.435 -33.003  1.00  0.00     0.035 A 
HETATM    6  C   UNL     1      -6.432   3.305 -34.120  1.00  0.00     0.032 A 
HETATM    7  C   UNL     1      -5.433   4.256 -34.380  1.00  0.00     0.039 A 
HETATM    8  C   UNL     1      -5.268   5.371 -33.558  1.00  0.00     0.069 A 
HETATM    9  C   UNL     1      -6.170   5.572 -32.518  1.00  0.00     0.039 A 
HETATM   10  C   UNL     1      -7.147   4.608 -32.242  1.00  0.00     0.032 A 
BRANCH   8  11
HETATM   11  O   UNL     1      -4.197   6.164 -33.864  1.00  0.00    -0.342 OA
BRANCH  11  12
HETATM   12  C   UNL     1      -3.147   5.584 -34.633  1.00  0.00     0.278 C 
BRANCH  12  13
HETATM   13  C   UNL     1      -1.786   5.799 -33.971  1.00  0.00     0.241 C 
HETATM   14  N   UNL     1      -1.607   5.079 -32.809  1.00  0.00    -0.364 N 
HETATM   15  C   UNL     1      -0.483   5.296 -31.936  1.00  0.00     0.149 C 
HETATM   16  H   UNL     1      -2.357   4.460 -32.517  1.00  0.00     0.161 HD
HETATM   17  O   UNL     1      -0.978   6.624 -34.389  1.00  0.00    -0.271 OA
ENDBRANCH  12  13
ENDBRANCH  11  12
ENDBRANCH   8  11
ENDBRANCH   2   5
BRANCH   1  18
HETATM   18  C   UNL     1      -6.873   0.500 -31.919  1.00  0.00     0.076 A 
HETATM   19  C   UNL     1      -6.239   0.277 -30.673  1.00  0.00     0.158 A 
HETATM   20  N   UNL     1      -5.049  -0.306 -30.788  1.00  0.00    -0.183 NA
HETATM   21  N   UNL     1      -4.941  -0.561 -32.107  1.00  0.00    -0.268 N 
HETATM   22  C   UNL     1      -6.042  -0.143 -32.833  1.00  0.00     0.052 A 
BRANCH  21  23
HETATM   23  C   UNL     1      -3.707  -1.155 -32.621  1.00  0.00     0.106 C 
HETATM   24  C   UNL     1      -2.539  -0.783 -31.702  1.00  0.00     0.034 C 
BRANCH  23  25
HETATM   25  C   UNL     1      -3.769  -2.683 -32.821  1.00  0.00     0.022 C 
HETATM   26  C   UNL     1      -2.948  -3.448 -31.791  1.00  0.00     0.007 C 
ENDBRANCH  23  25
ENDBRANCH  21  23
BRANCH  22  27
HETATM   27  C   UNL     1      -6.200  -0.362 -34.342  1.00  0.00     0.038 A 
HETATM   28  C   UNL     1      -6.834  -1.644 -34.831  1.00  0.00     0.011 A 
HETATM   29  C   UNL     1      -7.544  -0.344 -35.023  1.00  0.00     0.011 A 
ENDBRANCH  22  27
ENDBRANCH   1  18
TORSDOF 8
ENDMDL
MODEL 3
REMARK VINA RESULT:      -7.4      1.282      2.302
REMARK  8 active torsions:
REMARK  status: ('A' for Active; 'I' for Inactive)
REMARK    1  A    between atoms: C_2  and  C_3 
REMARK    2  A    between atoms: C_3  and  N_4 
REMARK    3  A    between atoms: C_7  and  C_8 
REMARK       I    between atoms: C_8  and  N_9 
REMARK    4  A    between atoms: N_9  and  C_10 
REMARK    5  A    between atoms: C_13  and  O_14 
REMARK    6  A    between atoms: O_14  and  C_15 
REMARK    7  A    between atoms: C_15  and  C_16 
REMARK       I    between atoms: C_16  and  N_17 
REMARK    8  A    between atoms: C_23  and  C_24 
ROOT
HETATM    1  C   UNL     1      -6.153   1.415 -30.979  1.00  0.00     0.259 C 
HETATM    2  N   UNL     1      -5.655   2.677 -31.223  1.00  0.00    -0.323 N 
HETATM    3  O   UNL     1      -6.874   1.299 -29.987  1.00  0.00    -0.267 OA
HETATM    4  H   UNL     1      -5.917   3.284 -30.455  1.00  0.00     0.169 HD
ENDROOT
BRANCH   2   5
HETATM    5  C   UNL     1      -4.857   3.261 -32.221  1.00  0.00     0.035 A 
HETATM    6  C   UNL     1      -3.475   3.151 -32.329  1.00  0.00     0.032 A 
HETATM    7  C   UNL     1      -2.777   3.901 -33.289  1.00  0.00     0.039 A 
HETATM    8  C   UNL     1      -3.451   4.732 -34.183  1.00  0.00     0.069 A 
HETATM    9  C   UNL     1      -4.843   4.742 -34.165  1.00  0.00     0.039 A 
HETATM   10  C   UNL     1      -5.535   4.017 -33.188  1.00  0.00     0.032 A 
BRANCH   8  11
HETATM   11  O   UNL     1      -2.649   5.480 -34.997  1.00  0.00    -0.342 OA
BRANCH  11  12
HETATM   12  C   UNL     1      -1.318   5.738 -34.555  1.00  0.00     0.278 C 
BRANCH  12  13
HETATM   13  C   UNL     1      -1.272   6.915 -33.582  1.00  0.00     0.241 C 
HETATM   14  N   UNL     1      -0.783   6.593 -32.333  1.00  0.00    -0.364 N 
HETATM   15  C   UNL     1      -0.848   7.507 -31.223  1.00  0.00     0.149 C 
HETATM   16  H   UNL     1      -0.474   5.638 -32.180  1.00  0.00     0.161 HD
HETATM   17  O   UNL     1      -1.732   8.018 -33.866  1.00  0.00    -0.271 OA
ENDBRANCH  12  13
ENDBRANCH  11  12
ENDBRANCH   8  11
ENDBRANCH   2   5
BRANCH   1  18
HETATM   18  C   UNL     1      -5.777   0.277 -31.792  1.00  0.00     0.076 A 
HETATM   19  C   UNL     1      -4.694  -0.599 -31.543  1.00  0.00     0.158 A 
HETATM   20  N   UNL     1      -4.528  -1.512 -32.497  1.00  0.00    -0.183 NA
HETATM   21  N   UNL     1      -5.568  -1.301 -33.328  1.00  0.00    -0.268 N 
HETATM   22  C   UNL     1      -6.387  -0.264 -32.921  1.00  0.00     0.052 A 
BRANCH  21  23
HETATM   23  C   UNL     1      -5.678  -2.098 -34.551  1.00  0.00     0.106 C 
HETATM   24  C   UNL     1      -4.384  -2.889 -34.763  1.00  0.00     0.034 C 
BRANCH  23  25
HETATM   25  C   UNL     1      -6.898  -3.040 -34.591  1.00  0.00     0.022 C 
HETATM   26  C   UNL     1      -6.531  -4.466 -34.982  1.00  0.00     0.007 C 
ENDBRANCH  23  25
ENDBRANCH  21  23
BRANCH  22  27
HETATM   27  C   UNL     1      -7.669   0.147 -33.655  1.00  0.00     0.038 A 
HETATM   28  C   UNL     1      -9.003  -0.092 -32.985  1.00  0.00     0.011 A 
HETATM   29  C   UNL     1      -8.521   1.305 -33.204  1.00  0.00     0.011 A 
ENDBRANCH  22  27
ENDBRANCH   1  18
TORSDOF 8
ENDMDL
MODEL 4
REMARK VINA RESULT:      -6.9      2.811      8.995
REMARK  8 active torsions:
REMARK  status: ('A' for Active; 'I' for Inactive)
REMARK    1  A    between atoms: C_2  and  C_3 
REMARK    2  A    between atoms: C_3  and  N_4 
REMARK    3  A    between atoms: C_7  and  C_8 
REMARK       I    between atoms: C_8  and  N_9 
REMARK    4  A    between atoms: N_9  and  C_10 
REMARK    5  A    between atoms: C_13  and  O_14 
REMARK    6  A    between atoms: O_14  and  C_15 
REMARK    7  A    between atoms: C_15  and  C_16 
REMARK       I    between atoms: C_16  and  N_17 
REMARK    8  A    between atoms: C_23  and  C_24 
ROOT
HETATM    1  C   UNL     1      -2.065   7.190 -32.942  1.00  0.00     0.259 C 
HETATM    2  N   UNL     1      -2.681   5.993 -33.243  1.00  0.00    -0.323 N 
HETATM    3  O   UNL     1      -1.505   7.761 -33.878  1.00  0.00    -0.267 OA
HETATM    4  H   UNL     1      -2.471   5.753 -34.205  1.00  0.00     0.169 HD
ENDROOT
BRANCH   2   5
HETATM    5  C   UNL     1      -3.445   5.055 -32.529  1.00  0.00     0.035 A 
HETATM    6  C   UNL     1      -4.756   5.228 -32.098  1.00  0.00     0.032 A 
HETATM    7  C   UNL     1      -5.361   4.272 -31.268  1.00  0.00     0.039 A 
HETATM    8  C   UNL     1      -4.685   3.110 -30.895  1.00  0.00     0.069 A 
HETATM    9  C   UNL     1      -3.424   2.871 -31.433  1.00  0.00     0.039 A 
HETATM   10  C   UNL     1      -2.810   3.840 -32.236  1.00  0.00     0.032 A 
BRANCH   8  11
HETATM   11  O   UNL     1      -5.349   2.313 -30.006  1.00  0.00    -0.342 OA
BRANCH  11  12
HETATM   12  C   UNL     1      -5.415   0.918 -30.293  1.00  0.00     0.278 C 
BRANCH  12  13
HETATM   13  C   UNL     1      -6.498   0.613 -31.327  1.00  0.00     0.241 C 
HETATM   14  N   UNL     1      -7.763   1.015 -30.952  1.00  0.00    -0.364 N 
HETATM   15  C   UNL     1      -8.939   0.640 -31.692  1.00  0.00     0.149 C 
HETATM   16  H   UNL     1      -7.860   1.493 -30.062  1.00  0.00     0.161 HD
HETATM   17  O   UNL     1      -6.266  -0.029 -32.349  1.00  0.00    -0.271 OA
ENDBRANCH  12  13
ENDBRANCH  11  12
ENDBRANCH   8  11
ENDBRANCH   2   5
BRANCH   1  18
HETATM   18  C   UNL     1      -2.010   7.698 -31.587  1.00  0.00     0.076 A 
HETATM   19  C   UNL     1      -3.015   8.460 -30.946  1.00  0.00     0.158 A 
HETATM   20  N   UNL     1      -2.669   8.866 -29.727  1.00  0.00    -0.183 NA
HETATM   21  N   UNL     1      -1.470   8.283 -29.523  1.00  0.00    -0.268 N 
HETATM   22  C   UNL     1      -1.048   7.520 -30.596  1.00  0.00     0.052 A 
BRANCH  21  23
HETATM   23  C   UNL     1      -0.742   8.561 -28.284  1.00  0.00     0.106 C 
HETATM   24  C   UNL     1      -1.091   9.968 -27.792  1.00  0.00     0.034 C 
BRANCH  23  25
HETATM   25  C   UNL     1      -0.972   7.526 -27.163  1.00  0.00     0.022 C 
HETATM   26  C   UNL     1       0.328   7.007 -26.563  1.00  0.00     0.007 C 
ENDBRANCH  23  25
ENDBRANCH  21  23
BRANCH  22  27
HETATM   27  C   UNL     1       0.252   6.707 -30.604  1.00  0.00     0.038 A 
HETATM   28  C   UNL     1       0.286   5.378 -29.884  1.00  0.00     0.011 A 
HETATM   29  C   UNL     1       0.394   5.419 -31.374  1.00  0.00     0.011 A 
ENDBRANCH  22  27
ENDBRANCH   1  18
TORSDOF 8
ENDMDL
MODEL 5
REMARK VINA RESULT:      -6.8      2.416      8.778
REMARK  8 active torsions:
REMARK  status: ('A' for Active; 'I' for Inactive)
REMARK    1  A    between atoms: C_2  and  C_3 
REMARK    2  A    between atoms: C_3  and  N_4 
REMARK    3  A    between atoms: C_7  and  C_8 
REMARK       I    between atoms: C_8  and  N_9 
REMARK    4  A    between atoms: N_9  and  C_10 
REMARK    5  A    between atoms: C_13  and  O_14 
REMARK    6  A    between atoms: O_14  and  C_15 
REMARK    7  A    between atoms: C_15  and  C_16 
REMARK       I    between atoms: C_16  and  N_17 
REMARK    8  A    between atoms: C_23  and  C_24 
ROOT
HETATM    1  C   UNL     1      -2.048   7.096 -33.094  1.00  0.00     0.259 C 
HETATM    2  N   UNL     1      -2.496   5.885 -33.579  1.00  0.00    -0.323 N 
HETATM    3  O   UNL     1      -1.503   7.839 -33.912  1.00  0.00    -0.267 OA
HETATM    4  H   UNL     1      -2.200   5.792 -34.543  1.00  0.00     0.169 HD
ENDROOT
BRANCH   2   5
HETATM    5  C   UNL     1      -3.184   4.785 -33.039  1.00  0.00     0.035 A 
HETATM    6  C   UNL     1      -2.638   3.805 -32.218  1.00  0.00     0.032 A 
HETATM    7  C   UNL     1      -3.395   2.678 -31.861  1.00  0.00     0.039 A 
HETATM    8  C   UNL     1      -4.719   2.536 -32.280  1.00  0.00     0.069 A 
HETATM    9  C   UNL     1      -5.308   3.578 -32.990  1.00  0.00     0.039 A 
HETATM   10  C   UNL     1      -4.543   4.687 -33.370  1.00  0.00     0.032 A 
BRANCH   8  11
HETATM   11  O   UNL     1      -5.308   1.349 -31.949  1.00  0.00    -0.342 OA
BRANCH  11  12
HETATM   12  C   UNL     1      -4.489   0.182 -31.954  1.00  0.00     0.278 C 
BRANCH  12  13
HETATM   13  C   UNL     1      -5.145  -0.955 -32.737  1.00  0.00     0.241 C 
HETATM   14  N   UNL     1      -4.250  -1.777 -33.389  1.00  0.00    -0.364 N 
HETATM   15  C   UNL     1      -4.674  -2.775 -34.336  1.00  0.00     0.149 C 
HETATM   16  H   UNL     1      -3.261  -1.583 -33.273  1.00  0.00     0.161 HD
HETATM   17  O   UNL     1      -6.364  -1.052 -32.853  1.00  0.00    -0.271 OA
ENDBRANCH  12  13
ENDBRANCH  11  12
ENDBRANCH   8  11
ENDBRANCH   2   5
BRANCH   1  18
HETATM   18  C   UNL     1      -2.137   7.433 -31.689  1.00  0.00     0.076 A 
HETATM   19  C   UNL     1      -3.275   7.960 -31.033  1.00  0.00     0.158 A 
HETATM   20  N   UNL     1      -3.054   8.254 -29.754  1.00  0.00    -0.183 NA
HETATM   21  N   UNL     1      -1.794   7.826 -29.539  1.00  0.00    -0.268 N 
HETATM   22  C   UNL     1      -1.209   7.271 -30.662  1.00  0.00     0.052 A 
BRANCH  21  23
HETATM   23  C   UNL     1      -1.179   8.047 -28.230  1.00  0.00     0.106 C 
HETATM   24  C   UNL     1      -1.363   9.512 -27.820  1.00  0.00     0.034 C 
BRANCH  23  25
HETATM   25  C   UNL     1      -1.690   7.109 -27.117  1.00  0.00     0.022 C 
HETATM   26  C   UNL     1      -0.579   6.282 -26.484  1.00  0.00     0.007 C 
ENDBRANCH  23  25
ENDBRANCH  21  23
BRANCH  22  27
HETATM   27  C   UNL     1       0.195   6.658 -30.676  1.00  0.00     0.038 A 
HETATM   28  C   UNL     1       0.434   5.361 -29.936  1.00  0.00     0.011 A 
HETATM   29  C   UNL     1       0.515   5.391 -31.427  1.00  0.00     0.011 A 
ENDBRANCH  22  27
ENDBRANCH   1  18
TORSDOF 8
ENDMDL
MODEL 6
REMARK VINA RESULT:      -6.7      3.007      9.233
REMARK  8 active torsions:
REMARK  status: ('A' for Active; 'I' for Inactive)
REMARK    1  A    between atoms: C_2  and  C_3 
REMARK    2  A    between atoms: C_3  and  N_4 
REMARK    3  A    between atoms: C_7  and  C_8 
REMARK       I    between atoms: C_8  and  N_9 
REMARK    4  A    between atoms: N_9  and  C_10 
REMARK    5  A    between atoms: C_13  and  O_14 
REMARK    6  A    between atoms: O_14  and  C_15 
REMARK    7  A    between atoms: C_15  and  C_16 
REMARK       I    between atoms: C_16  and  N_17 
REMARK    8  A    between atoms: C_23  and  C_24 
ROOT
HETATM    1  C   UNL     1      -1.848   7.238 -32.836  1.00  0.00     0.259 C 
HETATM    2  N   UNL     1      -2.757   6.226 -33.064  1.00  0.00    -0.323 N 
HETATM    3  O   UNL     1      -1.756   8.092 -33.718  1.00  0.00    -0.267 OA
HETATM    4  H   UNL     1      -3.133   6.331 -33.999  1.00  0.00     0.169 HD
ENDROOT
BRANCH   2   5
HETATM    5  C   UNL     1      -3.207   5.106 -32.344  1.00  0.00     0.035 A 
HETATM    6  C   UNL     1      -2.736   3.805 -32.481  1.00  0.00     0.032 A 
HETATM    7  C   UNL     1      -3.367   2.748 -31.808  1.00  0.00     0.039 A 
HETATM    8  C   UNL     1      -4.446   2.980 -30.954  1.00  0.00     0.069 A 
HETATM    9  C   UNL     1      -4.834   4.294 -30.713  1.00  0.00     0.039 A 
HETATM   10  C   UNL     1      -4.223   5.344 -31.408  1.00  0.00     0.032 A 
BRANCH   8  11
HETATM   11  O   UNL     1      -5.032   1.857 -30.441  1.00  0.00    -0.342 OA
BRANCH  11  12
HETATM   12  C   UNL     1      -6.445   1.878 -30.252  1.00  0.00     0.278 C 
BRANCH  12  13
HETATM   13  C   UNL     1      -7.168   1.145 -31.382  1.00  0.00     0.241 C 
HETATM   14  N   UNL     1      -8.543   1.194 -31.293  1.00  0.00    -0.364 N 
HETATM   15  C   UNL     1      -9.396   0.402 -32.141  1.00  0.00     0.149 C 
HETATM   16  H   UNL     1      -8.948   1.723 -30.528  1.00  0.00     0.161 HD
HETATM   17  O   UNL     1      -6.566   0.486 -32.226  1.00  0.00    -0.271 OA
ENDBRANCH  12  13
ENDBRANCH  11  12
ENDBRANCH   8  11
ENDBRANCH   2   5
BRANCH   1  18
HETATM   18  C   UNL     1      -0.993   7.245 -31.667  1.00  0.00     0.076 A 
HETATM   19  C   UNL     1       0.287   6.650 -31.573  1.00  0.00     0.158 A 
HETATM   20  N   UNL     1       0.818   6.737 -30.356  1.00  0.00    -0.183 NA
HETATM   21  N   UNL     1      -0.072   7.482 -29.670  1.00  0.00    -0.268 N 
HETATM   22  C   UNL     1      -1.163   7.862 -30.430  1.00  0.00     0.052 A 
BRANCH  21  23
HETATM   23  C   UNL     1       0.156   7.736 -28.247  1.00  0.00     0.106 C 
HETATM   24  C   UNL     1       0.149   6.409 -27.483  1.00  0.00     0.034 C 
BRANCH  23  25
HETATM   25  C   UNL     1       1.443   8.528 -27.938  1.00  0.00     0.022 C 
HETATM   26  C   UNL     1       1.517   8.995 -26.491  1.00  0.00     0.007 C 
ENDBRANCH  23  25
ENDBRANCH  21  23
BRANCH  22  27
HETATM   27  C   UNL     1      -2.293   8.758 -29.910  1.00  0.00     0.038 A 
HETATM   28  C   UNL     1      -2.518  10.103 -30.563  1.00  0.00     0.011 A 
HETATM   29  C   UNL     1      -3.543   9.025 -30.708  1.00  0.00     0.011 A 
ENDBRANCH  22  27
ENDBRANCH   1  18
TORSDOF 8
ENDMDL
MODEL 7
REMARK VINA RESULT:      -6.7      3.516      8.120
REMARK  8 active torsions:
REMARK  status: ('A' for Active; 'I' for Inactive)
REMARK    1  A    between atoms: C_2  and  C_3 
REMARK    2  A    between atoms: C_3  and  N_4 
REMARK    3  A    between atoms: C_7  and  C_8 
REMARK       I    between atoms: C_8  and  N_9 
REMARK    4  A    between atoms: N_9  and  C_10 
REMARK    5  A    between atoms: C_13  and  O_14 
REMARK    6  A    between atoms: O_14  and  C_15 
REMARK    7  A    between atoms: C_15  and  C_16 
REMARK       I    between atoms: C_16  and  N_17 
REMARK    8  A    between atoms: C_23  and  C_24 
ROOT
HETATM    1  C   UNL     1      -6.424   1.070 -30.281  1.00  0.00     0.259 C 
HETATM    2  N   UNL     1      -7.734   0.843 -30.648  1.00  0.00    -0.323 N 
HETATM    3  O   UNL     1      -5.990   0.370 -29.365  1.00  0.00    -0.267 OA
HETATM    4  H   UNL     1      -8.140   0.172 -30.007  1.00  0.00     0.169 HD
ENDROOT
BRANCH   2   5
HETATM    5  C   UNL     1      -8.600   1.355 -31.629  1.00  0.00     0.035 A 
HETATM    6  C   UNL     1      -9.352   2.520 -31.525  1.00  0.00     0.032 A 
HETATM    7  C   UNL     1     -10.290   2.849 -32.516  1.00  0.00     0.039 A 
HETATM    8  C   UNL     1     -10.456   2.047 -33.645  1.00  0.00     0.069 A 
HETATM    9  C   UNL     1      -9.611   0.954 -33.817  1.00  0.00     0.039 A 
HETATM   10  C   UNL     1      -8.698   0.611 -32.813  1.00  0.00     0.032 A 
BRANCH   8  11
HETATM   11  O   UNL     1     -11.468   2.424 -34.481  1.00  0.00    -0.342 OA
BRANCH  11  12
HETATM   12  C   UNL     1     -12.265   1.393 -35.060  1.00  0.00     0.278 C 
BRANCH  12  13
HETATM   13  C   UNL     1     -13.384   0.957 -34.115  1.00  0.00     0.241 C 
HETATM   14  N   UNL     1     -14.316   1.940 -33.856  1.00  0.00    -0.364 N 
HETATM   15  C   UNL     1     -15.326   1.793 -32.841  1.00  0.00     0.149 C 
HETATM   16  H   UNL     1     -14.201   2.833 -34.324  1.00  0.00     0.161 HD
HETATM   17  O   UNL     1     -13.383  -0.139 -33.560  1.00  0.00    -0.271 OA
ENDBRANCH  12  13
ENDBRANCH  11  12
ENDBRANCH   8  11
ENDBRANCH   2   5
BRANCH   1  18
HETATM   18  C   UNL     1      -5.637   2.127 -30.879  1.00  0.00     0.076 A 
HETATM   19  C   UNL     1      -5.374   3.393 -30.303  1.00  0.00     0.158 A 
HETATM   20  N   UNL     1      -4.690   4.203 -31.106  1.00  0.00    -0.183 NA
HETATM   21  N   UNL     1      -4.413   3.434 -32.179  1.00  0.00    -0.268 N 
HETATM   22  C   UNL     1      -4.917   2.151 -32.071  1.00  0.00     0.052 A 
BRANCH  21  23
HETATM   23  C   UNL     1      -3.711   4.024 -33.318  1.00  0.00     0.106 C 
HETATM   24  C   UNL     1      -4.516   5.211 -33.856  1.00  0.00     0.034 C 
BRANCH  23  25
HETATM   25  C   UNL     1      -2.258   4.449 -33.022  1.00  0.00     0.022 C 
HETATM   26  C   UNL     1      -1.600   5.163 -34.196  1.00  0.00     0.007 C 
ENDBRANCH  23  25
ENDBRANCH  21  23
BRANCH  22  27
HETATM   27  C   UNL     1      -4.697   1.059 -33.124  1.00  0.00     0.038 A 
HETATM   28  C   UNL     1      -3.622   0.022 -32.888  1.00  0.00     0.011 A 
HETATM   29  C   UNL     1      -5.060  -0.383 -32.879  1.00  0.00     0.011 A 
ENDBRANCH  22  27
ENDBRANCH   1  18
TORSDOF 8
ENDMDL
MODEL 8
REMARK VINA RESULT:      -6.6      1.722      2.310
REMARK  8 active torsions:
REMARK  status: ('A' for Active; 'I' for Inactive)
REMARK    1  A    between atoms: C_2  and  C_3 
REMARK    2  A    between atoms: C_3  and  N_4 
REMARK    3  A    between atoms: C_7  and  C_8 
REMARK       I    between atoms: C_8  and  N_9 
REMARK    4  A    between atoms: N_9  and  C_10 
REMARK    5  A    between atoms: C_13  and  O_14 
REMARK    6  A    between atoms: O_14  and  C_15 
REMARK    7  A    between atoms: C_15  and  C_16 
REMARK       I    between atoms: C_16  and  N_17 
REMARK    8  A    between atoms: C_23  and  C_24 
ROOT
HETATM    1  C   UNL     1      -8.297   0.528 -32.331  1.00  0.00     0.259 C 
HETATM    2  N   UNL     1      -8.229   1.903 -32.254  1.00  0.00    -0.323 N 
HETATM    3  O   UNL     1      -9.214  -0.005 -31.704  1.00  0.00    -0.267 OA
HETATM    4  H   UNL     1      -8.926   2.227 -31.594  1.00  0.00     0.169 HD
ENDROOT
BRANCH   2   5
HETATM    5  C   UNL     1      -7.409   2.896 -32.816  1.00  0.00     0.035 A 
HETATM    6  C   UNL     1      -6.650   2.768 -33.974  1.00  0.00     0.032 A 
HETATM    7  C   UNL     1      -5.759   3.784 -34.354  1.00  0.00     0.039 A 
HETATM    8  C   UNL     1      -5.647   4.959 -33.610  1.00  0.00     0.069 A 
HETATM    9  C   UNL     1      -6.501   5.146 -32.527  1.00  0.00     0.039 A 
HETATM   10  C   UNL     1      -7.367   4.119 -32.133  1.00  0.00     0.032 A 
BRANCH   8  11
HETATM   11  O   UNL     1      -4.674   5.821 -34.029  1.00  0.00    -0.342 OA
BRANCH  11  12
HETATM   12  C   UNL     1      -3.736   5.339 -34.989  1.00  0.00     0.278 C 
BRANCH  12  13
HETATM   13  C   UNL     1      -2.302   5.690 -34.592  1.00  0.00     0.241 C 
HETATM   14  N   UNL     1      -2.212   6.635 -33.592  1.00  0.00    -0.364 N 
HETATM   15  C   UNL     1      -0.960   7.242 -33.220  1.00  0.00     0.149 C 
HETATM   16  H   UNL     1      -3.077   6.984 -33.194  1.00  0.00     0.161 HD
HETATM   17  O   UNL     1      -1.328   5.241 -35.192  1.00  0.00    -0.271 OA
ENDBRANCH  12  13
ENDBRANCH  11  12
ENDBRANCH   8  11
ENDBRANCH   2   5
BRANCH   1  18
HETATM   18  C   UNL     1      -7.298  -0.246 -33.037  1.00  0.00     0.076 A 
HETATM   19  C   UNL     1      -7.421  -0.759 -34.350  1.00  0.00     0.158 A 
HETATM   20  N   UNL     1      -6.384  -1.504 -34.722  1.00  0.00    -0.183 NA
HETATM   21  N   UNL     1      -5.525  -1.399 -33.688  1.00  0.00    -0.268 N 
HETATM   22  C   UNL     1      -6.005  -0.605 -32.662  1.00  0.00     0.052 A 
BRANCH  21  23
HETATM   23  C   UNL     1      -4.273  -2.154 -33.720  1.00  0.00     0.106 C 
HETATM   24  C   UNL     1      -3.791  -2.407 -32.288  1.00  0.00     0.034 C 
BRANCH  23  25
HETATM   25  C   UNL     1      -4.347  -3.480 -34.505  1.00  0.00     0.022 C 
HETATM   26  C   UNL     1      -3.742  -4.652 -33.744  1.00  0.00     0.007 C 
ENDBRANCH  23  25
ENDBRANCH  21  23
BRANCH  22  27
HETATM   27  C   UNL     1      -5.207  -0.276 -31.396  1.00  0.00     0.038 A 
HETATM   28  C   UNL     1      -4.617   1.108 -31.243  1.00  0.00     0.011 A 
HETATM   29  C   UNL     1      -5.722   0.668 -30.340  1.00  0.00     0.011 A 
ENDBRANCH  22  27
ENDBRANCH   1  18
TORSDOF 8
ENDMDL
MODEL 9
REMARK VINA RESULT:      -6.6      3.762      8.384
REMARK  8 active torsions:
REMARK  status: ('A' for Active; 'I' for Inactive)
REMARK    1  A    between atoms: C_2  and  C_3 
REMARK    2  A    between atoms: C_3  and  N_4 
REMARK    3  A    between atoms: C_7  and  C_8 
REMARK       I    between atoms: C_8  and  N_9 
REMARK    4  A    between atoms: N_9  and  C_10 
REMARK    5  A    between atoms: C_13  and  O_14 
REMARK    6  A    between atoms: O_14  and  C_15 
REMARK    7  A    between atoms: C_15  and  C_16 
REMARK       I    between atoms: C_16  and  N_17 
REMARK    8  A    between atoms: C_23  and  C_24 
ROOT
HETATM    1  C   UNL     1      -6.171   1.095 -30.326  1.00  0.00     0.259 C 
HETATM    2  N   UNL     1      -7.526   0.887 -30.468  1.00  0.00    -0.323 N 
HETATM    3  O   UNL     1      -5.648   0.596 -29.328  1.00  0.00    -0.267 OA
HETATM    4  H   UNL     1      -7.871   0.414 -29.641  1.00  0.00     0.169 HD
ENDROOT
BRANCH   2   5
HETATM    5  C   UNL     1      -8.493   1.221 -31.431  1.00  0.00     0.035 A 
HETATM    6  C   UNL     1      -9.115   2.458 -31.568  1.00  0.00     0.032 A 
HETATM    7  C   UNL     1     -10.170   2.623 -32.479  1.00  0.00     0.039 A 
HETATM    8  C   UNL     1     -10.587   1.573 -33.297  1.00  0.00     0.069 A 
HETATM    9  C   UNL     1      -9.880   0.375 -33.256  1.00  0.00     0.039 A 
HETATM   10  C   UNL     1      -8.848   0.203 -32.326  1.00  0.00     0.032 A 
BRANCH   8  11
HETATM   11  O   UNL     1     -11.686   1.837 -34.064  1.00  0.00    -0.342 OA
BRANCH  11  12
HETATM   12  C   UNL     1     -12.606   0.771 -34.287  1.00  0.00     0.278 C 
BRANCH  12  13
HETATM   13  C   UNL     1     -14.035   1.185 -33.935  1.00  0.00     0.241 C 
HETATM   14  N   UNL     1     -14.163   1.751 -32.683  1.00  0.00    -0.364 N 
HETATM   15  C   UNL     1     -15.447   2.019 -32.090  1.00  0.00     0.149 C 
HETATM   16  H   UNL     1     -13.320   1.870 -32.131  1.00  0.00     0.161 HD
HETATM   17  O   UNL     1     -14.989   0.933 -34.666  1.00  0.00    -0.271 OA
ENDBRANCH  12  13
ENDBRANCH  11  12
ENDBRANCH   8  11
ENDBRANCH   2   5
BRANCH   1  18
HETATM   18  C   UNL     1      -5.426   1.925 -31.250  1.00  0.00     0.076 A 
HETATM   19  C   UNL     1      -4.878   1.504 -32.485  1.00  0.00     0.158 A 
HETATM   20  N   UNL     1      -4.172   2.452 -33.096  1.00  0.00    -0.183 NA
HETATM   21  N   UNL     1      -4.340   3.534 -32.310  1.00  0.00    -0.268 N 
HETATM   22  C   UNL     1      -5.135   3.286 -31.206  1.00  0.00     0.052 A 
BRANCH  21  23
HETATM   23  C   UNL     1      -3.642   4.775 -32.645  1.00  0.00     0.106 C 
HETATM   24  C   UNL     1      -2.178   4.465 -32.973  1.00  0.00     0.034 C 
BRANCH  23  25
HETATM   25  C   UNL     1      -4.290   5.584 -33.788  1.00  0.00     0.022 C 
HETATM   26  C   UNL     1      -3.696   5.258 -35.152  1.00  0.00     0.007 C 
ENDBRANCH  23  25
ENDBRANCH  21  23
BRANCH  22  27
HETATM   27  C   UNL     1      -5.530   4.357 -30.183  1.00  0.00     0.038 A 
HETATM   28  C   UNL     1      -6.622   5.340 -30.538  1.00  0.00     0.011 A 
HETATM   29  C   UNL     1      -6.851   4.333 -29.459  1.00  0.00     0.011 A 
ENDBRANCH  22  27
ENDBRANCH   1  18
TORSDOF 8
ENDMDL
MODEL 10
REMARK VINA RESULT:      -6.5      3.769      5.965
REMARK  8 active torsions:
REMARK  status: ('A' for Active; 'I' for Inactive)
REMARK    1  A    between atoms: C_2  and  C_3 
REMARK    2  A    between atoms: C_3  and  N_4 
REMARK    3  A    between atoms: C_7  and  C_8 
REMARK       I    between atoms: C_8  and  N_9 
REMARK    4  A    between atoms: N_9  and  C_10 
REMARK    5  A    between atoms: C_13  and  O_14 
REMARK    6  A    between atoms: O_14  and  C_15 
REMARK    7  A    between atoms: C_15  and  C_16 
REMARK       I    between atoms: C_16  and  N_17 
REMARK    8  A    between atoms: C_23  and  C_24 
ROOT
HETATM    1  C   UNL     1      -3.989   5.424 -34.111  1.00  0.00     0.259 C 
HETATM    2  N   UNL     1      -2.657   5.770 -34.031  1.00  0.00    -0.323 N 
HETATM    3  O   UNL     1      -4.417   5.172 -35.238  1.00  0.00    -0.267 OA
HETATM    4  H   UNL     1      -2.283   5.842 -34.970  1.00  0.00     0.169 HD
ENDROOT
BRANCH   2   5
HETATM    5  C   UNL     1      -1.767   6.087 -32.991  1.00  0.00     0.035 A 
HETATM    6  C   UNL     1      -0.813   5.235 -32.445  1.00  0.00     0.032 A 
HETATM    7  C   UNL     1      -0.082   5.623 -31.312  1.00  0.00     0.039 A 
HETATM    8  C   UNL     1      -0.259   6.882 -30.736  1.00  0.00     0.069 A 
HETATM    9  C   UNL     1      -1.114   7.785 -31.359  1.00  0.00     0.039 A 
HETATM   10  C   UNL     1      -1.865   7.386 -32.472  1.00  0.00     0.032 A 
BRANCH   8  11
HETATM   11  O   UNL     1       0.440   7.095 -29.582  1.00  0.00    -0.342 OA
BRANCH  11  12
HETATM   12  C   UNL     1       0.494   6.028 -28.638  1.00  0.00     0.278 C 
BRANCH  12  13
HETATM   13  C   UNL     1      -0.192   6.408 -27.326  1.00  0.00     0.241 C 
HETATM   14  N   UNL     1      -1.569   6.403 -27.390  1.00  0.00    -0.364 N 
HETATM   15  C   UNL     1      -2.389   6.924 -26.328  1.00  0.00     0.149 C 
HETATM   16  H   UNL     1      -1.999   6.125 -28.266  1.00  0.00     0.161 HD
HETATM   17  O   UNL     1       0.440   6.786 -26.342  1.00  0.00    -0.271 OA
ENDBRANCH  12  13
ENDBRANCH  11  12
ENDBRANCH   8  11
ENDBRANCH   2   5
BRANCH   1  18
HETATM   18  C   UNL     1      -4.851   5.441 -32.947  1.00  0.00     0.076 A 
HETATM   19  C   UNL     1      -5.990   6.263 -32.771  1.00  0.00     0.158 A 
HETATM   20  N   UNL     1      -6.551   6.132 -31.572  1.00  0.00    -0.183 NA
HETATM   21  N   UNL     1      -5.841   5.144 -30.991  1.00  0.00    -0.268 N 
HETATM   22  C   UNL     1      -4.833   4.652 -31.800  1.00  0.00     0.052 A 
BRANCH  21  23
HETATM   23  C   UNL     1      -6.143   4.764 -29.611  1.00  0.00     0.106 C 
HETATM   24  C   UNL     1      -6.036   5.995 -28.707  1.00  0.00     0.034 C 
BRANCH  23  25
HETATM   25  C   UNL     1      -7.511   4.076 -29.423  1.00  0.00     0.022 C 
HETATM   26  C   UNL     1      -7.843   3.104 -30.548  1.00  0.00     0.007 C 
ENDBRANCH  23  25
ENDBRANCH  21  23
BRANCH  22  27
HETATM   27  C   UNL     1      -3.914   3.491 -31.404  1.00  0.00     0.038 A 
HETATM   28  C   UNL     1      -4.443   2.077 -31.494  1.00  0.00     0.011 A 
HETATM   29  C   UNL     1      -3.355   2.523 -32.416  1.00  0.00     0.011 A 
ENDBRANCH  22  27
ENDBRANCH   1  18
TORSDOF 8
ENDMDL
