MODEL 1
REMARK VINA RESULT:      -7.1      0.000      0.000
REMARK  6 active torsions:
REMARK  status: ('A' for Active; 'I' for Inactive)
REMARK    1  A    between atoms: N_2  and  C_4 
REMARK    2  A    between atoms: N_2  and  C_11 
REMARK    3  A    between atoms: C_4  and  C_5 
REMARK    4  A    between atoms: C_5  and  O_6 
REMARK    5  A    between atoms: C_11  and  C_12 
REMARK    6  A    between atoms: C_13  and  C_14 
ROOT
HETATM    1  C   UNL     1      -4.921  -3.018 -34.287  1.00  0.00     0.016 A 
HETATM    2  C   UNL     1      -6.303  -2.711 -34.511  1.00  0.00     0.096 A 
HETATM    3  N   UNL     1      -6.974  -3.803 -34.895  1.00  0.00    -0.174 NA
HETATM    4  N   UNL     1      -6.089  -4.801 -34.840  1.00  0.00    -0.288 N 
HETATM    5  H   UNL     1      -6.410  -5.740 -35.061  1.00  0.00     0.188 HD
HETATM    6  C   UNL     1      -4.836  -4.385 -34.487  1.00  0.00     0.120 A 
ENDROOT
BRANCH   1   7
HETATM    7  C   UNL     1      -3.845  -2.064 -33.906  1.00  0.00     0.277 C 
BRANCH   7   8
HETATM    8  N   UNL     1      -3.644  -1.901 -32.413  1.00  0.00    -0.068 N 
HETATM    9  C   UNL     1      -3.045  -3.143 -31.797  1.00  0.00     0.270 C 
HETATM   10  H   UNL     1      -4.576  -1.789 -32.006  1.00  0.00     0.279 HD
BRANCH   8  11
HETATM   11  C   UNL     1      -2.839  -0.637 -32.114  1.00  0.00     0.272 C 
BRANCH  11  12
HETATM   12  C   UNL     1      -3.690   0.526 -31.552  1.00  0.00     0.082 C 
HETATM   13  C   UNL     1      -4.563   1.151 -32.648  1.00  0.00     0.039 C 
HETATM   14  C   UNL     1      -5.677   1.839 -31.872  1.00  0.00     0.003 C 
HETATM   15  C   UNL     1      -5.981   0.875 -30.734  1.00  0.00     0.003 C 
HETATM   16  C   UNL     1      -4.683   0.105 -30.460  1.00  0.00     0.039 C 
BRANCH  12  17
HETATM   17  O   UNL     1      -2.809   1.527 -31.032  1.00  0.00    -0.388 OA
HETATM   18  H   UNL     1      -3.208   2.408 -31.163  1.00  0.00     0.210 HD
ENDBRANCH  12  17
ENDBRANCH  11  12
ENDBRANCH   8  11
ENDBRANCH   7   8
ENDBRANCH   1   7
BRANCH   2  19
HETATM   19  C   UNL     1      -6.987  -1.425 -34.391  1.00  0.00    -0.003 A 
HETATM   20  C   UNL     1      -7.883  -1.185 -33.342  1.00  0.00     0.037 A 
HETATM   21  C   UNL     1      -8.512   0.057 -33.232  1.00  0.00     0.035 A 
HETATM   22 CL   UNL     1      -9.586   0.343 -31.920  1.00  0.00    -0.084 Cl
HETATM   23  C   UNL     1      -8.272   1.061 -34.167  1.00  0.00     0.024 A 
HETATM   24  C   UNL     1      -7.400   0.820 -35.228  1.00  0.00     0.003 A 
HETATM   25  C   UNL     1      -6.761  -0.418 -35.339  1.00  0.00     0.014 A 
ENDBRANCH   2  19
TORSDOF 6
ENDMDL
MODEL 2
REMARK VINA RESULT:      -6.8     12.970     14.357
REMARK  6 active torsions:
REMARK  status: ('A' for Active; 'I' for Inactive)
REMARK    1  A    between atoms: N_2  and  C_4 
REMARK    2  A    between atoms: N_2  and  C_11 
REMARK    3  A    between atoms: C_4  and  C_5 
REMARK    4  A    between atoms: C_5  and  O_6 
REMARK    5  A    between atoms: C_11  and  C_12 
REMARK    6  A    between atoms: C_13  and  C_14 
ROOT
HETATM    1  C   UNL     1      -5.471 -13.921 -36.002  1.00  0.00     0.016 A 
HETATM    2  C   UNL     1      -6.896 -13.809 -36.107  1.00  0.00     0.096 A 
HETATM    3  N   UNL     1      -7.409 -13.249 -35.006  1.00  0.00    -0.174 NA
HETATM    4  N   UNL     1      -6.358 -12.928 -34.249  1.00  0.00    -0.288 N 
HETATM    5  H   UNL     1      -6.529 -12.449 -33.368  1.00  0.00     0.188 HD
HETATM    6  C   UNL     1      -5.167 -13.315 -34.796  1.00  0.00     0.120 A 
ENDROOT
BRANCH   1   7
HETATM    7  C   UNL     1      -4.549 -14.537 -36.994  1.00  0.00     0.277 C 
BRANCH   7   8
HETATM    8  N   UNL     1      -3.938 -13.563 -37.981  1.00  0.00    -0.068 N 
HETATM    9  C   UNL     1      -2.628 -13.009 -37.471  1.00  0.00     0.270 C 
HETATM   10  H   UNL     1      -4.586 -12.774 -38.047  1.00  0.00     0.279 HD
BRANCH   8  11
HETATM   11  C   UNL     1      -3.820 -14.201 -39.364  1.00  0.00     0.272 C 
BRANCH  11  12
HETATM   12  C   UNL     1      -4.617 -13.460 -40.463  1.00  0.00     0.082 C 
HETATM   13  C   UNL     1      -5.867 -14.252 -40.867  1.00  0.00     0.039 C 
HETATM   14  C   UNL     1      -6.777 -13.200 -41.485  1.00  0.00     0.003 C 
HETATM   15  C   UNL     1      -6.570 -11.976 -40.606  1.00  0.00     0.003 C 
HETATM   16  C   UNL     1      -5.153 -12.088 -40.031  1.00  0.00     0.039 C 
BRANCH  12  17
HETATM   17  O   UNL     1      -3.776 -13.302 -41.610  1.00  0.00    -0.388 OA
HETATM   18  H   UNL     1      -2.931 -12.897 -41.336  1.00  0.00     0.210 HD
ENDBRANCH  12  17
ENDBRANCH  11  12
ENDBRANCH   8  11
ENDBRANCH   7   8
ENDBRANCH   1   7
BRANCH   2  19
HETATM   19  C   UNL     1      -7.770 -14.230 -37.201  1.00  0.00    -0.003 A 
HETATM   20  C   UNL     1      -8.549 -13.298 -37.896  1.00  0.00     0.037 A 
HETATM   21  C   UNL     1      -9.363 -13.716 -38.950  1.00  0.00     0.035 A 
HETATM   22 CL   UNL     1     -10.289 -12.551 -39.813  1.00  0.00    -0.084 Cl
HETATM   23  C   UNL     1      -9.425 -15.060 -39.311  1.00  0.00     0.024 A 
HETATM   24  C   UNL     1      -8.671 -15.997 -38.606  1.00  0.00     0.003 A 
HETATM   25  C   UNL     1      -7.848 -15.584 -37.555  1.00  0.00     0.014 A 
ENDBRANCH   2  19
TORSDOF 6
ENDMDL
MODEL 3
REMARK VINA RESULT:      -6.8      2.849      4.676
REMARK  6 active torsions:
REMARK  status: ('A' for Active; 'I' for Inactive)
REMARK    1  A    between atoms: N_2  and  C_4 
REMARK    2  A    between atoms: N_2  and  C_11 
REMARK    3  A    between atoms: C_4  and  C_5 
REMARK    4  A    between atoms: C_5  and  O_6 
REMARK    5  A    between atoms: C_11  and  C_12 
REMARK    6  A    between atoms: C_13  and  C_14 
ROOT
HETATM    1  C   UNL     1      -4.058   0.470 -31.754  1.00  0.00     0.016 A 
HETATM    2  C   UNL     1      -4.138  -0.695 -32.585  1.00  0.00     0.096 A 
HETATM    3  N   UNL     1      -3.056  -1.466 -32.425  1.00  0.00    -0.174 NA
HETATM    4  N   UNL     1      -2.339  -0.875 -31.466  1.00  0.00    -0.288 N 
HETATM    5  H   UNL     1      -1.481  -1.328 -31.162  1.00  0.00     0.188 HD
HETATM    6  C   UNL     1      -2.890   0.297 -31.031  1.00  0.00     0.120 A 
ENDROOT
BRANCH   1   7
HETATM    7  C   UNL     1      -5.035   1.590 -31.690  1.00  0.00     0.277 C 
BRANCH   7   8
HETATM    8  N   UNL     1      -6.309   1.275 -30.932  1.00  0.00    -0.068 N 
HETATM    9  C   UNL     1      -6.030   0.994 -29.475  1.00  0.00     0.270 C 
HETATM   10  H   UNL     1      -6.679   0.410 -31.335  1.00  0.00     0.279 HD
BRANCH   8  11
HETATM   11  C   UNL     1      -7.345   2.379 -31.141  1.00  0.00     0.272 C 
BRANCH  11  12
HETATM   12  C   UNL     1      -8.758   1.851 -31.484  1.00  0.00     0.082 C 
HETATM   13  C   UNL     1      -9.303   2.517 -32.754  1.00  0.00     0.039 C 
HETATM   14  C   UNL     1     -10.367   1.545 -33.243  1.00  0.00     0.003 C 
HETATM   15  C   UNL     1      -9.762   0.175 -32.974  1.00  0.00     0.003 C 
HETATM   16  C   UNL     1      -8.809   0.346 -31.785  1.00  0.00     0.039 C 
BRANCH  12  17
HETATM   17  O   UNL     1      -9.634   2.146 -30.391  1.00  0.00    -0.388 OA
HETATM   18  H   UNL     1      -9.109   2.468 -29.634  1.00  0.00     0.210 HD
ENDBRANCH  12  17
ENDBRANCH  11  12
ENDBRANCH   8  11
ENDBRANCH   7   8
ENDBRANCH   1   7
BRANCH   2  19
HETATM   19  C   UNL     1      -5.190  -1.080 -33.524  1.00  0.00    -0.003 A 
HETATM   20  C   UNL     1      -5.435  -2.427 -33.814  1.00  0.00     0.037 A 
HETATM   21  C   UNL     1      -6.457  -2.776 -34.699  1.00  0.00     0.035 A 
HETATM   22 CL   UNL     1      -6.763  -4.438 -35.020  1.00  0.00    -0.084 Cl
HETATM   23  C   UNL     1      -7.229  -1.794 -35.315  1.00  0.00     0.024 A 
HETATM   24  C   UNL     1      -6.974  -0.450 -35.050  1.00  0.00     0.003 A 
HETATM   25  C   UNL     1      -5.959  -0.094 -34.159  1.00  0.00     0.014 A 
ENDBRANCH   2  19
TORSDOF 6
ENDMDL
MODEL 4
REMARK VINA RESULT:      -6.8      3.797      5.432
REMARK  6 active torsions:
REMARK  status: ('A' for Active; 'I' for Inactive)
REMARK    1  A    between atoms: N_2  and  C_4 
REMARK    2  A    between atoms: N_2  and  C_11 
REMARK    3  A    between atoms: C_4  and  C_5 
REMARK    4  A    between atoms: C_5  and  O_6 
REMARK    5  A    between atoms: C_11  and  C_12 
REMARK    6  A    between atoms: C_13  and  C_14 
ROOT
HETATM    1  C   UNL     1      -4.883   1.359 -31.244  1.00  0.00     0.016 A 
HETATM    2  C   UNL     1      -5.763   0.252 -31.478  1.00  0.00     0.096 A 
HETATM    3  N   UNL     1      -6.549   0.040 -30.417  1.00  0.00    -0.174 NA
HETATM    4  N   UNL     1      -6.259   1.020 -29.559  1.00  0.00    -0.288 N 
HETATM    5  H   UNL     1      -6.781   1.065 -28.688  1.00  0.00     0.188 HD
HETATM    6  C   UNL     1      -5.259   1.839 -30.001  1.00  0.00     0.120 A 
ENDROOT
BRANCH   1   7
HETATM    7  C   UNL     1      -3.826   1.869 -32.159  1.00  0.00     0.277 C 
BRANCH   7   8
HETATM    8  N   UNL     1      -4.113   3.229 -32.761  1.00  0.00    -0.068 N 
HETATM    9  C   UNL     1      -5.586   3.410 -33.042  1.00  0.00     0.270 C 
HETATM   10  H   UNL     1      -3.635   3.252 -33.666  1.00  0.00     0.279 HD
BRANCH   8  11
HETATM   11  C   UNL     1      -3.530   4.338 -31.886  1.00  0.00     0.272 C 
BRANCH  11  12
HETATM   12  C   UNL     1      -2.270   5.007 -32.484  1.00  0.00     0.082 C 
HETATM   13  C   UNL     1      -2.127   4.680 -33.976  1.00  0.00     0.039 C 
HETATM   14  C   UNL     1      -1.236   5.795 -34.506  1.00  0.00     0.003 C 
HETATM   15  C   UNL     1      -1.717   7.032 -33.762  1.00  0.00     0.003 C 
HETATM   16  C   UNL     1      -2.287   6.541 -32.425  1.00  0.00     0.039 C 
BRANCH  12  17
HETATM   17  O   UNL     1      -1.119   4.518 -31.788  1.00  0.00    -0.388 OA
HETATM   18  H   UNL     1      -0.997   3.572 -31.991  1.00  0.00     0.210 HD
ENDBRANCH  12  17
ENDBRANCH  11  12
ENDBRANCH   8  11
ENDBRANCH   7   8
ENDBRANCH   1   7
BRANCH   2  19
HETATM   19  C   UNL     1      -5.860  -0.607 -32.657  1.00  0.00    -0.003 A 
HETATM   20  C   UNL     1      -4.924  -1.623 -32.883  1.00  0.00     0.037 A 
HETATM   21  C   UNL     1      -5.045  -2.446 -34.004  1.00  0.00     0.035 A 
HETATM   22 CL   UNL     1      -3.902  -3.708 -34.250  1.00  0.00    -0.084 Cl
HETATM   23  C   UNL     1      -6.080  -2.258 -34.916  1.00  0.00     0.024 A 
HETATM   24  C   UNL     1      -7.002  -1.232 -34.710  1.00  0.00     0.003 A 
HETATM   25  C   UNL     1      -6.891  -0.410 -33.586  1.00  0.00     0.014 A 
ENDBRANCH   2  19
TORSDOF 6
ENDMDL
MODEL 5
REMARK VINA RESULT:      -6.7      3.307      5.491
REMARK  6 active torsions:
REMARK  status: ('A' for Active; 'I' for Inactive)
REMARK    1  A    between atoms: N_2  and  C_4 
REMARK    2  A    between atoms: N_2  and  C_11 
REMARK    3  A    between atoms: C_4  and  C_5 
REMARK    4  A    between atoms: C_5  and  O_6 
REMARK    5  A    between atoms: C_11  and  C_12 
REMARK    6  A    between atoms: C_13  and  C_14 
ROOT
HETATM    1  C   UNL     1      -4.985   2.362 -31.944  1.00  0.00     0.016 A 
HETATM    2  C   UNL     1      -4.872   1.063 -32.540  1.00  0.00     0.096 A 
HETATM    3  N   UNL     1      -3.757   0.449 -32.128  1.00  0.00    -0.174 NA
HETATM    4  N   UNL     1      -3.208   1.274 -31.233  1.00  0.00    -0.288 N 
HETATM    5  H   UNL     1      -2.358   0.975 -30.762  1.00  0.00     0.188 HD
HETATM    6  C   UNL     1      -3.901   2.443 -31.088  1.00  0.00     0.120 A 
ENDROOT
BRANCH   1   7
HETATM    7  C   UNL     1      -6.052   3.368 -32.194  1.00  0.00     0.277 C 
BRANCH   7   8
HETATM    8  N   UNL     1      -7.283   3.215 -31.324  1.00  0.00    -0.068 N 
HETATM    9  C   UNL     1      -7.154   3.999 -30.039  1.00  0.00     0.270 C 
HETATM   10  H   UNL     1      -7.332   2.226 -31.063  1.00  0.00     0.279 HD
BRANCH   8  11
HETATM   11  C   UNL     1      -8.546   3.562 -32.112  1.00  0.00     0.272 C 
BRANCH  11  12
HETATM   12  C   UNL     1      -9.606   2.436 -32.120  1.00  0.00     0.082 C 
HETATM   13  C   UNL     1     -10.126   2.177 -33.540  1.00  0.00     0.039 C 
HETATM   14  C   UNL     1     -10.685   0.763 -33.467  1.00  0.00     0.003 C 
HETATM   15  C   UNL     1      -9.694   0.023 -32.580  1.00  0.00     0.003 C 
HETATM   16  C   UNL     1      -9.077   1.073 -31.649  1.00  0.00     0.039 C 
BRANCH  12  17
HETATM   17  O   UNL     1     -10.701   2.832 -31.288  1.00  0.00    -0.388 OA
HETATM   18  H   UNL     1     -11.156   2.037 -30.954  1.00  0.00     0.210 HD
ENDBRANCH  12  17
ENDBRANCH  11  12
ENDBRANCH   8  11
ENDBRANCH   7   8
ENDBRANCH   1   7
BRANCH   2  19
HETATM   19  C   UNL     1      -5.770   0.409 -33.489  1.00  0.00    -0.003 A 
HETATM   20  C   UNL     1      -5.898  -0.985 -33.513  1.00  0.00     0.037 A 
HETATM   21  C   UNL     1      -6.776  -1.590 -34.413  1.00  0.00     0.035 A 
HETATM   22 CL   UNL     1      -6.942  -3.302 -34.406  1.00  0.00    -0.084 Cl
HETATM   23  C   UNL     1      -7.518  -0.823 -35.307  1.00  0.00     0.024 A 
HETATM   24  C   UNL     1      -7.377   0.564 -35.306  1.00  0.00     0.003 A 
HETATM   25  C   UNL     1      -6.507   1.177 -34.402  1.00  0.00     0.014 A 
ENDBRANCH   2  19
TORSDOF 6
ENDMDL
MODEL 6
REMARK VINA RESULT:      -6.6      3.038      4.801
REMARK  6 active torsions:
REMARK  status: ('A' for Active; 'I' for Inactive)
REMARK    1  A    between atoms: N_2  and  C_4 
REMARK    2  A    between atoms: N_2  and  C_11 
REMARK    3  A    between atoms: C_4  and  C_5 
REMARK    4  A    between atoms: C_5  and  O_6 
REMARK    5  A    between atoms: C_11  and  C_12 
REMARK    6  A    between atoms: C_13  and  C_14 
ROOT
HETATM    1  C   UNL     1      -8.005   1.040 -32.933  1.00  0.00     0.016 A 
HETATM    2  C   UNL     1      -7.619   0.198 -34.027  1.00  0.00     0.096 A 
HETATM    3  N   UNL     1      -8.384   0.434 -35.098  1.00  0.00    -0.174 NA
HETATM    4  N   UNL     1      -9.179   1.448 -34.750  1.00  0.00    -0.288 N 
HETATM    5  H   UNL     1      -9.824   1.814 -35.447  1.00  0.00     0.188 HD
HETATM    6  C   UNL     1      -8.999   1.848 -33.456  1.00  0.00     0.120 A 
ENDROOT
BRANCH   1   7
HETATM    7  C   UNL     1      -7.433   1.038 -31.560  1.00  0.00     0.277 C 
BRANCH   7   8
HETATM    8  N   UNL     1      -6.876   2.372 -31.104  1.00  0.00    -0.068 N 
HETATM    9  C   UNL     1      -7.735   2.991 -30.027  1.00  0.00     0.270 C 
HETATM   10  H   UNL     1      -6.921   2.996 -31.914  1.00  0.00     0.279 HD
BRANCH   8  11
HETATM   11  C   UNL     1      -5.411   2.230 -30.693  1.00  0.00     0.272 C 
BRANCH  11  12
HETATM   12  C   UNL     1      -4.509   3.385 -31.189  1.00  0.00     0.082 C 
HETATM   13  C   UNL     1      -3.105   2.877 -31.541  1.00  0.00     0.039 C 
HETATM   14  C   UNL     1      -2.563   3.939 -32.486  1.00  0.00     0.003 C 
HETATM   15  C   UNL     1      -3.766   4.319 -33.337  1.00  0.00     0.003 C 
HETATM   16  C   UNL     1      -5.007   4.061 -32.474  1.00  0.00     0.039 C 
BRANCH  12  17
HETATM   17  O   UNL     1      -4.404   4.362 -30.148  1.00  0.00    -0.388 OA
HETATM   18  H   UNL     1      -3.978   5.165 -30.503  1.00  0.00     0.210 HD
ENDBRANCH  12  17
ENDBRANCH  11  12
ENDBRANCH   8  11
ENDBRANCH   7   8
ENDBRANCH   1   7
BRANCH   2  19
HETATM   19  C   UNL     1      -6.573  -0.821 -34.073  1.00  0.00    -0.003 A 
HETATM   20  C   UNL     1      -6.854  -2.118 -34.519  1.00  0.00     0.037 A 
HETATM   21  C   UNL     1      -5.837  -3.073 -34.574  1.00  0.00     0.035 A 
HETATM   22 CL   UNL     1      -6.195  -4.652 -35.154  1.00  0.00    -0.084 Cl
HETATM   23  C   UNL     1      -4.542  -2.756 -34.173  1.00  0.00     0.024 A 
HETATM   24  C   UNL     1      -4.260  -1.474 -33.705  1.00  0.00     0.003 A 
HETATM   25  C   UNL     1      -5.271  -0.511 -33.654  1.00  0.00     0.014 A 
ENDBRANCH   2  19
TORSDOF 6
ENDMDL
MODEL 7
REMARK VINA RESULT:      -6.6      3.320      5.725
REMARK  6 active torsions:
REMARK  status: ('A' for Active; 'I' for Inactive)
REMARK    1  A    between atoms: N_2  and  C_4 
REMARK    2  A    between atoms: N_2  and  C_11 
REMARK    3  A    between atoms: C_4  and  C_5 
REMARK    4  A    between atoms: C_5  and  O_6 
REMARK    5  A    between atoms: C_11  and  C_12 
REMARK    6  A    between atoms: C_13  and  C_14 
ROOT
HETATM    1  C   UNL     1      -5.386   0.681 -31.490  1.00  0.00     0.016 A 
HETATM    2  C   UNL     1      -4.567   0.038 -32.474  1.00  0.00     0.096 A 
HETATM    3  N   UNL     1      -3.411   0.693 -32.630  1.00  0.00    -0.174 NA
HETATM    4  N   UNL     1      -3.435   1.674 -31.724  1.00  0.00    -0.288 N 
HETATM    5  H   UNL     1      -2.620   2.278 -31.649  1.00  0.00     0.188 HD
HETATM    6  C   UNL     1      -4.602   1.718 -31.015  1.00  0.00     0.120 A 
ENDROOT
BRANCH   1   7
HETATM    7  C   UNL     1      -6.761   0.288 -31.078  1.00  0.00     0.277 C 
BRANCH   7   8
HETATM    8  N   UNL     1      -7.848   1.260 -31.492  1.00  0.00    -0.068 N 
HETATM    9  C   UNL     1      -7.836   2.502 -30.632  1.00  0.00     0.270 C 
HETATM   10  H   UNL     1      -8.739   0.788 -31.318  1.00  0.00     0.279 HD
BRANCH   8  11
HETATM   11  C   UNL     1      -7.754   1.565 -32.986  1.00  0.00     0.272 C 
BRANCH  11  12
HETATM   12  C   UNL     1      -9.072   1.318 -33.757  1.00  0.00     0.082 C 
HETATM   13  C   UNL     1      -9.961   0.308 -33.020  1.00  0.00     0.039 C 
HETATM   14  C   UNL     1     -11.355   0.592 -33.562  1.00  0.00     0.003 C 
HETATM   15  C   UNL     1     -11.398   2.108 -33.685  1.00  0.00     0.003 C 
HETATM   16  C   UNL     1      -9.952   2.567 -33.911  1.00  0.00     0.039 C 
BRANCH  12  17
HETATM   17  O   UNL     1      -8.753   0.800 -35.052  1.00  0.00    -0.388 OA
HETATM   18  H   UNL     1      -9.289   0.002 -35.221  1.00  0.00     0.210 HD
ENDBRANCH  12  17
ENDBRANCH  11  12
ENDBRANCH   8  11
ENDBRANCH   7   8
ENDBRANCH   1   7
BRANCH   2  19
HETATM   19  C   UNL     1      -4.856  -1.153 -33.270  1.00  0.00    -0.003 A 
HETATM   20  C   UNL     1      -4.033  -2.283 -33.196  1.00  0.00     0.037 A 
HETATM   21  C   UNL     1      -4.337  -3.419 -33.949  1.00  0.00     0.035 A 
HETATM   22 CL   UNL     1      -3.331  -4.808 -33.822  1.00  0.00    -0.084 Cl
HETATM   23  C   UNL     1      -5.445  -3.437 -34.793  1.00  0.00     0.024 A 
HETATM   24  C   UNL     1      -6.254  -2.306 -34.890  1.00  0.00     0.003 A 
HETATM   25  C   UNL     1      -5.961  -1.170 -34.133  1.00  0.00     0.014 A 
ENDBRANCH   2  19
TORSDOF 6
ENDMDL
MODEL 8
REMARK VINA RESULT:      -6.6      2.973      5.834
REMARK  6 active torsions:
REMARK  status: ('A' for Active; 'I' for Inactive)
REMARK    1  A    between atoms: N_2  and  C_4 
REMARK    2  A    between atoms: N_2  and  C_11 
REMARK    3  A    between atoms: C_4  and  C_5 
REMARK    4  A    between atoms: C_5  and  O_6 
REMARK    5  A    between atoms: C_11  and  C_12 
REMARK    6  A    between atoms: C_13  and  C_14 
ROOT
HETATM    1  C   UNL     1      -5.366   0.029 -32.657  1.00  0.00     0.016 A 
HETATM    2  C   UNL     1      -4.302  -0.867 -33.004  1.00  0.00     0.096 A 
HETATM    3  N   UNL     1      -3.121  -0.241 -32.957  1.00  0.00    -0.174 NA
HETATM    4  N   UNL     1      -3.390   0.989 -32.513  1.00  0.00    -0.288 N 
HETATM    5  H   UNL     1      -2.611   1.627 -32.367  1.00  0.00     0.188 HD
HETATM    6  C   UNL     1      -4.725   1.209 -32.322  1.00  0.00     0.120 A 
ENDROOT
BRANCH   1   7
HETATM    7  C   UNL     1      -6.822  -0.275 -32.647  1.00  0.00     0.277 C 
BRANCH   7   8
HETATM    8  N   UNL     1      -7.640   0.516 -33.648  1.00  0.00    -0.068 N 
HETATM    9  C   UNL     1      -7.007   0.495 -35.019  1.00  0.00     0.270 C 
HETATM   10  H   UNL     1      -7.624   1.488 -33.330  1.00  0.00     0.279 HD
BRANCH   8  11
HETATM   11  C   UNL     1      -9.092   0.039 -33.651  1.00  0.00     0.272 C 
BRANCH  11  12
HETATM   12  C   UNL     1     -10.115   1.152 -33.323  1.00  0.00     0.082 C 
HETATM   13  C   UNL     1      -9.902   2.379 -34.219  1.00  0.00     0.039 C 
HETATM   14  C   UNL     1     -11.245   3.094 -34.175  1.00  0.00     0.003 C 
HETATM   15  C   UNL     1     -12.263   1.964 -34.197  1.00  0.00     0.003 C 
HETATM   16  C   UNL     1     -11.577   0.749 -33.560  1.00  0.00     0.039 C 
BRANCH  12  17
HETATM   17  O   UNL     1      -9.945   1.539 -31.956  1.00  0.00    -0.388 OA
HETATM   18  H   UNL     1      -9.573   2.441 -31.920  1.00  0.00     0.210 HD
ENDBRANCH  12  17
ENDBRANCH  11  12
ENDBRANCH   8  11
ENDBRANCH   7   8
ENDBRANCH   1   7
BRANCH   2  19
HETATM   19  C   UNL     1      -4.380  -2.275 -33.391  1.00  0.00    -0.003 A 
HETATM   20  C   UNL     1      -5.360  -2.719 -34.287  1.00  0.00     0.037 A 
HETATM   21  C   UNL     1      -5.407  -4.063 -34.660  1.00  0.00     0.035 A 
HETATM   22 CL   UNL     1      -6.599  -4.584 -35.785  1.00  0.00    -0.084 Cl
HETATM   23  C   UNL     1      -4.496  -4.978 -34.137  1.00  0.00     0.024 A 
HETATM   24  C   UNL     1      -3.534  -4.547 -33.226  1.00  0.00     0.003 A 
HETATM   25  C   UNL     1      -3.476  -3.202 -32.854  1.00  0.00     0.014 A 
ENDBRANCH   2  19
TORSDOF 6
ENDMDL
MODEL 9
REMARK VINA RESULT:      -6.5      3.951      6.531
REMARK  6 active torsions:
REMARK  status: ('A' for Active; 'I' for Inactive)
REMARK    1  A    between atoms: N_2  and  C_4 
REMARK    2  A    between atoms: N_2  and  C_11 
REMARK    3  A    between atoms: C_4  and  C_5 
REMARK    4  A    between atoms: C_5  and  O_6 
REMARK    5  A    between atoms: C_11  and  C_12 
REMARK    6  A    between atoms: C_13  and  C_14 
ROOT
HETATM    1  C   UNL     1      -6.881   0.601 -33.884  1.00  0.00     0.016 A 
HETATM    2  C   UNL     1      -5.821  -0.346 -33.702  1.00  0.00     0.096 A 
HETATM    3  N   UNL     1      -4.758   0.237 -33.137  1.00  0.00    -0.174 NA
HETATM    4  N   UNL     1      -5.135   1.491 -32.880  1.00  0.00    -0.288 N 
HETATM    5  H   UNL     1      -4.475   2.104 -32.408  1.00  0.00     0.188 HD
HETATM    6  C   UNL     1      -6.401   1.767 -33.314  1.00  0.00     0.120 A 
ENDROOT
BRANCH   1   7
HETATM    7  C   UNL     1      -8.200   0.353 -34.527  1.00  0.00     0.277 C 
BRANCH   7   8
HETATM    8  N   UNL     1      -9.391   0.489 -33.601  1.00  0.00    -0.068 N 
HETATM    9  C   UNL     1      -8.988   0.326 -32.154  1.00  0.00     0.270 C 
HETATM   10  H   UNL     1     -10.020  -0.288 -33.822  1.00  0.00     0.279 HD
BRANCH   8  11
HETATM   11  C   UNL     1     -10.135   1.796 -33.871  1.00  0.00     0.272 C 
BRANCH  11  12
HETATM   12  C   UNL     1     -11.623   1.601 -34.245  1.00  0.00     0.082 C 
HETATM   13  C   UNL     1     -12.163   0.277 -33.688  1.00  0.00     0.039 C 
HETATM   14  C   UNL     1     -13.669   0.491 -33.646  1.00  0.00     0.003 C 
HETATM   15  C   UNL     1     -13.821   1.937 -33.199  1.00  0.00     0.003 C 
HETATM   16  C   UNL     1     -12.560   2.672 -33.669  1.00  0.00     0.039 C 
BRANCH  12  17
HETATM   17  O   UNL     1     -11.738   1.587 -35.671  1.00  0.00    -0.388 OA
HETATM   18  H   UNL     1     -12.673   1.719 -35.920  1.00  0.00     0.210 HD
ENDBRANCH  12  17
ENDBRANCH  11  12
ENDBRANCH   8  11
ENDBRANCH   7   8
ENDBRANCH   1   7
BRANCH   2  19
HETATM   19  C   UNL     1      -5.786  -1.762 -34.062  1.00  0.00    -0.003 A 
HETATM   20  C   UNL     1      -4.619  -2.516 -33.895  1.00  0.00     0.037 A 
HETATM   21  C   UNL     1      -4.610  -3.872 -34.226  1.00  0.00     0.035 A 
HETATM   22 CL   UNL     1      -3.175  -4.789 -33.986  1.00  0.00    -0.084 Cl
HETATM   23  C   UNL     1      -5.750  -4.486 -34.740  1.00  0.00     0.024 A 
HETATM   24  C   UNL     1      -6.909  -3.735 -34.932  1.00  0.00     0.003 A 
HETATM   25  C   UNL     1      -6.927  -2.380 -34.596  1.00  0.00     0.014 A 
ENDBRANCH   2  19
TORSDOF 6
ENDMDL
MODEL 10
REMARK VINA RESULT:      -6.5      3.655      6.215
REMARK  6 active torsions:
REMARK  status: ('A' for Active; 'I' for Inactive)
REMARK    1  A    between atoms: N_2  and  C_4 
REMARK    2  A    between atoms: N_2  and  C_11 
REMARK    3  A    between atoms: C_4  and  C_5 
REMARK    4  A    between atoms: C_5  and  O_6 
REMARK    5  A    between atoms: C_11  and  C_12 
REMARK    6  A    between atoms: C_13  and  C_14 
ROOT
HETATM    1  C   UNL     1      -6.576   1.951 -31.563  1.00  0.00     0.016 A 
HETATM    2  C   UNL     1      -6.386   0.531 -31.518  1.00  0.00     0.096 A 
HETATM    3  N   UNL     1      -6.286   0.107 -30.253  1.00  0.00    -0.174 NA
HETATM    4  N   UNL     1      -6.490   1.190 -29.499  1.00  0.00    -0.288 N 
HETATM    5  H   UNL     1      -6.493   1.077 -28.488  1.00  0.00     0.188 HD
HETATM    6  C   UNL     1      -6.663   2.328 -30.234  1.00  0.00     0.120 A 
ENDROOT
BRANCH   1   7
HETATM    7  C   UNL     1      -6.675   2.800 -32.781  1.00  0.00     0.277 C 
BRANCH   7   8
HETATM    8  N   UNL     1      -8.008   3.498 -32.959  1.00  0.00    -0.068 N 
HETATM    9  C   UNL     1      -7.829   4.918 -33.443  1.00  0.00     0.270 C 
HETATM   10  H   UNL     1      -8.432   3.554 -32.029  1.00  0.00     0.279 HD
BRANCH   8  11
HETATM   11  C   UNL     1      -8.932   2.673 -33.854  1.00  0.00     0.272 C 
BRANCH  11  12
HETATM   12  C   UNL     1     -10.253   2.254 -33.169  1.00  0.00     0.082 C 
HETATM   13  C   UNL     1     -11.415   3.152 -33.615  1.00  0.00     0.039 C 
HETATM   14  C   UNL     1     -12.651   2.312 -33.326  1.00  0.00     0.003 C 
HETATM   15  C   UNL     1     -12.232   0.900 -33.708  1.00  0.00     0.003 C 
HETATM   16  C   UNL     1     -10.713   0.830 -33.512  1.00  0.00     0.039 C 
BRANCH  12  17
HETATM   17  O   UNL     1     -10.092   2.372 -31.752  1.00  0.00    -0.388 OA
HETATM   18  H   UNL     1     -10.839   2.880 -31.383  1.00  0.00     0.210 HD
ENDBRANCH  12  17
ENDBRANCH  11  12
ENDBRANCH   8  11
ENDBRANCH   7   8
ENDBRANCH   1   7
BRANCH   2  19
HETATM   19  C   UNL     1      -6.279  -0.415 -32.627  1.00  0.00    -0.003 A 
HETATM   20  C   UNL     1      -5.185  -1.282 -32.727  1.00  0.00     0.037 A 
HETATM   21  C   UNL     1      -5.110  -2.192 -33.783  1.00  0.00     0.035 A 
HETATM   22 CL   UNL     1      -3.773  -3.271 -33.872  1.00  0.00    -0.084 Cl
HETATM   23  C   UNL     1      -6.107  -2.237 -34.755  1.00  0.00     0.024 A 
HETATM   24  C   UNL     1      -7.186  -1.359 -34.675  1.00  0.00     0.003 A 
HETATM   25  C   UNL     1      -7.272  -0.451 -33.617  1.00  0.00     0.014 A 
ENDBRANCH   2  19
TORSDOF 6
ENDMDL
