MODEL 1
REMARK VINA RESULT:     -10.1      0.000      0.000
REMARK  8 active torsions:
REMARK  status: ('A' for Active; 'I' for Inactive)
REMARK    1  A    between atoms: C_4  and  C_5 
REMARK    2  A    between atoms: C_5  and  N_6 
REMARK       I    between atoms: N_6  and  C_7 
REMARK    3  A    between atoms: C_7  and  C_8 
REMARK    4  A    between atoms: C_9  and  N_10 
REMARK       I    between atoms: N_10  and  C_11 
REMARK    5  A    between atoms: C_11  and  C_12 
REMARK    6  A    between atoms: C_12  and  C_13 
REMARK    7  A    between atoms: C_13  and  C_14 
REMARK    8  A    between atoms: C_14  and  N_15 
ROOT
HETATM    1  C   UNL     1      -8.914   2.553 -33.220  1.00  0.00     0.073 A 
HETATM    2  C   UNL     1      -8.562   1.338 -32.644  1.00  0.00     0.093 A 
HETATM    3  S   UNL     1      -9.827   0.176 -32.715  1.00  0.00    -0.075 SA
HETATM    4  C   UNL     1     -10.841   1.211 -33.573  1.00  0.00    -0.008 A 
HETATM    5  C   UNL     1     -10.287   2.463 -33.740  1.00  0.00    -0.026 A 
HETATM    6  C   UNL     1     -11.059   3.563 -34.431  1.00  0.00     0.041 C 
HETATM    7  C   UNL     1     -12.554   3.232 -34.570  1.00  0.00     0.005 C 
HETATM    8  C   UNL     1     -12.777   1.789 -35.030  1.00  0.00     0.005 C 
HETATM    9  C   UNL     1     -12.207   0.789 -34.017  1.00  0.00     0.047 C 
ENDROOT
BRANCH   2  10
HETATM   10  N   UNL     1      -7.521   0.749 -31.959  1.00  0.00    -0.320 N 
HETATM   11  C   UNL     1      -6.622   1.325 -31.095  1.00  0.00     0.222 C 
HETATM   12  O   UNL     1      -6.509   2.518 -30.853  1.00  0.00    -0.273 OA
HETATM   13  H   UNL     1      -7.270  -0.161 -32.330  1.00  0.00     0.169 HD
BRANCH  11  14
HETATM   14  C   UNL     1      -5.664   0.282 -30.534  1.00  0.00     0.105 C 
BRANCH  14  15
HETATM   15  C   UNL     1      -4.192   0.555 -30.826  1.00  0.00     0.029 C 
BRANCH  15  16
HETATM   16  C   UNL     1      -3.868   0.476 -32.319  1.00  0.00     0.136 C 
BRANCH  16  17
HETATM   17  N   UNL     1      -4.210  -0.826 -32.861  1.00  0.00    -0.280 N 
HETATM   18  C   UNL     1      -5.179  -1.023 -33.808  1.00  0.00     0.261 A 
HETATM   19  O   UNL     1      -5.915  -0.212 -34.337  1.00  0.00    -0.267 OA
HETATM   20  C   UNL     1      -5.167  -2.450 -34.123  1.00  0.00     0.048 A 
HETATM   21  C   UNL     1      -4.163  -3.035 -33.373  1.00  0.00     0.048 A 
HETATM   22  C   UNL     1      -5.950  -3.184 -34.993  1.00  0.00     0.018 A 
HETATM   23  C   UNL     1      -3.534  -1.981 -32.579  1.00  0.00     0.261 A 
HETATM   24  C   UNL     1      -3.883  -4.385 -33.449  1.00  0.00     0.018 A 
HETATM   25  O   UNL     1      -2.583  -2.162 -31.843  1.00  0.00    -0.267 OA
HETATM   26  C   UNL     1      -4.664  -5.150 -34.322  1.00  0.00     0.001 A 
HETATM   27  C   UNL     1      -5.688  -4.555 -35.087  1.00  0.00     0.001 A 
ENDBRANCH  16  17
ENDBRANCH  15  16
ENDBRANCH  14  15
ENDBRANCH  11  14
ENDBRANCH   2  10
BRANCH   1  28
HETATM   28  C   UNL     1      -8.191   3.834 -33.274  1.00  0.00     0.255 C 
HETATM   29  N   UNL     1      -6.929   3.821 -33.795  1.00  0.00    -0.353 N 
HETATM   30  H   UNL     1      -6.425   2.940 -33.840  1.00  0.00     0.163 HD
HETATM   31  O   UNL     1      -8.751   4.888 -32.976  1.00  0.00    -0.268 OA
BRANCH  29  32
HETATM   32  C   UNL     1      -6.188   5.027 -34.067  1.00  0.00     0.161 C 
BRANCH  32  33
HETATM   33  C   UNL     1      -4.697   4.849 -33.955  1.00  0.00    -0.041 A 
HETATM   34  C   UNL     1      -3.844   5.288 -34.975  1.00  0.00     0.009 A 
HETATM   35  C   UNL     1      -2.460   5.140 -34.855  1.00  0.00     0.001 A 
HETATM   36  C   UNL     1      -1.915   4.544 -33.719  1.00  0.00     0.000 A 
HETATM   37  C   UNL     1      -2.754   4.093 -32.702  1.00  0.00     0.001 A 
HETATM   38  C   UNL     1      -4.136   4.244 -32.821  1.00  0.00     0.009 A 
ENDBRANCH  32  33
ENDBRANCH  29  32
ENDBRANCH   1  28
TORSDOF 8
ENDMDL
MODEL 2
REMARK VINA RESULT:      -9.7      2.543      6.921
REMARK  8 active torsions:
REMARK  status: ('A' for Active; 'I' for Inactive)
REMARK    1  A    between atoms: C_4  and  C_5 
REMARK    2  A    between atoms: C_5  and  N_6 
REMARK       I    between atoms: N_6  and  C_7 
REMARK    3  A    between atoms: C_7  and  C_8 
REMARK    4  A    between atoms: C_9  and  N_10 
REMARK       I    between atoms: N_10  and  C_11 
REMARK    5  A    between atoms: C_11  and  C_12 
REMARK    6  A    between atoms: C_12  and  C_13 
REMARK    7  A    between atoms: C_13  and  C_14 
REMARK    8  A    between atoms: C_14  and  N_15 
ROOT
HETATM    1  C   UNL     1      -8.636   2.103 -33.268  1.00  0.00     0.073 A 
HETATM    2  C   UNL     1      -8.293   3.368 -33.731  1.00  0.00     0.093 A 
HETATM    3  S   UNL     1      -9.624   4.208 -34.421  1.00  0.00    -0.075 SA
HETATM    4  C   UNL     1     -10.702   2.966 -34.057  1.00  0.00    -0.008 A 
HETATM    5  C   UNL     1     -10.070   1.874 -33.500  1.00  0.00    -0.026 A 
HETATM    6  C   UNL     1     -10.847   0.625 -33.155  1.00  0.00     0.041 C 
HETATM    7  C   UNL     1     -12.241   0.604 -33.804  1.00  0.00     0.005 C 
HETATM    8  C   UNL     1     -12.948   1.956 -33.679  1.00  0.00     0.005 C 
HETATM    9  C   UNL     1     -12.158   3.062 -34.389  1.00  0.00     0.047 C 
ENDROOT
BRANCH   2  10
HETATM   10  N   UNL     1      -7.190   4.181 -33.881  1.00  0.00    -0.320 N 
HETATM   11  C   UNL     1      -6.599   5.010 -32.959  1.00  0.00     0.222 C 
HETATM   12  O   UNL     1      -7.018   5.268 -31.840  1.00  0.00    -0.273 OA
HETATM   13  H   UNL     1      -6.948   4.343 -34.852  1.00  0.00     0.169 HD
BRANCH  11  14
HETATM   14  C   UNL     1      -5.371   5.691 -33.550  1.00  0.00     0.105 C 
BRANCH  14  15
HETATM   15  C   UNL     1      -4.597   4.839 -34.551  1.00  0.00     0.029 C 
BRANCH  15  16
HETATM   16  C   UNL     1      -3.276   5.486 -34.970  1.00  0.00     0.136 C 
BRANCH  16  17
HETATM   17  N   UNL     1      -2.378   5.625 -33.839  1.00  0.00    -0.280 N 
HETATM   18  C   UNL     1      -1.767   6.802 -33.496  1.00  0.00     0.261 A 
HETATM   19  O   UNL     1      -1.829   7.889 -34.039  1.00  0.00    -0.267 OA
HETATM   20  C   UNL     1      -1.006   6.533 -32.277  1.00  0.00     0.048 A 
HETATM   21  C   UNL     1      -1.228   5.213 -31.929  1.00  0.00     0.048 A 
HETATM   22  C   UNL     1      -0.196   7.361 -31.524  1.00  0.00     0.018 A 
HETATM   23  C   UNL     1      -2.130   4.639 -32.925  1.00  0.00     0.261 A 
HETATM   24  C   UNL     1      -0.653   4.645 -30.809  1.00  0.00     0.018 A 
HETATM   25  O   UNL     1      -2.556   3.501 -32.878  1.00  0.00    -0.267 OA
HETATM   26  C   UNL     1       0.173   5.463 -30.031  1.00  0.00     0.001 A 
HETATM   27  C   UNL     1       0.399   6.809 -30.385  1.00  0.00     0.001 A 
ENDBRANCH  16  17
ENDBRANCH  15  16
ENDBRANCH  14  15
ENDBRANCH  11  14
ENDBRANCH   2  10
BRANCH   1  28
HETATM   28  C   UNL     1      -7.799   1.022 -32.722  1.00  0.00     0.255 C 
HETATM   29  N   UNL     1      -6.704   0.649 -33.446  1.00  0.00    -0.353 N 
HETATM   30  H   UNL     1      -6.664   0.885 -34.434  1.00  0.00     0.163 HD
HETATM   31  O   UNL     1      -8.012   0.565 -31.599  1.00  0.00    -0.268 OA
BRANCH  29  32
HETATM   32  C   UNL     1      -5.711  -0.265 -32.939  1.00  0.00     0.161 C 
BRANCH  32  33
HETATM   33  C   UNL     1      -5.694  -1.587 -33.660  1.00  0.00    -0.041 A 
HETATM   34  C   UNL     1      -4.493  -2.279 -33.861  1.00  0.00     0.009 A 
HETATM   35  C   UNL     1      -4.487  -3.516 -34.510  1.00  0.00     0.001 A 
HETATM   36  C   UNL     1      -5.679  -4.069 -34.975  1.00  0.00     0.000 A 
HETATM   37  C   UNL     1      -6.878  -3.385 -34.792  1.00  0.00     0.001 A 
HETATM   38  C   UNL     1      -6.885  -2.151 -34.140  1.00  0.00     0.009 A 
ENDBRANCH  32  33
ENDBRANCH  29  32
ENDBRANCH   1  28
TORSDOF 8
ENDMDL
MODEL 3
REMARK VINA RESULT:      -9.7      3.416      8.554
REMARK  8 active torsions:
REMARK  status: ('A' for Active; 'I' for Inactive)
REMARK    1  A    between atoms: C_4  and  C_5 
REMARK    2  A    between atoms: C_5  and  N_6 
REMARK       I    between atoms: N_6  and  C_7 
REMARK    3  A    between atoms: C_7  and  C_8 
REMARK    4  A    between atoms: C_9  and  N_10 
REMARK       I    between atoms: N_10  and  C_11 
REMARK    5  A    between atoms: C_11  and  C_12 
REMARK    6  A    between atoms: C_12  and  C_13 
REMARK    7  A    between atoms: C_13  and  C_14 
REMARK    8  A    between atoms: C_14  and  N_15 
ROOT
HETATM    1  C   UNL     1      -5.879  -0.103 -33.967  1.00  0.00     0.073 A 
HETATM    2  C   UNL     1      -4.856   0.340 -33.137  1.00  0.00     0.093 A 
HETATM    3  S   UNL     1      -3.811  -0.927 -32.631  1.00  0.00    -0.075 SA
HETATM    4  C   UNL     1      -4.626  -2.077 -33.552  1.00  0.00    -0.008 A 
HETATM    5  C   UNL     1      -5.739  -1.552 -34.176  1.00  0.00    -0.026 A 
HETATM    6  C   UNL     1      -6.647  -2.431 -35.004  1.00  0.00     0.041 C 
HETATM    7  C   UNL     1      -6.393  -3.929 -34.762  1.00  0.00     0.005 C 
HETATM    8  C   UNL     1      -4.898  -4.255 -34.732  1.00  0.00     0.005 C 
HETATM    9  C   UNL     1      -4.190  -3.509 -33.594  1.00  0.00     0.047 C 
ENDROOT
BRANCH   2  10
HETATM   10  N   UNL     1      -4.415   1.489 -32.514  1.00  0.00    -0.320 N 
HETATM   11  C   UNL     1      -5.085   2.303 -31.633  1.00  0.00     0.222 C 
HETATM   12  O   UNL     1      -6.263   2.217 -31.317  1.00  0.00    -0.273 OA
HETATM   13  H   UNL     1      -3.587   1.880 -32.948  1.00  0.00     0.169 HD
BRANCH  11  14
HETATM   14  C   UNL     1      -4.192   3.442 -31.161  1.00  0.00     0.105 C 
BRANCH  14  15
HETATM   15  C   UNL     1      -2.790   3.436 -31.761  1.00  0.00     0.029 C 
BRANCH  15  16
HETATM   16  C   UNL     1      -2.401   4.792 -32.352  1.00  0.00     0.136 C 
BRANCH  16  17
HETATM   17  N   UNL     1      -1.849   5.668 -31.335  1.00  0.00    -0.280 N 
HETATM   18  C   UNL     1      -0.560   5.585 -30.880  1.00  0.00     0.261 A 
HETATM   19  O   UNL     1       0.319   4.805 -31.194  1.00  0.00    -0.267 OA
HETATM   20  C   UNL     1      -0.390   6.672 -29.917  1.00  0.00     0.048 A 
HETATM   21  C   UNL     1      -1.578   7.377 -29.870  1.00  0.00     0.048 A 
HETATM   22  C   UNL     1       0.703   7.030 -29.153  1.00  0.00     0.018 A 
HETATM   23  C   UNL     1      -2.508   6.742 -30.802  1.00  0.00     0.261 A 
HETATM   24  C   UNL     1      -1.743   8.481 -29.056  1.00  0.00     0.018 A 
HETATM   25  O   UNL     1      -3.630   7.152 -31.026  1.00  0.00    -0.267 OA
HETATM   26  C   UNL     1      -0.651   8.863 -28.270  1.00  0.00     0.001 A 
HETATM   27  C   UNL     1       0.562   8.144 -28.318  1.00  0.00     0.001 A 
ENDBRANCH  16  17
ENDBRANCH  15  16
ENDBRANCH  14  15
ENDBRANCH  11  14
ENDBRANCH   2  10
BRANCH   1  28
HETATM   28  C   UNL     1      -7.039   0.611 -34.524  1.00  0.00     0.255 C 
HETATM   29  N   UNL     1      -7.889   1.213 -33.642  1.00  0.00    -0.353 N 
HETATM   30  H   UNL     1      -7.885   0.911 -32.671  1.00  0.00     0.163 HD
HETATM   31  O   UNL     1      -7.162   0.761 -35.739  1.00  0.00    -0.268 OA
BRANCH  29  32
HETATM   32  C   UNL     1      -8.955   2.088 -34.063  1.00  0.00     0.161 C 
BRANCH  32  33
HETATM   33  C   UNL     1     -10.315   1.445 -33.999  1.00  0.00    -0.041 A 
HETATM   34  C   UNL     1     -10.528   0.292 -33.235  1.00  0.00     0.009 A 
HETATM   35  C   UNL     1     -11.797  -0.287 -33.162  1.00  0.00     0.001 A 
HETATM   36  C   UNL     1     -12.864   0.275 -33.860  1.00  0.00     0.000 A 
HETATM   37  C   UNL     1     -12.663   1.416 -34.633  1.00  0.00     0.001 A 
HETATM   38  C   UNL     1     -11.395   1.996 -34.704  1.00  0.00     0.009 A 
ENDBRANCH  32  33
ENDBRANCH  29  32
ENDBRANCH   1  28
TORSDOF 8
ENDMDL
MODEL 4
REMARK VINA RESULT:      -9.7      3.778      8.435
REMARK  8 active torsions:
REMARK  status: ('A' for Active; 'I' for Inactive)
REMARK    1  A    between atoms: C_4  and  C_5 
REMARK    2  A    between atoms: C_5  and  N_6 
REMARK       I    between atoms: N_6  and  C_7 
REMARK    3  A    between atoms: C_7  and  C_8 
REMARK    4  A    between atoms: C_9  and  N_10 
REMARK       I    between atoms: N_10  and  C_11 
REMARK    5  A    between atoms: C_11  and  C_12 
REMARK    6  A    between atoms: C_12  and  C_13 
REMARK    7  A    between atoms: C_13  and  C_14 
REMARK    8  A    between atoms: C_14  and  N_15 
ROOT
HETATM    1  C   UNL     1      -5.423   2.087 -32.481  1.00  0.00     0.073 A 
HETATM    2  C   UNL     1      -5.080   3.339 -32.979  1.00  0.00     0.093 A 
HETATM    3  S   UNL     1      -6.401   4.439 -32.984  1.00  0.00    -0.075 SA
HETATM    4  C   UNL     1      -7.437   3.326 -32.260  1.00  0.00    -0.008 A 
HETATM    5  C   UNL     1      -6.840   2.095 -32.087  1.00  0.00    -0.026 A 
HETATM    6  C   UNL     1      -7.617   0.935 -31.509  1.00  0.00     0.041 C 
HETATM    7  C   UNL     1      -9.133   1.192 -31.497  1.00  0.00     0.005 C 
HETATM    8  C   UNL     1      -9.466   2.604 -31.009  1.00  0.00     0.005 C 
HETATM    9  C   UNL     1      -8.856   3.668 -31.929  1.00  0.00     0.047 C 
ENDROOT
BRANCH   2  10
HETATM   10  N   UNL     1      -4.011   4.001 -33.544  1.00  0.00    -0.320 N 
HETATM   11  C   UNL     1      -2.719   4.097 -33.090  1.00  0.00     0.222 C 
HETATM   12  O   UNL     1      -2.294   3.695 -32.016  1.00  0.00    -0.273 OA
HETATM   13  H   UNL     1      -4.292   4.674 -34.249  1.00  0.00     0.169 HD
BRANCH  11  14
HETATM   14  C   UNL     1      -1.860   4.896 -34.061  1.00  0.00     0.105 C 
BRANCH  14  15
HETATM   15  C   UNL     1      -2.044   6.408 -33.971  1.00  0.00     0.029 C 
BRANCH  15  16
HETATM   16  C   UNL     1      -0.786   7.122 -33.473  1.00  0.00     0.136 C 
BRANCH  16  17
HETATM   17  N   UNL     1      -0.837   7.336 -32.039  1.00  0.00    -0.280 N 
HETATM   18  C   UNL     1      -1.546   8.347 -31.447  1.00  0.00     0.261 A 
HETATM   19  O   UNL     1      -2.213   9.224 -31.963  1.00  0.00    -0.267 OA
HETATM   20  C   UNL     1      -1.386   8.175 -30.005  1.00  0.00     0.048 A 
HETATM   21  C   UNL     1      -0.617   7.044 -29.801  1.00  0.00     0.048 A 
HETATM   22  C   UNL     1      -1.873   8.926 -28.952  1.00  0.00     0.018 A 
HETATM   23  C   UNL     1      -0.285   6.493 -31.114  1.00  0.00     0.261 A 
HETATM   24  C   UNL     1      -0.291   6.599 -28.536  1.00  0.00     0.018 A 
HETATM   25  O   UNL     1       0.348   5.469 -31.279  1.00  0.00    -0.267 OA
HETATM   26  C   UNL     1      -0.770   7.343 -27.453  1.00  0.00     0.001 A 
HETATM   27  C   UNL     1      -1.555   8.497 -27.659  1.00  0.00     0.001 A 
ENDBRANCH  16  17
ENDBRANCH  15  16
ENDBRANCH  14  15
ENDBRANCH  11  14
ENDBRANCH   2  10
BRANCH   1  28
HETATM   28  C   UNL     1      -4.646   0.840 -32.406  1.00  0.00     0.255 C 
HETATM   29  N   UNL     1      -4.830  -0.076 -33.402  1.00  0.00    -0.353 N 
HETATM   30  H   UNL     1      -5.673  -0.026 -33.967  1.00  0.00     0.163 HD
HETATM   31  O   UNL     1      -3.778   0.689 -31.548  1.00  0.00    -0.268 OA
BRANCH  29  32
HETATM   32  C   UNL     1      -4.005  -1.250 -33.540  1.00  0.00     0.161 C 
BRANCH  32  33
HETATM   33  C   UNL     1      -4.765  -2.461 -34.015  1.00  0.00    -0.041 A 
HETATM   34  C   UNL     1      -4.158  -3.722 -34.043  1.00  0.00     0.009 A 
HETATM   35  C   UNL     1      -4.875  -4.845 -34.464  1.00  0.00     0.001 A 
HETATM   36  C   UNL     1      -6.202  -4.716 -34.869  1.00  0.00     0.000 A 
HETATM   37  C   UNL     1      -6.813  -3.465 -34.858  1.00  0.00     0.001 A 
HETATM   38  C   UNL     1      -6.098  -2.344 -34.434  1.00  0.00     0.009 A 
ENDBRANCH  32  33
ENDBRANCH  29  32
ENDBRANCH   1  28
TORSDOF 8
ENDMDL
MODEL 5
REMARK VINA RESULT:      -9.6      3.832      8.123
REMARK  8 active torsions:
REMARK  status: ('A' for Active; 'I' for Inactive)
REMARK    1  A    between atoms: C_4  and  C_5 
REMARK    2  A    between atoms: C_5  and  N_6 
REMARK       I    between atoms: N_6  and  C_7 
REMARK    3  A    between atoms: C_7  and  C_8 
REMARK    4  A    between atoms: C_9  and  N_10 
REMARK       I    between atoms: N_10  and  C_11 
REMARK    5  A    between atoms: C_11  and  C_12 
REMARK    6  A    between atoms: C_12  and  C_13 
REMARK    7  A    between atoms: C_13  and  C_14 
REMARK    8  A    between atoms: C_14  and  N_15 
ROOT
HETATM    1  C   UNL     1      -6.503   1.458 -32.343  1.00  0.00     0.073 A 
HETATM    2  C   UNL     1      -6.037   2.752 -32.141  1.00  0.00     0.093 A 
HETATM    3  S   UNL     1      -7.235   3.947 -32.443  1.00  0.00    -0.075 SA
HETATM    4  C   UNL     1      -8.419   2.795 -32.769  1.00  0.00    -0.008 A 
HETATM    5  C   UNL     1      -7.917   1.510 -32.746  1.00  0.00    -0.026 A 
HETATM    6  C   UNL     1      -8.801   0.329 -33.073  1.00  0.00     0.041 C 
HETATM    7  C   UNL     1     -10.118   0.752 -33.745  1.00  0.00     0.005 C 
HETATM    8  C   UNL     1     -10.749   1.961 -33.050  1.00  0.00     0.005 C 
HETATM    9  C   UNL     1      -9.824   3.181 -33.111  1.00  0.00     0.047 C 
ENDROOT
BRANCH   2  10
HETATM   10  N   UNL     1      -4.876   3.425 -31.823  1.00  0.00    -0.320 N 
HETATM   11  C   UNL     1      -3.574   3.055 -32.053  1.00  0.00     0.222 C 
HETATM   12  O   UNL     1      -3.191   1.981 -32.495  1.00  0.00    -0.273 OA
HETATM   13  H   UNL     1      -5.022   4.161 -31.140  1.00  0.00     0.169 HD
BRANCH  11  14
HETATM   14  C   UNL     1      -2.611   4.131 -31.570  1.00  0.00     0.105 C 
BRANCH  14  15
HETATM   15  C   UNL     1      -2.180   5.122 -32.647  1.00  0.00     0.029 C 
BRANCH  15  16
HETATM   16  C   UNL     1      -0.705   5.510 -32.529  1.00  0.00     0.136 C 
BRANCH  16  17
HETATM   17  N   UNL     1      -0.421   6.103 -31.235  1.00  0.00    -0.280 N 
HETATM   18  C   UNL     1      -0.901   7.323 -30.838  1.00  0.00     0.261 A 
HETATM   19  O   UNL     1      -1.595   8.113 -31.449  1.00  0.00    -0.267 OA
HETATM   20  C   UNL     1      -0.441   7.522 -29.465  1.00  0.00     0.048 A 
HETATM   21  C   UNL     1       0.264   6.392 -29.093  1.00  0.00     0.048 A 
HETATM   22  C   UNL     1      -0.623   8.585 -28.603  1.00  0.00     0.018 A 
HETATM   23  C   UNL     1       0.254   5.471 -30.228  1.00  0.00     0.261 A 
HETATM   24  C   UNL     1       0.827   6.260 -27.839  1.00  0.00     0.018 A 
HETATM   25  O   UNL     1       0.754   4.363 -30.207  1.00  0.00    -0.267 OA
HETATM   26  C   UNL     1       0.658   7.324 -26.948  1.00  0.00     0.001 A 
HETATM   27  C   UNL     1      -0.061   8.478 -27.326  1.00  0.00     0.001 A 
ENDBRANCH  16  17
ENDBRANCH  15  16
ENDBRANCH  14  15
ENDBRANCH  11  14
ENDBRANCH   2  10
BRANCH   1  28
HETATM   28  C   UNL     1      -5.795   0.168 -32.311  1.00  0.00     0.255 C 
HETATM   29  N   UNL     1      -5.083  -0.185 -33.421  1.00  0.00    -0.353 N 
HETATM   30  H   UNL     1      -5.297   0.265 -34.307  1.00  0.00     0.163 HD
HETATM   31  O   UNL     1      -5.749  -0.501 -31.279  1.00  0.00    -0.268 OA
BRANCH  29  32
HETATM   32  C   UNL     1      -4.207  -1.330 -33.450  1.00  0.00     0.161 C 
BRANCH  32  33
HETATM   33  C   UNL     1      -4.865  -2.571 -33.994  1.00  0.00    -0.041 A 
HETATM   34  C   UNL     1      -6.155  -2.520 -34.536  1.00  0.00     0.009 A 
HETATM   35  C   UNL     1      -6.750  -3.670 -35.059  1.00  0.00     0.001 A 
HETATM   36  C   UNL     1      -6.067  -4.884 -35.037  1.00  0.00     0.000 A 
HETATM   37  C   UNL     1      -4.788  -4.951 -34.489  1.00  0.00     0.001 A 
HETATM   38  C   UNL     1      -4.191  -3.801 -33.970  1.00  0.00     0.009 A 
ENDBRANCH  32  33
ENDBRANCH  29  32
ENDBRANCH   1  28
TORSDOF 8
ENDMDL
MODEL 6
REMARK VINA RESULT:      -9.5      2.223      7.650
REMARK  8 active torsions:
REMARK  status: ('A' for Active; 'I' for Inactive)
REMARK    1  A    between atoms: C_4  and  C_5 
REMARK    2  A    between atoms: C_5  and  N_6 
REMARK       I    between atoms: N_6  and  C_7 
REMARK    3  A    between atoms: C_7  and  C_8 
REMARK    4  A    between atoms: C_9  and  N_10 
REMARK       I    between atoms: N_10  and  C_11 
REMARK    5  A    between atoms: C_11  and  C_12 
REMARK    6  A    between atoms: C_12  and  C_13 
REMARK    7  A    between atoms: C_13  and  C_14 
REMARK    8  A    between atoms: C_14  and  N_15 
ROOT
HETATM    1  C   UNL     1      -6.149   0.420 -33.579  1.00  0.00     0.073 A 
HETATM    2  C   UNL     1      -5.415   0.939 -32.518  1.00  0.00     0.093 A 
HETATM    3  S   UNL     1      -4.292  -0.190 -31.870  1.00  0.00    -0.075 SA
HETATM    4  C   UNL     1      -4.683  -1.361 -33.015  1.00  0.00    -0.008 A 
HETATM    5  C   UNL     1      -5.716  -0.961 -33.837  1.00  0.00    -0.026 A 
HETATM    6  C   UNL     1      -6.263  -1.890 -34.896  1.00  0.00     0.041 C 
HETATM    7  C   UNL     1      -5.807  -3.345 -34.693  1.00  0.00     0.005 C 
HETATM    8  C   UNL     1      -4.316  -3.430 -34.352  1.00  0.00     0.005 C 
HETATM    9  C   UNL     1      -4.004  -2.694 -33.044  1.00  0.00     0.047 C 
ENDROOT
BRANCH   2  10
HETATM   10  N   UNL     1      -5.323   2.077 -31.746  1.00  0.00    -0.320 N 
HETATM   11  C   UNL     1      -6.276   2.654 -30.943  1.00  0.00     0.222 C 
HETATM   12  O   UNL     1      -7.447   2.317 -30.849  1.00  0.00    -0.273 OA
HETATM   13  H   UNL     1      -4.532   2.661 -31.996  1.00  0.00     0.169 HD
BRANCH  11  14
HETATM   14  C   UNL     1      -5.720   3.885 -30.239  1.00  0.00     0.105 C 
BRANCH  14  15
HETATM   15  C   UNL     1      -6.522   5.161 -30.473  1.00  0.00     0.029 C 
BRANCH  15  16
HETATM   16  C   UNL     1      -6.623   5.525 -31.955  1.00  0.00     0.136 C 
BRANCH  16  17
HETATM   17  N   UNL     1      -5.310   5.756 -32.529  1.00  0.00    -0.280 N 
HETATM   18  C   UNL     1      -4.433   6.697 -32.063  1.00  0.00     0.261 A 
HETATM   19  O   UNL     1      -4.569   7.493 -31.152  1.00  0.00    -0.267 OA
HETATM   20  C   UNL     1      -3.218   6.566 -32.865  1.00  0.00     0.048 A 
HETATM   21  C   UNL     1      -3.416   5.524 -33.753  1.00  0.00     0.048 A 
HETATM   22  C   UNL     1      -2.036   7.279 -32.828  1.00  0.00     0.018 A 
HETATM   23  C   UNL     1      -4.756   4.990 -33.517  1.00  0.00     0.261 A 
HETATM   24  C   UNL     1      -2.443   5.135 -34.653  1.00  0.00     0.018 A 
HETATM   25  O   UNL     1      -5.218   4.034 -34.108  1.00  0.00    -0.267 OA
HETATM   26  C   UNL     1      -1.237   5.843 -34.635  1.00  0.00     0.001 A 
HETATM   27  C   UNL     1      -1.035   6.906 -33.731  1.00  0.00     0.001 A 
ENDBRANCH  16  17
ENDBRANCH  15  16
ENDBRANCH  14  15
ENDBRANCH  11  14
ENDBRANCH   2  10
BRANCH   1  28
HETATM   28  C   UNL     1      -7.274   0.992 -34.336  1.00  0.00     0.255 C 
HETATM   29  N   UNL     1      -8.315   1.508 -33.619  1.00  0.00    -0.353 N 
HETATM   30  H   UNL     1      -8.435   1.224 -32.651  1.00  0.00     0.163 HD
HETATM   31  O   UNL     1      -7.216   1.108 -35.559  1.00  0.00    -0.268 OA
BRANCH  29  32
HETATM   32  C   UNL     1      -9.387   2.252 -34.232  1.00  0.00     0.161 C 
BRANCH  32  33
HETATM   33  C   UNL     1     -10.720   1.556 -34.150  1.00  0.00    -0.041 A 
HETATM   34  C   UNL     1     -11.817   2.017 -34.888  1.00  0.00     0.009 A 
HETATM   35  C   UNL     1     -13.044   1.353 -34.824  1.00  0.00     0.001 A 
HETATM   36  C   UNL     1     -13.190   0.228 -34.015  1.00  0.00     0.000 A 
HETATM   37  C   UNL     1     -12.110  -0.233 -33.266  1.00  0.00     0.001 A 
HETATM   38  C   UNL     1     -10.883   0.428 -33.332  1.00  0.00     0.009 A 
ENDBRANCH  32  33
ENDBRANCH  29  32
ENDBRANCH   1  28
TORSDOF 8
ENDMDL
MODEL 7
REMARK VINA RESULT:      -9.5      2.638      6.987
REMARK  8 active torsions:
REMARK  status: ('A' for Active; 'I' for Inactive)
REMARK    1  A    between atoms: C_4  and  C_5 
REMARK    2  A    between atoms: C_5  and  N_6 
REMARK       I    between atoms: N_6  and  C_7 
REMARK    3  A    between atoms: C_7  and  C_8 
REMARK    4  A    between atoms: C_9  and  N_10 
REMARK       I    between atoms: N_10  and  C_11 
REMARK    5  A    between atoms: C_11  and  C_12 
REMARK    6  A    between atoms: C_12  and  C_13 
REMARK    7  A    between atoms: C_13  and  C_14 
REMARK    8  A    between atoms: C_14  and  N_15 
ROOT
HETATM    1  C   UNL     1      -9.342   2.429 -33.311  1.00  0.00     0.073 A 
HETATM    2  C   UNL     1      -8.919   3.693 -33.707  1.00  0.00     0.093 A 
HETATM    3  S   UNL     1     -10.078   4.510 -34.679  1.00  0.00    -0.075 SA
HETATM    4  C   UNL     1     -11.197   3.259 -34.540  1.00  0.00    -0.008 A 
HETATM    5  C   UNL     1     -10.690   2.181 -33.844  1.00  0.00    -0.026 A 
HETATM    6  C   UNL     1     -11.511   0.926 -33.659  1.00  0.00     0.041 C 
HETATM    7  C   UNL     1     -12.732   0.881 -34.594  1.00  0.00     0.005 C 
HETATM    8  C   UNL     1     -13.461   2.226 -34.642  1.00  0.00     0.005 C 
HETATM    9  C   UNL     1     -12.547   3.333 -35.180  1.00  0.00     0.047 C 
ENDROOT
BRANCH   2  10
HETATM   10  N   UNL     1      -7.818   4.519 -33.625  1.00  0.00    -0.320 N 
HETATM   11  C   UNL     1      -6.513   4.251 -33.960  1.00  0.00     0.222 C 
HETATM   12  O   UNL     1      -6.057   3.167 -34.296  1.00  0.00    -0.273 OA
HETATM   13  H   UNL     1      -7.974   5.328 -33.035  1.00  0.00     0.169 HD
BRANCH  11  14
HETATM   14  C   UNL     1      -5.635   5.477 -33.746  1.00  0.00     0.105 C 
BRANCH  14  15
HETATM   15  C   UNL     1      -5.748   6.100 -32.358  1.00  0.00     0.029 C 
BRANCH  15  16
HETATM   16  C   UNL     1      -5.158   5.206 -31.266  1.00  0.00     0.136 C 
BRANCH  16  17
HETATM   17  N   UNL     1      -3.766   5.530 -31.018  1.00  0.00    -0.280 N 
HETATM   18  C   UNL     1      -2.718   4.889 -31.624  1.00  0.00     0.261 A 
HETATM   19  O   UNL     1      -2.735   3.970 -32.421  1.00  0.00    -0.267 OA
HETATM   20  C   UNL     1      -1.501   5.549 -31.154  1.00  0.00     0.048 A 
HETATM   21  C   UNL     1      -1.883   6.579 -30.314  1.00  0.00     0.048 A 
HETATM   22  C   UNL     1      -0.174   5.289 -31.435  1.00  0.00     0.018 A 
HETATM   23  C   UNL     1      -3.343   6.577 -30.248  1.00  0.00     0.261 A 
HETATM   24  C   UNL     1      -0.961   7.408 -29.707  1.00  0.00     0.018 A 
HETATM   25  O   UNL     1      -3.995   7.392 -29.624  1.00  0.00    -0.267 OA
HETATM   26  C   UNL     1       0.390   7.165 -29.974  1.00  0.00     0.001 A 
HETATM   27  C   UNL     1       0.781   6.114 -30.831  1.00  0.00     0.001 A 
ENDBRANCH  16  17
ENDBRANCH  15  16
ENDBRANCH  14  15
ENDBRANCH  11  14
ENDBRANCH   2  10
BRANCH   1  28
HETATM   28  C   UNL     1      -8.632   1.365 -32.582  1.00  0.00     0.255 C 
HETATM   29  N   UNL     1      -7.523   0.832 -33.173  1.00  0.00    -0.353 N 
HETATM   30  H   UNL     1      -7.397   0.945 -34.175  1.00  0.00     0.163 HD
HETATM   31  O   UNL     1      -8.958   1.062 -31.435  1.00  0.00    -0.268 OA
BRANCH  29  32
HETATM   32  C   UNL     1      -6.643  -0.083 -32.490  1.00  0.00     0.161 C 
BRANCH  32  33
HETATM   33  C   UNL     1      -6.195  -1.235 -33.351  1.00  0.00    -0.041 A 
HETATM   34  C   UNL     1      -4.840  -1.575 -33.445  1.00  0.00     0.009 A 
HETATM   35  C   UNL     1      -4.434  -2.658 -34.228  1.00  0.00     0.001 A 
HETATM   36  C   UNL     1      -5.376  -3.407 -34.931  1.00  0.00     0.000 A 
HETATM   37  C   UNL     1      -6.726  -3.072 -34.855  1.00  0.00     0.001 A 
HETATM   38  C   UNL     1      -7.132  -1.991 -34.070  1.00  0.00     0.009 A 
ENDBRANCH  32  33
ENDBRANCH  29  32
ENDBRANCH   1  28
TORSDOF 8
ENDMDL
MODEL 8
REMARK VINA RESULT:      -9.4      3.370      8.119
REMARK  8 active torsions:
REMARK  status: ('A' for Active; 'I' for Inactive)
REMARK    1  A    between atoms: C_4  and  C_5 
REMARK    2  A    between atoms: C_5  and  N_6 
REMARK       I    between atoms: N_6  and  C_7 
REMARK    3  A    between atoms: C_7  and  C_8 
REMARK    4  A    between atoms: C_9  and  N_10 
REMARK       I    between atoms: N_10  and  C_11 
REMARK    5  A    between atoms: C_11  and  C_12 
REMARK    6  A    between atoms: C_12  and  C_13 
REMARK    7  A    between atoms: C_13  and  C_14 
REMARK    8  A    between atoms: C_14  and  N_15 
ROOT
HETATM    1  C   UNL     1      -6.069  -0.659 -33.899  1.00  0.00     0.073 A 
HETATM    2  C   UNL     1      -5.022  -0.097 -33.179  1.00  0.00     0.093 A 
HETATM    3  S   UNL     1      -3.792  -1.234 -32.793  1.00  0.00    -0.075 SA
HETATM    4  C   UNL     1      -4.564  -2.475 -33.629  1.00  0.00    -0.008 A 
HETATM    5  C   UNL     1      -5.788  -2.084 -34.130  1.00  0.00    -0.026 A 
HETATM    6  C   UNL     1      -6.672  -3.066 -34.862  1.00  0.00     0.041 C 
HETATM    7  C   UNL     1      -6.226  -4.524 -34.657  1.00  0.00     0.005 C 
HETATM    8  C   UNL     1      -4.708  -4.677 -34.786  1.00  0.00     0.005 C 
HETATM    9  C   UNL     1      -3.974  -3.848 -33.725  1.00  0.00     0.047 C 
ENDROOT
BRANCH   2  10
HETATM   10  N   UNL     1      -4.652   1.098 -32.599  1.00  0.00    -0.320 N 
HETATM   11  C   UNL     1      -5.239   2.334 -32.721  1.00  0.00     0.222 C 
HETATM   12  O   UNL     1      -6.156   2.631 -33.473  1.00  0.00    -0.273 OA
HETATM   13  H   UNL     1      -3.706   1.083 -32.233  1.00  0.00     0.169 HD
BRANCH  11  14
HETATM   14  C   UNL     1      -4.517   3.365 -31.865  1.00  0.00     0.105 C 
BRANCH  14  15
HETATM   15  C   UNL     1      -2.996   3.324 -31.975  1.00  0.00     0.029 C 
BRANCH  15  16
HETATM   16  C   UNL     1      -2.428   4.558 -32.678  1.00  0.00     0.136 C 
BRANCH  16  17
HETATM   17  N   UNL     1      -1.888   5.506 -31.720  1.00  0.00    -0.280 N 
HETATM   18  C   UNL     1      -2.623   6.513 -31.154  1.00  0.00     0.261 A 
HETATM   19  O   UNL     1      -3.787   6.815 -31.338  1.00  0.00    -0.267 OA
HETATM   20  C   UNL     1      -1.736   7.192 -30.211  1.00  0.00     0.048 A 
HETATM   21  C   UNL     1      -0.521   6.533 -30.232  1.00  0.00     0.048 A 
HETATM   22  C   UNL     1      -1.961   8.282 -29.393  1.00  0.00     0.018 A 
HETATM   23  C   UNL     1      -0.631   5.433 -31.189  1.00  0.00     0.261 A 
HETATM   24  C   UNL     1       0.539   6.925 -29.438  1.00  0.00     0.018 A 
HETATM   25  O   UNL     1       0.258   4.633 -31.407  1.00  0.00    -0.267 OA
HETATM   26  C   UNL     1       0.337   8.029 -28.603  1.00  0.00     0.001 A 
HETATM   27  C   UNL     1      -0.903   8.702 -28.580  1.00  0.00     0.001 A 
ENDBRANCH  16  17
ENDBRANCH  15  16
ENDBRANCH  14  15
ENDBRANCH  11  14
ENDBRANCH   2  10
BRANCH   1  28
HETATM   28  C   UNL     1      -7.355  -0.085 -34.328  1.00  0.00     0.255 C 
HETATM   29  N   UNL     1      -8.306   0.109 -33.369  1.00  0.00    -0.353 N 
HETATM   30  H   UNL     1      -8.235  -0.403 -32.494  1.00  0.00     0.163 HD
HETATM   31  O   UNL     1      -7.513   0.316 -35.480  1.00  0.00    -0.268 OA
BRANCH  29  32
HETATM   32  C   UNL     1      -9.533   0.824 -33.624  1.00  0.00     0.161 C 
BRANCH  32  33
HETATM   33  C   UNL     1      -9.815   1.904 -32.613  1.00  0.00    -0.041 A 
HETATM   34  C   UNL     1     -10.872   2.803 -32.800  1.00  0.00     0.009 A 
HETATM   35  C   UNL     1     -11.143   3.788 -31.848  1.00  0.00     0.001 A 
HETATM   36  C   UNL     1     -10.355   3.891 -30.704  1.00  0.00     0.000 A 
HETATM   37  C   UNL     1      -9.293   3.011 -30.511  1.00  0.00     0.001 A 
HETATM   38  C   UNL     1      -9.024   2.024 -31.461  1.00  0.00     0.009 A 
ENDBRANCH  32  33
ENDBRANCH  29  32
ENDBRANCH   1  28
TORSDOF 8
ENDMDL
MODEL 9
REMARK VINA RESULT:      -9.4      2.598      7.218
REMARK  8 active torsions:
REMARK  status: ('A' for Active; 'I' for Inactive)
REMARK    1  A    between atoms: C_4  and  C_5 
REMARK    2  A    between atoms: C_5  and  N_6 
REMARK       I    between atoms: N_6  and  C_7 
REMARK    3  A    between atoms: C_7  and  C_8 
REMARK    4  A    between atoms: C_9  and  N_10 
REMARK       I    between atoms: N_10  and  C_11 
REMARK    5  A    between atoms: C_11  and  C_12 
REMARK    6  A    between atoms: C_12  and  C_13 
REMARK    7  A    between atoms: C_13  and  C_14 
REMARK    8  A    between atoms: C_14  and  N_15 
ROOT
HETATM    1  C   UNL     1      -6.309  -0.041 -33.176  1.00  0.00     0.073 A 
HETATM    2  C   UNL     1      -5.058   0.414 -32.774  1.00  0.00     0.093 A 
HETATM    3  S   UNL     1      -3.804  -0.718 -33.088  1.00  0.00    -0.075 SA
HETATM    4  C   UNL     1      -4.857  -1.802 -33.832  1.00  0.00    -0.008 A 
HETATM    5  C   UNL     1      -6.168  -1.376 -33.777  1.00  0.00    -0.026 A 
HETATM    6  C   UNL     1      -7.282  -2.232 -34.333  1.00  0.00     0.041 C 
HETATM    7  C   UNL     1      -6.833  -3.678 -34.600  1.00  0.00     0.005 C 
HETATM    8  C   UNL     1      -5.465  -3.731 -35.286  1.00  0.00     0.005 C 
HETATM    9  C   UNL     1      -4.379  -3.098 -34.408  1.00  0.00     0.047 C 
ENDROOT
BRANCH   2  10
HETATM   10  N   UNL     1      -4.473   1.485 -32.132  1.00  0.00    -0.320 N 
HETATM   11  C   UNL     1      -4.659   2.828 -32.351  1.00  0.00     0.222 C 
HETATM   12  O   UNL     1      -5.311   3.333 -33.253  1.00  0.00    -0.273 OA
HETATM   13  H   UNL     1      -3.648   1.225 -31.603  1.00  0.00     0.169 HD
BRANCH  11  14
HETATM   14  C   UNL     1      -3.835   3.656 -31.374  1.00  0.00     0.105 C 
BRANCH  14  15
HETATM   15  C   UNL     1      -4.461   4.996 -30.999  1.00  0.00     0.029 C 
BRANCH  15  16
HETATM   16  C   UNL     1      -5.297   4.913 -29.721  1.00  0.00     0.136 C 
BRANCH  16  17
HETATM   17  N   UNL     1      -6.716   4.869 -30.025  1.00  0.00    -0.280 N 
HETATM   18  C   UNL     1      -7.450   3.714 -30.054  1.00  0.00     0.261 A 
HETATM   19  O   UNL     1      -7.089   2.567 -29.867  1.00  0.00    -0.267 OA
HETATM   20  C   UNL     1      -8.830   4.107 -30.335  1.00  0.00     0.048 A 
HETATM   21  C   UNL     1      -8.861   5.486 -30.424  1.00  0.00     0.048 A 
HETATM   22  C   UNL     1      -9.968   3.340 -30.490  1.00  0.00     0.018 A 
HETATM   23  C   UNL     1      -7.501   5.975 -30.200  1.00  0.00     0.261 A 
HETATM   24  C   UNL     1     -10.030   6.178 -30.673  1.00  0.00     0.018 A 
HETATM   25  O   UNL     1      -7.200   7.152 -30.171  1.00  0.00    -0.267 OA
HETATM   26  C   UNL     1     -11.196   5.423 -30.836  1.00  0.00     0.001 A 
HETATM   27  C   UNL     1     -11.165   4.015 -30.745  1.00  0.00     0.001 A 
ENDBRANCH  16  17
ENDBRANCH  15  16
ENDBRANCH  14  15
ENDBRANCH  11  14
ENDBRANCH   2  10
BRANCH   1  28
HETATM   28  C   UNL     1      -7.646   0.546 -32.995  1.00  0.00     0.255 C 
HETATM   29  N   UNL     1      -8.189   1.211 -34.057  1.00  0.00    -0.353 N 
HETATM   30  H   UNL     1      -7.575   1.542 -34.796  1.00  0.00     0.163 HD
HETATM   31  O   UNL     1      -8.294   0.336 -31.971  1.00  0.00    -0.268 OA
BRANCH  29  32
HETATM   32  C   UNL     1      -9.554   1.674 -34.069  1.00  0.00     0.161 C 
BRANCH  32  33
HETATM   33  C   UNL     1      -9.676   3.171 -34.175  1.00  0.00    -0.041 A 
HETATM   34  C   UNL     1      -8.580   4.000 -33.905  1.00  0.00     0.009 A 
HETATM   35  C   UNL     1      -8.693   5.387 -34.027  1.00  0.00     0.001 A 
HETATM   36  C   UNL     1      -9.905   5.960 -34.409  1.00  0.00     0.000 A 
HETATM   37  C   UNL     1     -11.005   5.147 -34.669  1.00  0.00     0.001 A 
HETATM   38  C   UNL     1     -10.892   3.761 -34.550  1.00  0.00     0.009 A 
ENDBRANCH  32  33
ENDBRANCH  29  32
ENDBRANCH   1  28
TORSDOF 8
ENDMDL
MODEL 10
REMARK VINA RESULT:      -9.3      1.981      6.902
REMARK  8 active torsions:
REMARK  status: ('A' for Active; 'I' for Inactive)
REMARK    1  A    between atoms: C_4  and  C_5 
REMARK    2  A    between atoms: C_5  and  N_6 
REMARK       I    between atoms: N_6  and  C_7 
REMARK    3  A    between atoms: C_7  and  C_8 
REMARK    4  A    between atoms: C_9  and  N_10 
REMARK       I    between atoms: N_10  and  C_11 
REMARK    5  A    between atoms: C_11  and  C_12 
REMARK    6  A    between atoms: C_12  and  C_13 
REMARK    7  A    between atoms: C_13  and  C_14 
REMARK    8  A    between atoms: C_14  and  N_15 
ROOT
HETATM    1  C   UNL     1      -5.732   0.160 -32.435  1.00  0.00     0.073 A 
HETATM    2  C   UNL     1      -7.076   0.516 -32.434  1.00  0.00     0.093 A 
HETATM    3  S   UNL     1      -8.042  -0.523 -33.404  1.00  0.00    -0.075 SA
HETATM    4  C   UNL     1      -6.736  -1.514 -33.787  1.00  0.00    -0.008 A 
HETATM    5  C   UNL     1      -5.549  -1.036 -33.272  1.00  0.00    -0.026 A 
HETATM    6  C   UNL     1      -4.244  -1.744 -33.551  1.00  0.00     0.041 C 
HETATM    7  C   UNL     1      -4.364  -2.762 -34.698  1.00  0.00     0.005 C 
HETATM    8  C   UNL     1      -5.636  -3.605 -34.581  1.00  0.00     0.005 C 
HETATM    9  C   UNL     1      -6.891  -2.726 -34.652  1.00  0.00     0.047 C 
ENDROOT
BRANCH   2  10
HETATM   10  N   UNL     1      -7.916   1.493 -31.943  1.00  0.00    -0.320 N 
HETATM   11  C   UNL     1      -7.779   2.858 -32.006  1.00  0.00     0.222 C 
HETATM   12  O   UNL     1      -6.808   3.473 -32.423  1.00  0.00    -0.273 OA
HETATM   13  H   UNL     1      -8.580   1.138 -31.264  1.00  0.00     0.169 HD
BRANCH  11  14
HETATM   14  C   UNL     1      -8.974   3.554 -31.367  1.00  0.00     0.105 C 
BRANCH  14  15
HETATM   15  C   UNL     1      -9.354   4.880 -32.016  1.00  0.00     0.029 C 
BRANCH  15  16
HETATM   16  C   UNL     1      -9.913   4.701 -33.428  1.00  0.00     0.136 C 
BRANCH  16  17
HETATM   17  N   UNL     1     -11.063   3.816 -33.429  1.00  0.00    -0.280 N 
HETATM   18  C   UNL     1     -11.033   2.533 -33.906  1.00  0.00     0.261 A 
HETATM   19  O   UNL     1     -10.111   1.921 -34.411  1.00  0.00    -0.267 OA
HETATM   20  C   UNL     1     -12.361   1.972 -33.669  1.00  0.00     0.048 A 
HETATM   21  C   UNL     1     -13.114   2.938 -33.027  1.00  0.00     0.048 A 
HETATM   22  C   UNL     1     -12.877   0.727 -33.973  1.00  0.00     0.018 A 
HETATM   23  C   UNL     1     -12.267   4.116 -32.853  1.00  0.00     0.261 A 
HETATM   24  C   UNL     1     -14.424   2.715 -32.651  1.00  0.00     0.018 A 
HETATM   25  O   UNL     1     -12.621   5.128 -32.280  1.00  0.00    -0.267 OA
HETATM   26  C   UNL     1     -14.970   1.462 -32.950  1.00  0.00     0.001 A 
HETATM   27  C   UNL     1     -14.203   0.476 -33.605  1.00  0.00     0.001 A 
ENDBRANCH  16  17
ENDBRANCH  15  16
ENDBRANCH  14  15
ENDBRANCH  11  14
ENDBRANCH   2  10
BRANCH   1  28
HETATM   28  C   UNL     1      -4.562   0.830 -31.844  1.00  0.00     0.255 C 
HETATM   29  N   UNL     1      -4.223   2.054 -32.342  1.00  0.00    -0.353 N 
HETATM   30  H   UNL     1      -4.563   2.324 -33.261  1.00  0.00     0.163 HD
HETATM   31  O   UNL     1      -3.995   0.357 -30.860  1.00  0.00    -0.268 OA
BRANCH  29  32
HETATM   32  C   UNL     1      -3.215   2.888 -31.735  1.00  0.00     0.161 C 
BRANCH  32  33
HETATM   33  C   UNL     1      -2.769   4.024 -32.617  1.00  0.00    -0.041 A 
HETATM   34  C   UNL     1      -3.517   4.395 -33.741  1.00  0.00     0.009 A 
HETATM   35  C   UNL     1      -3.110   5.464 -34.543  1.00  0.00     0.001 A 
HETATM   36  C   UNL     1      -1.945   6.165 -34.236  1.00  0.00     0.000 A 
HETATM   37  C   UNL     1      -1.186   5.798 -33.128  1.00  0.00     0.001 A 
HETATM   38  C   UNL     1      -1.595   4.732 -32.324  1.00  0.00     0.009 A 
ENDBRANCH  32  33
ENDBRANCH  29  32
ENDBRANCH   1  28
TORSDOF 8
ENDMDL
