MODEL 1
REMARK VINA RESULT:      -9.2      0.000      0.000
REMARK  5 active torsions:
REMARK  status: ('A' for Active; 'I' for Inactive)
REMARK    1  A    between atoms: C_7  and  C_8 
REMARK    2  A    between atoms: C_10  and  N_11 
REMARK       I    between atoms: N_11  and  C_12 
REMARK    3  A    between atoms: C_12  and  C_13 
REMARK    4  A    between atoms: C_15  and  O_16 
REMARK    5  A    between atoms: C_19  and  O_20 
ROOT
HETATM    1  C   UNL     1      -1.192   5.933 -31.697  1.00  0.00     0.019 A 
HETATM    2  C   UNL     1      -2.131   4.885 -31.675  1.00  0.00     0.045 A 
HETATM    3  C   UNL     1      -2.629   4.333 -32.859  1.00  0.00     0.035 A 
HETATM    4  C   UNL     1      -2.189   4.850 -34.083  1.00  0.00     0.029 A 
HETATM    5  C   UNL     1      -1.276   5.906 -34.123  1.00  0.00     0.003 A 
HETATM    6  C   UNL     1      -0.777   6.440 -32.935  1.00  0.00     0.016 A 
ENDROOT
BRANCH   3   7
HETATM    7  N   UNL     1      -3.535   3.246 -32.905  1.00  0.00    -0.323 N 
HETATM    8  C   UNL     1      -3.523   2.115 -32.105  1.00  0.00     0.256 C 
HETATM    9  O   UNL     1      -2.748   1.906 -31.176  1.00  0.00    -0.267 OA
HETATM   10  H   UNL     1      -4.235   3.312 -33.628  1.00  0.00     0.169 HD
BRANCH   8  11
HETATM   11  C   UNL     1      -4.536   1.055 -32.413  1.00  0.00     0.037 A 
HETATM   12  C   UNL     1      -4.057  -0.141 -32.975  1.00  0.00     0.054 A 
HETATM   13  C   UNL     1      -4.931  -1.179 -33.289  1.00  0.00     0.071 A 
HETATM   14  C   UNL     1      -6.295  -1.008 -33.059  1.00  0.00     0.073 A 
HETATM   15  C   UNL     1      -6.792   0.169 -32.493  1.00  0.00     0.071 A 
HETATM   16  C   UNL     1      -5.908   1.198 -32.156  1.00  0.00     0.054 A 
BRANCH  13  17
HETATM   17  O   UNL     1      -4.582  -2.387 -33.827  1.00  0.00    -0.356 OA
HETATM   18  C   UNL     1      -5.476  -2.945 -34.783  1.00  0.00     0.210 C 
ENDBRANCH  13  17
BRANCH  15  19
HETATM   19  O   UNL     1      -8.147   0.181 -32.312  1.00  0.00    -0.356 OA
HETATM   20  C   UNL     1      -8.784   1.448 -32.210  1.00  0.00     0.210 C 
ENDBRANCH  15  19
ENDBRANCH   8  11
ENDBRANCH   3   7
BRANCH   1  21
HETATM   21  C   UNL     1      -0.615   6.470 -30.465  1.00  0.00     0.181 A 
HETATM   22  O   UNL     1      -1.036   5.900 -29.290  1.00  0.00    -0.289 OA
HETATM   23  C   UNL     1      -0.312   6.540 -28.331  1.00  0.00     0.106 A 
HETATM   24  C   UNL     1       0.504   7.462 -28.962  1.00  0.00     0.094 A 
HETATM   25  C   UNL     1      -0.354   6.325 -26.962  1.00  0.00     0.040 A 
HETATM   26  C   UNL     1       1.371   8.244 -28.185  1.00  0.00     0.041 A 
HETATM   27  N   UNL     1       0.294   7.421 -30.318  1.00  0.00    -0.221 NA
HETATM   28  C   UNL     1       1.386   8.047 -26.789  1.00  0.00    -0.060 A 
HETATM   29  C   UNL     1       2.292   8.877 -25.925  1.00  0.00     0.048 C 
HETATM   30  C   UNL     1       0.519   7.109 -26.197  1.00  0.00     0.009 A 
ENDBRANCH   1  21
TORSDOF 5
ENDMDL
MODEL 2
REMARK VINA RESULT:      -9.2      0.461      2.082
REMARK  5 active torsions:
REMARK  status: ('A' for Active; 'I' for Inactive)
REMARK    1  A    between atoms: C_7  and  C_8 
REMARK    2  A    between atoms: C_10  and  N_11 
REMARK       I    between atoms: N_11  and  C_12 
REMARK    3  A    between atoms: C_12  and  C_13 
REMARK    4  A    between atoms: C_15  and  O_16 
REMARK    5  A    between atoms: C_19  and  O_20 
ROOT
HETATM    1  C   UNL     1      -1.221   5.910 -31.676  1.00  0.00     0.019 A 
HETATM    2  C   UNL     1      -2.192   4.893 -31.631  1.00  0.00     0.045 A 
HETATM    3  C   UNL     1      -2.703   4.325 -32.802  1.00  0.00     0.035 A 
HETATM    4  C   UNL     1      -2.244   4.797 -34.037  1.00  0.00     0.029 A 
HETATM    5  C   UNL     1      -1.297   5.822 -34.101  1.00  0.00     0.003 A 
HETATM    6  C   UNL     1      -0.786   6.371 -32.926  1.00  0.00     0.016 A 
ENDROOT
BRANCH   3   7
HETATM    7  N   UNL     1      -3.643   3.267 -32.823  1.00  0.00    -0.323 N 
HETATM    8  C   UNL     1      -3.614   2.110 -32.063  1.00  0.00     0.256 C 
HETATM    9  O   UNL     1      -2.786   1.847 -31.195  1.00  0.00    -0.267 OA
HETATM   10  H   UNL     1      -4.386   3.378 -33.495  1.00  0.00     0.169 HD
BRANCH   8  11
HETATM   11  C   UNL     1      -4.677   1.090 -32.338  1.00  0.00     0.037 A 
HETATM   12  C   UNL     1      -5.952   1.337 -31.799  1.00  0.00     0.054 A 
HETATM   13  C   UNL     1      -6.997   0.442 -32.010  1.00  0.00     0.071 A 
HETATM   14  C   UNL     1      -6.758  -0.718 -32.745  1.00  0.00     0.073 A 
HETATM   15  C   UNL     1      -5.501  -0.980 -33.296  1.00  0.00     0.071 A 
HETATM   16  C   UNL     1      -4.461  -0.066 -33.104  1.00  0.00     0.054 A 
BRANCH  13  17
HETATM   17  O   UNL     1      -8.277   0.580 -31.548  1.00  0.00    -0.356 OA
HETATM   18  C   UNL     1      -9.324   0.335 -32.480  1.00  0.00     0.210 C 
ENDBRANCH  13  17
BRANCH  15  19
HETATM   19  O   UNL     1      -5.425  -2.147 -34.004  1.00  0.00    -0.356 OA
HETATM   20  C   UNL     1      -6.622  -2.634 -34.596  1.00  0.00     0.210 C 
ENDBRANCH  15  19
ENDBRANCH   8  11
ENDBRANCH   3   7
BRANCH   1  21
HETATM   21  C   UNL     1      -0.630   6.460 -30.457  1.00  0.00     0.181 A 
HETATM   22  O   UNL     1      -1.026   5.891 -29.272  1.00  0.00    -0.289 OA
HETATM   23  C   UNL     1      -0.294   6.546 -28.329  1.00  0.00     0.106 A 
HETATM   24  C   UNL     1       0.500   7.475 -28.978  1.00  0.00     0.094 A 
HETATM   25  C   UNL     1      -0.311   6.337 -26.957  1.00  0.00     0.040 A 
HETATM   26  C   UNL     1       1.369   8.271 -28.218  1.00  0.00     0.041 A 
HETATM   27  N   UNL     1       0.268   7.423 -30.330  1.00  0.00    -0.221 NA
HETATM   28  C   UNL     1       1.409   8.081 -26.821  1.00  0.00    -0.060 A 
HETATM   29  C   UNL     1       2.318   8.927 -25.976  1.00  0.00     0.048 C 
HETATM   30  C   UNL     1       0.563   7.136 -26.211  1.00  0.00     0.009 A 
ENDBRANCH   1  21
TORSDOF 5
ENDMDL
MODEL 3
REMARK VINA RESULT:      -9.2      1.284      1.615
REMARK  5 active torsions:
REMARK  status: ('A' for Active; 'I' for Inactive)
REMARK    1  A    between atoms: C_7  and  C_8 
REMARK    2  A    between atoms: C_10  and  N_11 
REMARK       I    between atoms: N_11  and  C_12 
REMARK    3  A    between atoms: C_12  and  C_13 
REMARK    4  A    between atoms: C_15  and  O_16 
REMARK    5  A    between atoms: C_19  and  O_20 
ROOT
HETATM    1  C   UNL     1      -1.218   6.290 -31.504  1.00  0.00     0.019 A 
HETATM    2  C   UNL     1      -1.816   5.016 -31.530  1.00  0.00     0.045 A 
HETATM    3  C   UNL     1      -2.257   4.447 -32.728  1.00  0.00     0.035 A 
HETATM    4  C   UNL     1      -2.110   5.173 -33.916  1.00  0.00     0.029 A 
HETATM    5  C   UNL     1      -1.541   6.449 -33.905  1.00  0.00     0.003 A 
HETATM    6  C   UNL     1      -1.093   7.000 -32.706  1.00  0.00     0.016 A 
ENDROOT
BRANCH   3   7
HETATM    7  N   UNL     1      -2.819   3.151 -32.828  1.00  0.00    -0.323 N 
HETATM    8  C   UNL     1      -4.042   2.732 -32.332  1.00  0.00     0.256 C 
HETATM    9  O   UNL     1      -4.868   3.448 -31.774  1.00  0.00    -0.267 OA
HETATM   10  H   UNL     1      -2.231   2.472 -33.286  1.00  0.00     0.169 HD
BRANCH   8  11
HETATM   11  C   UNL     1      -4.374   1.278 -32.482  1.00  0.00     0.037 A 
HETATM   12  C   UNL     1      -3.403   0.356 -32.054  1.00  0.00     0.054 A 
HETATM   13  C   UNL     1      -3.632  -1.014 -32.155  1.00  0.00     0.071 A 
HETATM   14  C   UNL     1      -4.831  -1.461 -32.708  1.00  0.00     0.073 A 
HETATM   15  C   UNL     1      -5.812  -0.561 -33.133  1.00  0.00     0.071 A 
HETATM   16  C   UNL     1      -5.589   0.812 -33.006  1.00  0.00     0.054 A 
BRANCH  13  17
HETATM   17  O   UNL     1      -2.772  -2.002 -31.764  1.00  0.00    -0.356 OA
HETATM   18  C   UNL     1      -3.150  -3.339 -32.072  1.00  0.00     0.210 C 
ENDBRANCH  13  17
BRANCH  15  19
HETATM   19  O   UNL     1      -6.939  -1.150 -33.637  1.00  0.00    -0.356 OA
HETATM   20  C   UNL     1      -6.772  -2.328 -34.415  1.00  0.00     0.210 C 
ENDBRANCH  15  19
ENDBRANCH   8  11
ENDBRANCH   3   7
BRANCH   1  21
HETATM   21  C   UNL     1      -0.691   6.864 -30.266  1.00  0.00     0.181 A 
HETATM   22  O   UNL     1      -1.529   6.852 -29.179  1.00  0.00    -0.289 OA
HETATM   23  C   UNL     1      -0.778   7.384 -28.175  1.00  0.00     0.106 A 
HETATM   24  C   UNL     1       0.466   7.694 -28.696  1.00  0.00     0.094 A 
HETATM   25  C   UNL     1      -1.158   7.584 -26.857  1.00  0.00     0.040 A 
HETATM   26  C   UNL     1       1.437   8.243 -27.847  1.00  0.00     0.041 A 
HETATM   27  N   UNL     1       0.507   7.374 -30.030  1.00  0.00    -0.221 NA
HETATM   28  C   UNL     1       1.110   8.444 -26.490  1.00  0.00    -0.060 A 
HETATM   29  C   UNL     1       2.123   9.043 -25.556  1.00  0.00     0.048 C 
HETATM   30  C   UNL     1      -0.178   8.130 -26.018  1.00  0.00     0.009 A 
ENDBRANCH   1  21
TORSDOF 5
ENDMDL
MODEL 4
REMARK VINA RESULT:      -9.0      3.211      6.459
REMARK  5 active torsions:
REMARK  status: ('A' for Active; 'I' for Inactive)
REMARK    1  A    between atoms: C_7  and  C_8 
REMARK    2  A    between atoms: C_10  and  N_11 
REMARK       I    between atoms: N_11  and  C_12 
REMARK    3  A    between atoms: C_12  and  C_13 
REMARK    4  A    between atoms: C_15  and  O_16 
REMARK    5  A    between atoms: C_19  and  O_20 
ROOT
HETATM    1  C   UNL     1      -4.415   1.844 -32.582  1.00  0.00     0.019 A 
HETATM    2  C   UNL     1      -5.703   2.115 -33.078  1.00  0.00     0.045 A 
HETATM    3  C   UNL     1      -6.660   1.104 -33.202  1.00  0.00     0.035 A 
HETATM    4  C   UNL     1      -6.314  -0.202 -32.837  1.00  0.00     0.029 A 
HETATM    5  C   UNL     1      -5.032  -0.494 -32.366  1.00  0.00     0.003 A 
HETATM    6  C   UNL     1      -4.091   0.526 -32.235  1.00  0.00     0.016 A 
ENDROOT
BRANCH   3   7
HETATM    7  N   UNL     1      -7.987   1.320 -33.646  1.00  0.00    -0.323 N 
HETATM    8  C   UNL     1      -9.111   1.504 -32.858  1.00  0.00     0.256 C 
HETATM    9  O   UNL     1      -9.120   1.569 -31.632  1.00  0.00    -0.267 OA
HETATM   10  H   UNL     1      -8.104   1.302 -34.647  1.00  0.00     0.169 HD
BRANCH   8  11
HETATM   11  C   UNL     1     -10.426   1.619 -33.567  1.00  0.00     0.037 A 
HETATM   12  C   UNL     1     -10.591   2.717 -34.430  1.00  0.00     0.054 A 
HETATM   13  C   UNL     1     -11.781   2.897 -35.130  1.00  0.00     0.071 A 
HETATM   14  C   UNL     1     -12.819   1.984 -34.948  1.00  0.00     0.073 A 
HETATM   15  C   UNL     1     -12.673   0.881 -34.102  1.00  0.00     0.071 A 
HETATM   16  C   UNL     1     -11.468   0.690 -33.421  1.00  0.00     0.054 A 
BRANCH  13  17
HETATM   17  O   UNL     1     -12.053   3.915 -36.001  1.00  0.00    -0.356 OA
HETATM   18  C   UNL     1     -12.769   5.030 -35.480  1.00  0.00     0.210 C 
ENDBRANCH  13  17
BRANCH  15  19
HETATM   19  O   UNL     1     -13.770   0.067 -34.040  1.00  0.00    -0.356 OA
HETATM   20  C   UNL     1     -15.041   0.659 -34.278  1.00  0.00     0.210 C 
ENDBRANCH  15  19
ENDBRANCH   8  11
ENDBRANCH   3   7
BRANCH   1  21
HETATM   21  C   UNL     1      -3.430   2.907 -32.384  1.00  0.00     0.181 A 
HETATM   22  O   UNL     1      -3.305   3.824 -33.397  1.00  0.00    -0.289 OA
HETATM   23  C   UNL     1      -2.381   4.710 -32.932  1.00  0.00     0.106 A 
HETATM   24  C   UNL     1      -1.990   4.291 -31.673  1.00  0.00     0.094 A 
HETATM   25  C   UNL     1      -1.904   5.842 -33.575  1.00  0.00     0.040 A 
HETATM   26  C   UNL     1      -1.049   5.055 -30.967  1.00  0.00     0.041 A 
HETATM   27  N   UNL     1      -2.652   3.135 -31.338  1.00  0.00    -0.221 NA
HETATM   28  C   UNL     1      -0.551   6.230 -31.565  1.00  0.00    -0.060 A 
HETATM   29  C   UNL     1       0.469   7.063 -30.843  1.00  0.00     0.048 C 
HETATM   30  C   UNL     1      -0.967   6.597 -32.858  1.00  0.00     0.009 A 
ENDBRANCH   1  21
TORSDOF 5
ENDMDL
MODEL 5
REMARK VINA RESULT:      -9.0      3.208     10.738
REMARK  5 active torsions:
REMARK  status: ('A' for Active; 'I' for Inactive)
REMARK    1  A    between atoms: C_7  and  C_8 
REMARK    2  A    between atoms: C_10  and  N_11 
REMARK       I    between atoms: N_11  and  C_12 
REMARK    3  A    between atoms: C_12  and  C_13 
REMARK    4  A    between atoms: C_15  and  O_16 
REMARK    5  A    between atoms: C_19  and  O_20 
ROOT
HETATM    1  C   UNL     1      -7.770   0.707 -33.212  1.00  0.00     0.019 A 
HETATM    2  C   UNL     1      -6.967   1.809 -32.865  1.00  0.00     0.045 A 
HETATM    3  C   UNL     1      -5.585   1.675 -32.699  1.00  0.00     0.035 A 
HETATM    4  C   UNL     1      -5.004   0.413 -32.868  1.00  0.00     0.029 A 
HETATM    5  C   UNL     1      -5.790  -0.697 -33.188  1.00  0.00     0.003 A 
HETATM    6  C   UNL     1      -7.164  -0.548 -33.364  1.00  0.00     0.016 A 
ENDROOT
BRANCH   3   7
HETATM    7  N   UNL     1      -4.716   2.752 -32.401  1.00  0.00    -0.323 N 
HETATM    8  C   UNL     1      -4.496   3.883 -33.169  1.00  0.00     0.256 C 
HETATM    9  O   UNL     1      -5.076   4.160 -34.214  1.00  0.00    -0.267 OA
HETATM   10  H   UNL     1      -4.189   2.643 -31.548  1.00  0.00     0.169 HD
BRANCH   8  11
HETATM   11  C   UNL     1      -3.450   4.840 -32.683  1.00  0.00     0.037 A 
HETATM   12  C   UNL     1      -2.270   4.283 -32.160  1.00  0.00     0.054 A 
HETATM   13  C   UNL     1      -1.246   5.102 -31.689  1.00  0.00     0.071 A 
HETATM   14  C   UNL     1      -1.415   6.485 -31.724  1.00  0.00     0.073 A 
HETATM   15  C   UNL     1      -2.576   7.059 -32.247  1.00  0.00     0.071 A 
HETATM   16  C   UNL     1      -3.591   6.235 -32.742  1.00  0.00     0.054 A 
BRANCH  13  17
HETATM   17  O   UNL     1      -0.054   4.677 -31.171  1.00  0.00    -0.356 OA
HETATM   18  C   UNL     1       0.396   5.325 -29.986  1.00  0.00     0.210 C 
ENDBRANCH  13  17
BRANCH  15  19
HETATM   19  O   UNL     1      -2.589   8.427 -32.228  1.00  0.00    -0.356 OA
HETATM   20  C   UNL     1      -2.341   9.068 -30.984  1.00  0.00     0.210 C 
ENDBRANCH  15  19
ENDBRANCH   8  11
ENDBRANCH   3   7
BRANCH   1  21
HETATM   21  C   UNL     1      -9.206   0.851 -33.455  1.00  0.00     0.181 A 
HETATM   22  O   UNL     1      -9.594   1.926 -34.216  1.00  0.00    -0.289 OA
HETATM   23  C   UNL     1     -10.944   1.784 -34.326  1.00  0.00     0.106 A 
HETATM   24  C   UNL     1     -11.308   0.645 -33.630  1.00  0.00     0.094 A 
HETATM   25  C   UNL     1     -11.822   2.610 -35.011  1.00  0.00     0.040 A 
HETATM   26  C   UNL     1     -12.658   0.268 -33.609  1.00  0.00     0.041 A 
HETATM   27  N   UNL     1     -10.198   0.066 -33.067  1.00  0.00    -0.221 NA
HETATM   28  C   UNL     1     -13.590   1.059 -34.311  1.00  0.00    -0.060 A 
HETATM   29  C   UNL     1     -15.046   0.692 -34.297  1.00  0.00     0.048 C 
HETATM   30  C   UNL     1     -13.167   2.221 -34.984  1.00  0.00     0.009 A 
ENDBRANCH   1  21
TORSDOF 5
ENDMDL
MODEL 6
REMARK VINA RESULT:      -9.0      3.238      6.349
REMARK  5 active torsions:
REMARK  status: ('A' for Active; 'I' for Inactive)
REMARK    1  A    between atoms: C_7  and  C_8 
REMARK    2  A    between atoms: C_10  and  N_11 
REMARK       I    between atoms: N_11  and  C_12 
REMARK    3  A    between atoms: C_12  and  C_13 
REMARK    4  A    between atoms: C_15  and  O_16 
REMARK    5  A    between atoms: C_19  and  O_20 
ROOT
HETATM    1  C   UNL     1      -4.353   2.005 -32.697  1.00  0.00     0.019 A 
HETATM    2  C   UNL     1      -5.641   2.321 -33.166  1.00  0.00     0.045 A 
HETATM    3  C   UNL     1      -6.612   1.330 -33.342  1.00  0.00     0.035 A 
HETATM    4  C   UNL     1      -6.279   0.001 -33.058  1.00  0.00     0.029 A 
HETATM    5  C   UNL     1      -4.997  -0.334 -32.614  1.00  0.00     0.003 A 
HETATM    6  C   UNL     1      -4.043   0.665 -32.430  1.00  0.00     0.016 A 
ENDROOT
BRANCH   3   7
HETATM    7  N   UNL     1      -7.939   1.589 -33.763  1.00  0.00    -0.323 N 
HETATM    8  C   UNL     1      -9.091   1.476 -33.003  1.00  0.00     0.256 C 
HETATM    9  O   UNL     1      -9.134   1.189 -31.811  1.00  0.00    -0.267 OA
HETATM   10  H   UNL     1      -8.029   1.850 -34.732  1.00  0.00     0.169 HD
BRANCH   8  11
HETATM   11  C   UNL     1     -10.394   1.713 -33.706  1.00  0.00     0.037 A 
HETATM   12  C   UNL     1     -11.424   0.786 -33.469  1.00  0.00     0.054 A 
HETATM   13  C   UNL     1     -12.666   0.935 -34.080  1.00  0.00     0.071 A 
HETATM   14  C   UNL     1     -12.870   2.005 -34.950  1.00  0.00     0.073 A 
HETATM   15  C   UNL     1     -11.863   2.942 -35.192  1.00  0.00     0.071 A 
HETATM   16  C   UNL     1     -10.625   2.804 -34.558  1.00  0.00     0.054 A 
BRANCH  13  17
HETATM   17  O   UNL     1     -13.743   0.107 -33.919  1.00  0.00    -0.356 OA
HETATM   18  C   UNL     1     -15.014   0.631 -34.289  1.00  0.00     0.210 C 
ENDBRANCH  13  17
BRANCH  15  19
HETATM   19  O   UNL     1     -12.217   3.943 -36.054  1.00  0.00    -0.356 OA
HETATM   20  C   UNL     1     -12.840   5.095 -35.501  1.00  0.00     0.210 C 
ENDBRANCH  15  19
ENDBRANCH   8  11
ENDBRANCH   3   7
BRANCH   1  21
HETATM   21  C   UNL     1      -3.354   3.043 -32.444  1.00  0.00     0.181 A 
HETATM   22  O   UNL     1      -3.190   3.989 -33.425  1.00  0.00    -0.289 OA
HETATM   23  C   UNL     1      -2.261   4.842 -32.911  1.00  0.00     0.106 A 
HETATM   24  C   UNL     1      -1.905   4.376 -31.658  1.00  0.00     0.094 A 
HETATM   25  C   UNL     1      -1.749   5.985 -33.508  1.00  0.00     0.040 A 
HETATM   26  C   UNL     1      -0.966   5.100 -30.909  1.00  0.00     0.041 A 
HETATM   27  N   UNL     1      -2.594   3.223 -31.375  1.00  0.00    -0.221 NA
HETATM   28  C   UNL     1      -0.433   6.284 -31.458  1.00  0.00    -0.060 A 
HETATM   29  C   UNL     1       0.585   7.074 -30.688  1.00  0.00     0.048 C 
HETATM   30  C   UNL     1      -0.815   6.700 -32.747  1.00  0.00     0.009 A 
ENDBRANCH   1  21
TORSDOF 5
ENDMDL
MODEL 7
REMARK VINA RESULT:      -8.7      2.522     10.075
REMARK  5 active torsions:
REMARK  status: ('A' for Active; 'I' for Inactive)
REMARK    1  A    between atoms: C_7  and  C_8 
REMARK    2  A    between atoms: C_10  and  N_11 
REMARK       I    between atoms: N_11  and  C_12 
REMARK    3  A    between atoms: C_12  and  C_13 
REMARK    4  A    between atoms: C_15  and  O_16 
REMARK    5  A    between atoms: C_19  and  O_20 
ROOT
HETATM    1  C   UNL     1      -6.563   1.743 -31.643  1.00  0.00     0.019 A 
HETATM    2  C   UNL     1      -5.482   2.611 -31.399  1.00  0.00     0.045 A 
HETATM    3  C   UNL     1      -5.622   3.729 -30.571  1.00  0.00     0.035 A 
HETATM    4  C   UNL     1      -6.870   3.989 -29.993  1.00  0.00     0.029 A 
HETATM    5  C   UNL     1      -7.960   3.152 -30.244  1.00  0.00     0.003 A 
HETATM    6  C   UNL     1      -7.804   2.033 -31.061  1.00  0.00     0.016 A 
ENDROOT
BRANCH   3   7
HETATM    7  N   UNL     1      -4.563   4.610 -30.246  1.00  0.00    -0.323 N 
HETATM    8  C   UNL     1      -4.207   5.770 -30.914  1.00  0.00     0.256 C 
HETATM    9  O   UNL     1      -4.805   6.253 -31.871  1.00  0.00    -0.267 OA
HETATM   10  H   UNL     1      -4.002   4.321 -29.459  1.00  0.00     0.169 HD
BRANCH   8  11
HETATM   11  C   UNL     1      -2.981   6.483 -30.431  1.00  0.00     0.037 A 
HETATM   12  C   UNL     1      -1.749   5.835 -30.624  1.00  0.00     0.054 A 
HETATM   13  C   UNL     1      -0.561   6.430 -30.207  1.00  0.00     0.071 A 
HETATM   14  C   UNL     1      -0.611   7.671 -29.574  1.00  0.00     0.073 A 
HETATM   15  C   UNL     1      -1.824   8.336 -29.380  1.00  0.00     0.071 A 
HETATM   16  C   UNL     1      -3.011   7.748 -29.823  1.00  0.00     0.054 A 
BRANCH  13  17
HETATM   17  O   UNL     1       0.693   5.903 -30.349  1.00  0.00    -0.356 OA
HETATM   18  C   UNL     1       0.996   4.751 -29.570  1.00  0.00     0.210 C 
ENDBRANCH  13  17
BRANCH  15  19
HETATM   19  O   UNL     1      -1.710   9.550 -28.761  1.00  0.00    -0.356 OA
HETATM   20  C   UNL     1      -0.769   9.661 -27.700  1.00  0.00     0.210 C 
ENDBRANCH  15  19
ENDBRANCH   8  11
ENDBRANCH   3   7
BRANCH   1  21
HETATM   21  C   UNL     1      -6.407   0.534 -32.451  1.00  0.00     0.181 A 
HETATM   22  O   UNL     1      -5.123   0.099 -32.664  1.00  0.00    -0.289 OA
HETATM   23  C   UNL     1      -5.276  -1.048 -33.381  1.00  0.00     0.106 A 
HETATM   24  C   UNL     1      -6.631  -1.251 -33.572  1.00  0.00     0.094 A 
HETATM   25  C   UNL     1      -4.274  -1.889 -33.845  1.00  0.00     0.040 A 
HETATM   26  C   UNL     1      -7.053  -2.389 -34.275  1.00  0.00     0.041 A 
HETATM   27  N   UNL     1      -7.342  -0.232 -32.990  1.00  0.00    -0.221 NA
HETATM   28  C   UNL     1      -6.076  -3.290 -34.746  1.00  0.00    -0.060 A 
HETATM   29  C   UNL     1      -6.493  -4.511 -35.515  1.00  0.00     0.048 C 
HETATM   30  C   UNL     1      -4.709  -3.023 -34.542  1.00  0.00     0.009 A 
ENDBRANCH   1  21
TORSDOF 5
ENDMDL
MODEL 8
REMARK VINA RESULT:      -8.3      2.108      2.971
REMARK  5 active torsions:
REMARK  status: ('A' for Active; 'I' for Inactive)
REMARK    1  A    between atoms: C_7  and  C_8 
REMARK    2  A    between atoms: C_10  and  N_11 
REMARK       I    between atoms: N_11  and  C_12 
REMARK    3  A    between atoms: C_12  and  C_13 
REMARK    4  A    between atoms: C_15  and  O_16 
REMARK    5  A    between atoms: C_19  and  O_20 
ROOT
HETATM    1  C   UNL     1      -3.562   6.274 -31.026  1.00  0.00     0.019 A 
HETATM    2  C   UNL     1      -3.495   4.890 -31.269  1.00  0.00     0.045 A 
HETATM    3  C   UNL     1      -4.370   4.269 -32.166  1.00  0.00     0.035 A 
HETATM    4  C   UNL     1      -5.337   5.046 -32.815  1.00  0.00     0.029 A 
HETATM    5  C   UNL     1      -5.432   6.417 -32.566  1.00  0.00     0.003 A 
HETATM    6  C   UNL     1      -4.546   7.027 -31.680  1.00  0.00     0.016 A 
ENDROOT
BRANCH   3   7
HETATM    7  N   UNL     1      -4.322   2.892 -32.492  1.00  0.00    -0.323 N 
HETATM    8  C   UNL     1      -5.221   1.912 -32.107  1.00  0.00     0.256 C 
HETATM    9  O   UNL     1      -6.249   2.099 -31.463  1.00  0.00    -0.267 OA
HETATM   10  H   UNL     1      -3.520   2.617 -33.038  1.00  0.00     0.169 HD
BRANCH   8  11
HETATM   11  C   UNL     1      -4.899   0.502 -32.502  1.00  0.00     0.037 A 
HETATM   12  C   UNL     1      -5.660  -0.058 -33.543  1.00  0.00     0.054 A 
HETATM   13  C   UNL     1      -5.424  -1.361 -33.974  1.00  0.00     0.071 A 
HETATM   14  C   UNL     1      -4.434  -2.113 -33.343  1.00  0.00     0.073 A 
HETATM   15  C   UNL     1      -3.660  -1.573 -32.313  1.00  0.00     0.071 A 
HETATM   16  C   UNL     1      -3.883  -0.257 -31.900  1.00  0.00     0.054 A 
BRANCH  13  17
HETATM   17  O   UNL     1      -6.089  -2.007 -34.979  1.00  0.00    -0.356 OA
HETATM   18  C   UNL     1      -6.069  -3.429 -34.950  1.00  0.00     0.210 C 
ENDBRANCH  13  17
BRANCH  15  19
HETATM   19  O   UNL     1      -2.719  -2.427 -31.805  1.00  0.00    -0.356 OA
HETATM   20  C   UNL     1      -3.010  -3.818 -31.837  1.00  0.00     0.210 C 
ENDBRANCH  15  19
ENDBRANCH   8  11
ENDBRANCH   3   7
BRANCH   1  21
HETATM   21  C   UNL     1      -2.607   6.944 -30.143  1.00  0.00     0.181 A 
HETATM   22  O   UNL     1      -1.303   6.521 -30.216  1.00  0.00    -0.289 OA
HETATM   23  C   UNL     1      -0.641   7.335 -29.348  1.00  0.00     0.106 A 
HETATM   24  C   UNL     1      -1.565   8.201 -28.791  1.00  0.00     0.094 A 
HETATM   25  C   UNL     1       0.715   7.328 -29.058  1.00  0.00     0.040 A 
HETATM   26  C   UNL     1      -1.123   9.161 -27.870  1.00  0.00     0.041 A 
HETATM   27  N   UNL     1      -2.815   7.935 -29.292  1.00  0.00    -0.221 NA
HETATM   28  C   UNL     1       0.251   9.214 -27.559  1.00  0.00    -0.060 A 
HETATM   29  C   UNL     1       0.756  10.221 -26.565  1.00  0.00     0.048 C 
HETATM   30  C   UNL     1       1.144   8.294 -28.138  1.00  0.00     0.009 A 
ENDBRANCH   1  21
TORSDOF 5
ENDMDL
MODEL 9
REMARK VINA RESULT:      -8.3      2.359      9.803
REMARK  5 active torsions:
REMARK  status: ('A' for Active; 'I' for Inactive)
REMARK    1  A    between atoms: C_7  and  C_8 
REMARK    2  A    between atoms: C_10  and  N_11 
REMARK       I    between atoms: N_11  and  C_12 
REMARK    3  A    between atoms: C_12  and  C_13 
REMARK    4  A    between atoms: C_15  and  O_16 
REMARK    5  A    between atoms: C_19  and  O_20 
ROOT
HETATM    1  C   UNL     1      -5.433   2.507 -33.082  1.00  0.00     0.019 A 
HETATM    2  C   UNL     1      -4.655   3.242 -32.170  1.00  0.00     0.045 A 
HETATM    3  C   UNL     1      -4.882   4.606 -31.957  1.00  0.00     0.035 A 
HETATM    4  C   UNL     1      -5.894   5.243 -32.682  1.00  0.00     0.029 A 
HETATM    5  C   UNL     1      -6.661   4.534 -33.610  1.00  0.00     0.003 A 
HETATM    6  C   UNL     1      -6.433   3.172 -33.804  1.00  0.00     0.016 A 
ENDROOT
BRANCH   3   7
HETATM    7  N   UNL     1      -4.169   5.389 -31.018  1.00  0.00    -0.323 N 
HETATM    8  C   UNL     1      -2.981   6.070 -31.230  1.00  0.00     0.256 C 
HETATM    9  O   UNL     1      -2.387   6.150 -32.300  1.00  0.00    -0.267 OA
HETATM   10  H   UNL     1      -4.573   5.410 -30.094  1.00  0.00     0.169 HD
BRANCH   8  11
HETATM   11  C   UNL     1      -2.370   6.753 -30.044  1.00  0.00     0.037 A 
HETATM   12  C   UNL     1      -0.975   6.930 -30.060  1.00  0.00     0.054 A 
HETATM   13  C   UNL     1      -0.327   7.558 -28.999  1.00  0.00     0.071 A 
HETATM   14  C   UNL     1      -1.078   7.992 -27.908  1.00  0.00     0.073 A 
HETATM   15  C   UNL     1      -2.466   7.834 -27.876  1.00  0.00     0.071 A 
HETATM   16  C   UNL     1      -3.116   7.226 -28.953  1.00  0.00     0.054 A 
BRANCH  13  17
HETATM   17  O   UNL     1       1.017   7.795 -28.908  1.00  0.00    -0.356 OA
HETATM   18  C   UNL     1       1.454   8.589 -27.810  1.00  0.00     0.210 C 
ENDBRANCH  13  17
BRANCH  15  19
HETATM   19  O   UNL     1      -3.065   8.324 -26.748  1.00  0.00    -0.356 OA
HETATM   20  C   UNL     1      -4.170   7.598 -26.224  1.00  0.00     0.210 C 
ENDBRANCH  15  19
ENDBRANCH   8  11
ENDBRANCH   3   7
BRANCH   1  21
HETATM   21  C   UNL     1      -5.249   1.067 -33.261  1.00  0.00     0.181 A 
HETATM   22  O   UNL     1      -6.138   0.433 -34.092  1.00  0.00    -0.289 OA
HETATM   23  C   UNL     1      -5.705  -0.858 -34.117  1.00  0.00     0.106 A 
HETATM   24  C   UNL     1      -4.590  -0.947 -33.305  1.00  0.00     0.094 A 
HETATM   25  C   UNL     1      -6.257  -1.915 -34.826  1.00  0.00     0.040 A 
HETATM   26  C   UNL     1      -3.941  -2.184 -33.177  1.00  0.00     0.041 A 
HETATM   27  N   UNL     1      -4.315   0.279 -32.752  1.00  0.00    -0.221 NA
HETATM   28  C   UNL     1      -4.447  -3.286 -33.897  1.00  0.00    -0.060 A 
HETATM   29  C   UNL     1      -3.785  -4.629 -33.772  1.00  0.00     0.048 C 
HETATM   30  C   UNL     1      -5.599  -3.144 -34.693  1.00  0.00     0.009 A 
ENDBRANCH   1  21
TORSDOF 5
ENDMDL
MODEL 10
REMARK VINA RESULT:      -8.2      2.198      2.772
REMARK  5 active torsions:
REMARK  status: ('A' for Active; 'I' for Inactive)
REMARK    1  A    between atoms: C_7  and  C_8 
REMARK    2  A    between atoms: C_10  and  N_11 
REMARK       I    between atoms: N_11  and  C_12 
REMARK    3  A    between atoms: C_12  and  C_13 
REMARK    4  A    between atoms: C_15  and  O_16 
REMARK    5  A    between atoms: C_19  and  O_20 
ROOT
HETATM    1  C   UNL     1      -3.822   6.488 -30.815  1.00  0.00     0.019 A 
HETATM    2  C   UNL     1      -3.788   5.120 -31.144  1.00  0.00     0.045 A 
HETATM    3  C   UNL     1      -4.744   4.556 -31.994  1.00  0.00     0.035 A 
HETATM    4  C   UNL     1      -5.758   5.372 -32.507  1.00  0.00     0.029 A 
HETATM    5  C   UNL     1      -5.821   6.727 -32.170  1.00  0.00     0.003 A 
HETATM    6  C   UNL     1      -4.855   7.280 -31.333  1.00  0.00     0.016 A 
ENDROOT
BRANCH   3   7
HETATM    7  N   UNL     1      -4.736   3.201 -32.404  1.00  0.00    -0.323 N 
HETATM    8  C   UNL     1      -5.219   2.112 -31.697  1.00  0.00     0.256 C 
HETATM    9  O   UNL     1      -5.795   2.164 -30.614  1.00  0.00    -0.267 OA
HETATM   10  H   UNL     1      -4.296   3.034 -33.296  1.00  0.00     0.169 HD
BRANCH   8  11
HETATM   11  C   UNL     1      -5.007   0.759 -32.306  1.00  0.00     0.037 A 
HETATM   12  C   UNL     1      -3.964  -0.021 -31.777  1.00  0.00     0.054 A 
HETATM   13  C   UNL     1      -3.701  -1.292 -32.283  1.00  0.00     0.071 A 
HETATM   14  C   UNL     1      -4.473  -1.774 -33.338  1.00  0.00     0.073 A 
HETATM   15  C   UNL     1      -5.521  -1.018 -33.873  1.00  0.00     0.071 A 
HETATM   16  C   UNL     1      -5.798   0.246 -33.345  1.00  0.00     0.054 A 
BRANCH  13  17
HETATM   17  O   UNL     1      -2.725  -2.143 -31.844  1.00  0.00    -0.356 OA
HETATM   18  C   UNL     1      -3.029  -3.533 -31.869  1.00  0.00     0.210 C 
ENDBRANCH  13  17
BRANCH  15  19
HETATM   19  O   UNL     1      -6.197  -1.631 -34.891  1.00  0.00    -0.356 OA
HETATM   20  C   UNL     1      -6.749  -2.916 -34.632  1.00  0.00     0.210 C 
ENDBRANCH  15  19
ENDBRANCH   8  11
ENDBRANCH   3   7
BRANCH   1  21
HETATM   21  C   UNL     1      -2.787   7.101 -29.983  1.00  0.00     0.181 A 
HETATM   22  O   UNL     1      -1.525   6.571 -30.083  1.00  0.00    -0.289 OA
HETATM   23  C   UNL     1      -0.770   7.352 -29.262  1.00  0.00     0.106 A 
HETATM   24  C   UNL     1      -1.601   8.307 -28.705  1.00  0.00     0.094 A 
HETATM   25  C   UNL     1       0.590   7.242 -29.014  1.00  0.00     0.040 A 
HETATM   26  C   UNL     1      -1.052   9.254 -27.827  1.00  0.00     0.041 A 
HETATM   27  N   UNL     1      -2.885   8.131 -29.158  1.00  0.00    -0.221 NA
HETATM   28  C   UNL     1       0.331   9.202 -27.561  1.00  0.00    -0.060 A 
HETATM   29  C   UNL     1       0.949  10.192 -26.615  1.00  0.00     0.048 C 
HETATM   30  C   UNL     1       1.126   8.195 -28.139  1.00  0.00     0.009 A 
ENDBRANCH   1  21
TORSDOF 5
ENDMDL
