MODEL 1
REMARK VINA RESULT:      -9.8      0.000      0.000
REMARK  7 active torsions:
REMARK  status: ('A' for Active; 'I' for Inactive)
REMARK    1  A    between atoms: C_2  and  C_3 
REMARK    2  A    between atoms: C_3  and  C_4 
REMARK    3  A    between atoms: C_7  and  C_8 
REMARK    4  A    between atoms: C_14  and  C_15 
REMARK    5  A    between atoms: C_18  and  O_19 
REMARK    6  A    between atoms: O_19  and  C_20 
REMARK       I    between atoms: C_20  and  N_21 
REMARK    7  A    between atoms: C_33  and  N_34 
ROOT
HETATM    1  C   UNL     1      -9.734   0.434 -33.433  1.00  0.00     0.099 A 
HETATM    2  N   UNL     1     -10.698  -0.378 -32.955  1.00  0.00    -0.172 NA
HETATM    3  N   UNL     1     -11.828   0.351 -33.025  1.00  0.00    -0.256 N 
HETATM    4  H   UNL     1     -12.699  -0.068 -32.716  1.00  0.00     0.191 HD
HETATM    5  C   UNL     1     -11.621   1.600 -33.507  1.00  0.00     0.175 A 
HETATM    6  C   UNL     1     -10.282   1.698 -33.790  1.00  0.00     0.040 A 
HETATM    7  C   UNL     1      -9.733   2.984 -34.315  1.00  0.00     0.105 A 
HETATM    8  C   UNL     1     -10.859   3.986 -34.541  1.00  0.00     0.067 A 
HETATM    9  C   UNL     1     -10.481   5.245 -35.307  1.00  0.00     0.020 C 
HETATM   10  N   UNL     1     -10.168   6.288 -35.941  1.00  0.00    -0.096 N 
HETATM   11  C   UNL     1     -12.159   3.745 -34.224  1.00  0.00     0.139 A 
HETATM   12  O   UNL     1     -12.562   2.528 -33.644  1.00  0.00    -0.279 OA
ENDROOT
BRANCH   7  13
HETATM   13  C   UNL     1      -8.695   3.450 -33.303  1.00  0.00    -0.044 A 
HETATM   14  C   UNL     1      -7.390   3.733 -33.744  1.00  0.00     0.011 A 
HETATM   15  C   UNL     1      -6.380   4.036 -32.830  1.00  0.00     0.038 A 
HETATM   16  C   UNL     1      -6.669   4.074 -31.468  1.00  0.00     0.081 A 
HETATM   17  C   UNL     1      -7.964   3.853 -31.010  1.00  0.00     0.038 A 
HETATM   18  C   UNL     1      -8.976   3.565 -31.928  1.00  0.00     0.011 A 
BRANCH  16  19
HETATM   19  O   UNL     1      -5.554   4.187 -30.612  1.00  0.00    -0.261 OA
BRANCH  19  20
HETATM   20  C   UNL     1      -4.287   3.699 -30.926  1.00  0.00     0.368 C 
HETATM   21  N   UNL     1      -3.409   4.713 -31.267  1.00  0.00    -0.324 N 
HETATM   22  C   UNL     1      -2.002   4.411 -31.507  1.00  0.00     0.154 C 
HETATM   23  C   UNL     1      -3.729   6.137 -31.161  1.00  0.00     0.154 C 
HETATM   24  C   UNL     1      -1.444   5.272 -32.643  1.00  0.00     0.187 C 
HETATM   25  O   UNL     1      -1.686   6.668 -32.402  1.00  0.00    -0.388 OA
HETATM   26  C   UNL     1      -3.095   6.926 -32.311  1.00  0.00     0.187 C 
HETATM   27  O   UNL     1      -3.981   2.512 -30.916  1.00  0.00    -0.238 OA
ENDBRANCH  19  20
ENDBRANCH  16  19
ENDBRANCH   7  13
BRANCH  11  28
HETATM   28  N   UNL     1     -13.206   4.609 -34.439  1.00  0.00    -0.282 NA
HETATM   29  H   UNL     1     -14.101   4.170 -34.644  1.00  0.00     0.126 HD
HETATM   30  H   UNL     1     -12.966   5.343 -35.102  1.00  0.00     0.126 HD
ENDBRANCH  11  28
BRANCH   1  31
HETATM   31  C   UNL     1      -8.336   0.004 -33.470  1.00  0.00    -0.005 A 
HETATM   32  C   UNL     1      -7.520   0.082 -32.337  1.00  0.00     0.014 A 
HETATM   33  C   UNL     1      -6.212  -0.414 -32.370  1.00  0.00     0.008 A 
HETATM   34  C   UNL     1      -5.689  -0.981 -33.540  1.00  0.00    -0.058 A 
HETATM   35  C   UNL     1      -6.489  -1.012 -34.686  1.00  0.00     0.008 A 
HETATM   36  C   UNL     1      -7.801  -0.529 -34.650  1.00  0.00     0.014 A 
BRANCH  34  37
HETATM   37  C   UNL     1      -4.283  -1.535 -33.554  1.00  0.00     0.042 C 
BRANCH  37  38
HETATM   38  C   UNL     1      -3.636  -1.813 -32.179  1.00  0.00    -0.019 C 
HETATM   39  C   UNL     1      -2.553  -0.799 -31.810  1.00  0.00     0.010 C 
HETATM   40  C   UNL     1      -3.095  -3.237 -32.048  1.00  0.00     0.010 C 
ENDBRANCH  37  38
ENDBRANCH  34  37
ENDBRANCH   1  31
TORSDOF 7
ENDMDL
MODEL 2
REMARK VINA RESULT:      -9.4      0.862      1.295
REMARK  7 active torsions:
REMARK  status: ('A' for Active; 'I' for Inactive)
REMARK    1  A    between atoms: C_2  and  C_3 
REMARK    2  A    between atoms: C_3  and  C_4 
REMARK    3  A    between atoms: C_7  and  C_8 
REMARK    4  A    between atoms: C_14  and  C_15 
REMARK    5  A    between atoms: C_18  and  O_19 
REMARK    6  A    between atoms: O_19  and  C_20 
REMARK       I    between atoms: C_20  and  N_21 
REMARK    7  A    between atoms: C_33  and  N_34 
ROOT
HETATM    1  C   UNL     1      -9.904   0.741 -33.550  1.00  0.00     0.099 A 
HETATM    2  N   UNL     1     -10.886  -0.061 -33.093  1.00  0.00    -0.172 NA
HETATM    3  N   UNL     1     -12.002   0.691 -33.153  1.00  0.00    -0.256 N 
HETATM    4  H   UNL     1     -12.882   0.284 -32.856  1.00  0.00     0.191 HD
HETATM    5  C   UNL     1     -11.768   1.944 -33.610  1.00  0.00     0.175 A 
HETATM    6  C   UNL     1     -10.426   2.023 -33.886  1.00  0.00     0.040 A 
HETATM    7  C   UNL     1      -9.850   3.307 -34.383  1.00  0.00     0.105 A 
HETATM    8  C   UNL     1     -10.955   4.336 -34.594  1.00  0.00     0.067 A 
HETATM    9  C   UNL     1     -10.549   5.601 -35.334  1.00  0.00     0.020 C 
HETATM   10  N   UNL     1     -10.214   6.650 -35.946  1.00  0.00    -0.096 N 
HETATM   11  C   UNL     1     -12.261   4.113 -34.287  1.00  0.00     0.139 A 
HETATM   12  O   UNL     1     -12.691   2.893 -33.733  1.00  0.00    -0.279 OA
ENDROOT
BRANCH   7  13
HETATM   13  C   UNL     1      -8.808   3.733 -33.358  1.00  0.00    -0.044 A 
HETATM   14  C   UNL     1      -7.498   4.012 -33.789  1.00  0.00     0.011 A 
HETATM   15  C   UNL     1      -6.487   4.277 -32.867  1.00  0.00     0.038 A 
HETATM   16  C   UNL     1      -6.777   4.283 -31.504  1.00  0.00     0.081 A 
HETATM   17  C   UNL     1      -8.075   4.066 -31.055  1.00  0.00     0.038 A 
HETATM   18  C   UNL     1      -9.090   3.816 -31.981  1.00  0.00     0.011 A 
BRANCH  16  19
HETATM   19  O   UNL     1      -5.662   4.360 -30.644  1.00  0.00    -0.261 OA
BRANCH  19  20
HETATM   20  C   UNL     1      -5.166   5.557 -30.130  1.00  0.00     0.368 C 
HETATM   21  N   UNL     1      -3.874   5.810 -30.558  1.00  0.00    -0.324 N 
HETATM   22  C   UNL     1      -3.230   7.076 -30.226  1.00  0.00     0.154 C 
HETATM   23  C   UNL     1      -3.171   4.997 -31.552  1.00  0.00     0.154 C 
HETATM   24  C   UNL     1      -1.740   6.874 -29.940  1.00  0.00     0.187 C 
HETATM   25  O   UNL     1      -1.094   6.181 -31.021  1.00  0.00    -0.388 OA
HETATM   26  C   UNL     1      -1.682   4.885 -31.211  1.00  0.00     0.187 C 
HETATM   27  O   UNL     1      -5.788   6.298 -29.377  1.00  0.00    -0.238 OA
ENDBRANCH  19  20
ENDBRANCH  16  19
ENDBRANCH   7  13
BRANCH  11  28
HETATM   28  N   UNL     1     -13.291   5.002 -34.490  1.00  0.00    -0.282 NA
HETATM   29  H   UNL     1     -13.459   5.263 -35.458  1.00  0.00     0.126 HD
HETATM   30  H   UNL     1     -13.228   5.807 -33.870  1.00  0.00     0.126 HD
ENDBRANCH  11  28
BRANCH   1  31
HETATM   31  C   UNL     1      -8.514   0.285 -33.591  1.00  0.00    -0.005 A 
HETATM   32  C   UNL     1      -7.742   0.202 -32.428  1.00  0.00     0.014 A 
HETATM   33  C   UNL     1      -6.444  -0.318 -32.474  1.00  0.00     0.008 A 
HETATM   34  C   UNL     1      -5.887  -0.749 -33.686  1.00  0.00    -0.058 A 
HETATM   35  C   UNL     1      -6.642  -0.618 -34.856  1.00  0.00     0.008 A 
HETATM   36  C   UNL     1      -7.945  -0.111 -34.807  1.00  0.00     0.014 A 
BRANCH  34  37
HETATM   37  C   UNL     1      -4.493  -1.331 -33.719  1.00  0.00     0.042 C 
BRANCH  37  38
HETATM   38  C   UNL     1      -3.870  -1.707 -32.355  1.00  0.00    -0.019 C 
HETATM   39  C   UNL     1      -2.800  -0.717 -31.892  1.00  0.00     0.010 C 
HETATM   40  C   UNL     1      -3.322  -3.134 -32.320  1.00  0.00     0.010 C 
ENDBRANCH  37  38
ENDBRANCH  34  37
ENDBRANCH   1  31
TORSDOF 7
ENDMDL
MODEL 3
REMARK VINA RESULT:      -9.3      3.502      7.881
REMARK  7 active torsions:
REMARK  status: ('A' for Active; 'I' for Inactive)
REMARK    1  A    between atoms: C_2  and  C_3 
REMARK    2  A    between atoms: C_3  and  C_4 
REMARK    3  A    between atoms: C_7  and  C_8 
REMARK    4  A    between atoms: C_14  and  C_15 
REMARK    5  A    between atoms: C_18  and  O_19 
REMARK    6  A    between atoms: O_19  and  C_20 
REMARK       I    between atoms: C_20  and  N_21 
REMARK    7  A    between atoms: C_33  and  N_34 
ROOT
HETATM    1  C   UNL     1      -5.665   5.311 -30.303  1.00  0.00     0.099 A 
HETATM    2  N   UNL     1      -5.602   5.868 -29.078  1.00  0.00    -0.172 NA
HETATM    3  N   UNL     1      -4.346   6.345 -28.979  1.00  0.00    -0.256 N 
HETATM    4  H   UNL     1      -4.069   6.818 -28.126  1.00  0.00     0.191 HD
HETATM    5  C   UNL     1      -3.600   6.095 -30.082  1.00  0.00     0.175 A 
HETATM    6  C   UNL     1      -4.412   5.433 -30.969  1.00  0.00     0.040 A 
HETATM    7  C   UNL     1      -3.860   4.989 -32.283  1.00  0.00     0.105 A 
HETATM    8  C   UNL     1      -2.422   5.471 -32.442  1.00  0.00     0.067 A 
HETATM    9  C   UNL     1      -1.820   5.311 -33.830  1.00  0.00     0.020 C 
HETATM   10  N   UNL     1      -1.320   5.178 -34.979  1.00  0.00    -0.096 N 
HETATM   11  C   UNL     1      -1.739   6.138 -31.474  1.00  0.00     0.139 A 
HETATM   12  O   UNL     1      -2.322   6.429 -30.227  1.00  0.00    -0.279 OA
ENDROOT
BRANCH   7  13
HETATM   13  C   UNL     1      -4.002   3.474 -32.317  1.00  0.00    -0.044 A 
HETATM   14  C   UNL     1      -4.998   2.898 -33.126  1.00  0.00     0.011 A 
HETATM   15  C   UNL     1      -5.245   1.526 -33.084  1.00  0.00     0.038 A 
HETATM   16  C   UNL     1      -4.488   0.713 -32.244  1.00  0.00     0.081 A 
HETATM   17  C   UNL     1      -3.459   1.249 -31.476  1.00  0.00     0.038 A 
HETATM   18  C   UNL     1      -3.204   2.620 -31.531  1.00  0.00     0.011 A 
BRANCH  16  19
HETATM   19  O   UNL     1      -4.937  -0.618 -32.118  1.00  0.00    -0.261 OA
BRANCH  19  20
HETATM   20  C   UNL     1      -4.181  -1.726 -32.492  1.00  0.00     0.368 C 
HETATM   21  N   UNL     1      -4.762  -2.423 -33.537  1.00  0.00    -0.324 N 
HETATM   22  C   UNL     1      -4.056  -3.542 -34.152  1.00  0.00     0.154 C 
HETATM   23  C   UNL     1      -5.948  -1.963 -34.262  1.00  0.00     0.154 C 
HETATM   24  C   UNL     1      -5.030  -4.656 -34.543  1.00  0.00     0.187 C 
HETATM   25  O   UNL     1      -6.097  -4.147 -35.360  1.00  0.00    -0.388 OA
HETATM   26  C   UNL     1      -6.841  -3.145 -34.651  1.00  0.00     0.187 C 
HETATM   27  O   UNL     1      -3.129  -2.060 -31.957  1.00  0.00    -0.238 OA
ENDBRANCH  19  20
ENDBRANCH  16  19
ENDBRANCH   7  13
BRANCH  11  28
HETATM   28  N   UNL     1      -0.454   6.615 -31.589  1.00  0.00    -0.282 NA
HETATM   29  H   UNL     1      -0.367   7.627 -31.645  1.00  0.00     0.126 HD
HETATM   30  H   UNL     1       0.068   6.134 -32.318  1.00  0.00     0.126 HD
ENDBRANCH  11  28
BRANCH   1  31
HETATM   31  C   UNL     1      -6.878   4.635 -30.763  1.00  0.00    -0.005 A 
HETATM   32  C   UNL     1      -7.707   5.209 -31.731  1.00  0.00     0.014 A 
HETATM   33  C   UNL     1      -8.816   4.509 -32.222  1.00  0.00     0.008 A 
HETATM   34  C   UNL     1      -9.126   3.230 -31.740  1.00  0.00    -0.058 A 
HETATM   35  C   UNL     1      -8.325   2.678 -30.735  1.00  0.00     0.008 A 
HETATM   36  C   UNL     1      -7.209   3.372 -30.256  1.00  0.00     0.014 A 
BRANCH  34  37
HETATM   37  C   UNL     1     -10.311   2.474 -32.294  1.00  0.00     0.042 C 
BRANCH  37  38
HETATM   38  C   UNL     1     -10.003   1.373 -33.334  1.00  0.00    -0.019 C 
HETATM   39  C   UNL     1      -9.833  -0.011 -32.707  1.00  0.00     0.010 C 
HETATM   40  C   UNL     1      -8.801   1.705 -34.220  1.00  0.00     0.010 C 
ENDBRANCH  37  38
ENDBRANCH  34  37
ENDBRANCH   1  31
TORSDOF 7
ENDMDL
MODEL 4
REMARK VINA RESULT:      -8.8      2.180      3.154
REMARK  7 active torsions:
REMARK  status: ('A' for Active; 'I' for Inactive)
REMARK    1  A    between atoms: C_2  and  C_3 
REMARK    2  A    between atoms: C_3  and  C_4 
REMARK    3  A    between atoms: C_7  and  C_8 
REMARK    4  A    between atoms: C_14  and  C_15 
REMARK    5  A    between atoms: C_18  and  O_19 
REMARK    6  A    between atoms: O_19  and  C_20 
REMARK       I    between atoms: C_20  and  N_21 
REMARK    7  A    between atoms: C_33  and  N_34 
ROOT
HETATM    1  C   UNL     1      -9.800   0.569 -33.518  1.00  0.00     0.099 A 
HETATM    2  N   UNL     1     -10.769  -0.263 -33.088  1.00  0.00    -0.172 NA
HETATM    3  N   UNL     1     -11.904   0.458 -33.165  1.00  0.00    -0.256 N 
HETATM    4  H   UNL     1     -12.778   0.025 -32.891  1.00  0.00     0.191 HD
HETATM    5  C   UNL     1     -11.694   1.722 -33.607  1.00  0.00     0.175 A 
HETATM    6  C   UNL     1     -10.350   1.839 -33.854  1.00  0.00     0.040 A 
HETATM    7  C   UNL     1      -9.799   3.143 -34.328  1.00  0.00     0.105 A 
HETATM    8  C   UNL     1     -10.927   4.143 -34.554  1.00  0.00     0.067 A 
HETATM    9  C   UNL     1     -10.541   5.426 -35.274  1.00  0.00     0.020 C 
HETATM   10  N   UNL     1     -10.221   6.489 -35.871  1.00  0.00    -0.096 N 
HETATM   11  C   UNL     1     -12.232   3.882 -34.276  1.00  0.00     0.139 A 
HETATM   12  O   UNL     1     -12.640   2.646 -33.741  1.00  0.00    -0.279 OA
ENDROOT
BRANCH   7  13
HETATM   13  C   UNL     1      -8.791   3.588 -33.278  1.00  0.00    -0.044 A 
HETATM   14  C   UNL     1      -9.247   3.932 -31.993  1.00  0.00     0.011 A 
HETATM   15  C   UNL     1      -8.373   4.468 -31.046  1.00  0.00     0.038 A 
HETATM   16  C   UNL     1      -7.031   4.649 -31.370  1.00  0.00     0.081 A 
HETATM   17  C   UNL     1      -6.542   4.265 -32.614  1.00  0.00     0.038 A 
HETATM   18  C   UNL     1      -7.416   3.715 -33.555  1.00  0.00     0.011 A 
BRANCH  16  19
HETATM   19  O   UNL     1      -6.271   5.377 -30.430  1.00  0.00    -0.261 OA
BRANCH  19  20
HETATM   20  C   UNL     1      -6.212   6.769 -30.399  1.00  0.00     0.368 C 
HETATM   21  N   UNL     1      -6.877   7.292 -29.304  1.00  0.00    -0.324 N 
HETATM   22  C   UNL     1      -6.820   8.724 -29.030  1.00  0.00     0.154 C 
HETATM   23  C   UNL     1      -7.442   6.477 -28.227  1.00  0.00     0.154 C 
HETATM   24  C   UNL     1      -8.157   9.232 -28.486  1.00  0.00     0.187 C 
HETATM   25  O   UNL     1      -8.582   8.459 -27.351  1.00  0.00    -0.388 OA
HETATM   26  C   UNL     1      -8.753   7.081 -27.716  1.00  0.00     0.187 C 
HETATM   27  O   UNL     1      -5.650   7.458 -31.243  1.00  0.00    -0.238 OA
ENDBRANCH  19  20
ENDBRANCH  16  19
ENDBRANCH   7  13
BRANCH  11  28
HETATM   28  N   UNL     1     -13.282   4.744 -34.493  1.00  0.00    -0.282 NA
HETATM   29  H   UNL     1     -13.048   5.603 -34.985  1.00  0.00     0.126 HD
HETATM   30  H   UNL     1     -13.821   4.910 -33.646  1.00  0.00     0.126 HD
ENDBRANCH  11  28
BRANCH   1  31
HETATM   31  C   UNL     1      -8.398   0.151 -33.533  1.00  0.00    -0.005 A 
HETATM   32  C   UNL     1      -7.631   0.140 -32.364  1.00  0.00     0.014 A 
HETATM   33  C   UNL     1      -6.318  -0.345 -32.382  1.00  0.00     0.008 A 
HETATM   34  C   UNL     1      -5.742  -0.810 -33.572  1.00  0.00    -0.058 A 
HETATM   35  C   UNL     1      -6.494  -0.750 -34.750  1.00  0.00     0.008 A 
HETATM   36  C   UNL     1      -7.810  -0.280 -34.729  1.00  0.00     0.014 A 
BRANCH  34  37
HETATM   37  C   UNL     1      -4.332  -1.353 -33.574  1.00  0.00     0.042 C 
BRANCH  37  38
HETATM   38  C   UNL     1      -3.732  -1.718 -32.198  1.00  0.00    -0.019 C 
HETATM   39  C   UNL     1      -2.626  -0.760 -31.753  1.00  0.00     0.010 C 
HETATM   40  C   UNL     1      -3.240  -3.165 -32.123  1.00  0.00     0.010 C 
ENDBRANCH  37  38
ENDBRANCH  34  37
ENDBRANCH   1  31
TORSDOF 7
ENDMDL
MODEL 5
REMARK VINA RESULT:      -8.6     16.150     18.370
REMARK  7 active torsions:
REMARK  status: ('A' for Active; 'I' for Inactive)
REMARK    1  A    between atoms: C_2  and  C_3 
REMARK    2  A    between atoms: C_3  and  C_4 
REMARK    3  A    between atoms: C_7  and  C_8 
REMARK    4  A    between atoms: C_14  and  C_15 
REMARK    5  A    between atoms: C_18  and  O_19 
REMARK    6  A    between atoms: O_19  and  C_20 
REMARK       I    between atoms: C_20  and  N_21 
REMARK    7  A    between atoms: C_33  and  N_34 
ROOT
HETATM    1  C   UNL     1      -6.912 -15.857 -41.413  1.00  0.00     0.099 A 
HETATM    2  N   UNL     1      -7.198 -17.111 -41.816  1.00  0.00    -0.172 NA
HETATM    3  N   UNL     1      -8.543 -17.158 -41.867  1.00  0.00    -0.256 N 
HETATM    4  H   UNL     1      -8.991 -18.021 -42.156  1.00  0.00     0.191 HD
HETATM    5  C   UNL     1      -9.125 -15.993 -41.493  1.00  0.00     0.175 A 
HETATM    6  C   UNL     1      -8.110 -15.119 -41.196  1.00  0.00     0.040 A 
HETATM    7  C   UNL     1      -8.439 -13.745 -40.716  1.00  0.00     0.105 A 
HETATM    8  C   UNL     1      -9.947 -13.523 -40.738  1.00  0.00     0.067 A 
HETATM    9  C   UNL     1     -10.409 -12.091 -40.518  1.00  0.00     0.020 C 
HETATM   10  N   UNL     1     -10.793 -10.905 -40.335  1.00  0.00    -0.096 N 
HETATM   11  C   UNL     1     -10.845 -14.487 -41.073  1.00  0.00     0.139 A 
HETATM   12  O   UNL     1     -10.436 -15.787 -41.423  1.00  0.00    -0.279 OA
ENDROOT
BRANCH   7  13
HETATM   13  C   UNL     1      -7.823 -13.616 -39.330  1.00  0.00    -0.044 A 
HETATM   14  C   UNL     1      -6.743 -12.736 -39.140  1.00  0.00     0.011 A 
HETATM   15  C   UNL     1      -6.070 -12.688 -37.918  1.00  0.00     0.038 A 
HETATM   16  C   UNL     1      -6.481 -13.508 -36.870  1.00  0.00     0.081 A 
HETATM   17  C   UNL     1      -7.582 -14.346 -37.014  1.00  0.00     0.038 A 
HETATM   18  C   UNL     1      -8.263 -14.382 -38.233  1.00  0.00     0.011 A 
BRANCH  16  19
HETATM   19  O   UNL     1      -5.625 -13.539 -35.750  1.00  0.00    -0.261 OA
BRANCH  19  20
HETATM   20  C   UNL     1      -6.078 -13.522 -34.432  1.00  0.00     0.368 C 
HETATM   21  N   UNL     1      -5.514 -14.534 -33.676  1.00  0.00    -0.324 N 
HETATM   22  C   UNL     1      -5.770 -14.603 -32.241  1.00  0.00     0.154 C 
HETATM   23  C   UNL     1      -4.454 -15.420 -34.161  1.00  0.00     0.154 C 
HETATM   24  C   UNL     1      -5.897 -16.057 -31.777  1.00  0.00     0.187 C 
HETATM   25  O   UNL     1      -4.756 -16.831 -32.182  1.00  0.00    -0.388 OA
HETATM   26  C   UNL     1      -4.635 -16.839 -33.613  1.00  0.00     0.187 C 
HETATM   27  O   UNL     1      -6.890 -12.717 -33.989  1.00  0.00    -0.238 OA
ENDBRANCH  19  20
ENDBRANCH  16  19
ENDBRANCH   7  13
BRANCH  11  28
HETATM   28  N   UNL     1     -12.209 -14.320 -41.134  1.00  0.00    -0.282 NA
HETATM   29  H   UNL     1     -12.550 -13.400 -40.865  1.00  0.00     0.126 HD
HETATM   30  H   UNL     1     -12.707 -15.075 -40.669  1.00  0.00     0.126 HD
ENDBRANCH  11  28
BRANCH   1  31
HETATM   31  C   UNL     1      -5.529 -15.433 -41.191  1.00  0.00    -0.005 A 
HETATM   32  C   UNL     1      -4.854 -14.636 -42.121  1.00  0.00     0.014 A 
HETATM   33  C   UNL     1      -3.563 -14.169 -41.851  1.00  0.00     0.008 A 
HETATM   34  C   UNL     1      -2.915 -14.505 -40.655  1.00  0.00    -0.058 A 
HETATM   35  C   UNL     1      -3.571 -15.344 -39.749  1.00  0.00     0.008 A 
HETATM   36  C   UNL     1      -4.867 -15.799 -40.012  1.00  0.00     0.014 A 
BRANCH  34  37
HETATM   37  C   UNL     1      -1.530 -13.975 -40.365  1.00  0.00     0.042 C 
BRANCH  37  38
HETATM   38  C   UNL     1      -1.138 -13.848 -38.875  1.00  0.00    -0.019 C 
HETATM   39  C   UNL     1      -1.482 -12.481 -38.280  1.00  0.00     0.010 C 
HETATM   40  C   UNL     1       0.330 -14.186 -38.611  1.00  0.00     0.010 C 
ENDBRANCH  37  38
ENDBRANCH  34  37
ENDBRANCH   1  31
TORSDOF 7
ENDMDL
MODEL 6
REMARK VINA RESULT:      -8.5      3.175      7.754
REMARK  7 active torsions:
REMARK  status: ('A' for Active; 'I' for Inactive)
REMARK    1  A    between atoms: C_2  and  C_3 
REMARK    2  A    between atoms: C_3  and  C_4 
REMARK    3  A    between atoms: C_7  and  C_8 
REMARK    4  A    between atoms: C_14  and  C_15 
REMARK    5  A    between atoms: C_18  and  O_19 
REMARK    6  A    between atoms: O_19  and  C_20 
REMARK       I    between atoms: C_20  and  N_21 
REMARK    7  A    between atoms: C_33  and  N_34 
ROOT
HETATM    1  C   UNL     1      -7.474   4.644 -30.868  1.00  0.00     0.099 A 
HETATM    2  N   UNL     1      -7.862   5.076 -29.652  1.00  0.00    -0.172 NA
HETATM    3  N   UNL     1      -6.769   5.663 -29.128  1.00  0.00    -0.256 N 
HETATM    4  H   UNL     1      -6.829   6.071 -28.202  1.00  0.00     0.191 HD
HETATM    5  C   UNL     1      -5.695   5.604 -29.952  1.00  0.00     0.175 A 
HETATM    6  C   UNL     1      -6.104   4.960 -31.093  1.00  0.00     0.040 A 
HETATM    7  C   UNL     1      -5.123   4.712 -32.190  1.00  0.00     0.105 A 
HETATM    8  C   UNL     1      -3.780   5.350 -31.853  1.00  0.00     0.067 A 
HETATM    9  C   UNL     1      -2.765   5.395 -32.986  1.00  0.00     0.020 C 
HETATM   10  N   UNL     1      -1.924   5.433 -33.923  1.00  0.00    -0.096 N 
HETATM   11  C   UNL     1      -3.518   5.978 -30.676  1.00  0.00     0.139 A 
HETATM   12  O   UNL     1      -4.488   6.078 -29.662  1.00  0.00    -0.279 OA
ENDROOT
BRANCH   7  13
HETATM   13  C   UNL     1      -5.053   3.202 -32.369  1.00  0.00    -0.044 A 
HETATM   14  C   UNL     1      -5.691   2.614 -33.476  1.00  0.00     0.011 A 
HETATM   15  C   UNL     1      -5.760   1.227 -33.604  1.00  0.00     0.038 A 
HETATM   16  C   UNL     1      -5.180   0.413 -32.634  1.00  0.00     0.081 A 
HETATM   17  C   UNL     1      -4.495   0.969 -31.559  1.00  0.00     0.038 A 
HETATM   18  C   UNL     1      -4.413   2.358 -31.441  1.00  0.00     0.011 A 
BRANCH  16  19
HETATM   19  O   UNL     1      -5.472  -0.963 -32.738  1.00  0.00    -0.261 OA
BRANCH  19  20
HETATM   20  C   UNL     1      -4.499  -1.947 -32.906  1.00  0.00     0.368 C 
HETATM   21  N   UNL     1      -4.890  -2.913 -33.816  1.00  0.00    -0.324 N 
HETATM   22  C   UNL     1      -3.955  -3.959 -34.218  1.00  0.00     0.154 C 
HETATM   23  C   UNL     1      -6.111  -2.829 -34.620  1.00  0.00     0.154 C 
HETATM   24  C   UNL     1      -4.678  -5.294 -34.414  1.00  0.00     0.187 C 
HETATM   25  O   UNL     1      -5.788  -5.155 -35.316  1.00  0.00    -0.388 OA
HETATM   26  C   UNL     1      -6.741  -4.214 -34.801  1.00  0.00     0.187 C 
HETATM   27  O   UNL     1      -3.427  -1.969 -32.312  1.00  0.00    -0.238 OA
ENDBRANCH  19  20
ENDBRANCH  16  19
ENDBRANCH   7  13
BRANCH  11  28
HETATM   28  N   UNL     1      -2.331   6.591 -30.346  1.00  0.00    -0.282 NA
HETATM   29  H   UNL     1      -2.398   7.321 -29.641  1.00  0.00     0.126 HD
HETATM   30  H   UNL     1      -1.811   6.885 -31.169  1.00  0.00     0.126 HD
ENDBRANCH  11  28
BRANCH   1  31
HETATM   31  C   UNL     1      -8.391   3.902 -31.733  1.00  0.00    -0.005 A 
HETATM   32  C   UNL     1      -8.792   2.600 -31.420  1.00  0.00     0.014 A 
HETATM   33  C   UNL     1      -9.737   1.938 -32.213  1.00  0.00     0.008 A 
HETATM   34  C   UNL     1     -10.283   2.559 -33.345  1.00  0.00    -0.058 A 
HETATM   35  C   UNL     1      -9.842   3.841 -33.685  1.00  0.00     0.008 A 
HETATM   36  C   UNL     1      -8.910   4.508 -32.885  1.00  0.00     0.014 A 
BRANCH  34  37
HETATM   37  C   UNL     1     -11.319   1.843 -34.180  1.00  0.00     0.042 C 
BRANCH  37  38
HETATM   38  C   UNL     1     -12.647   1.486 -33.474  1.00  0.00    -0.019 C 
HETATM   39  C   UNL     1     -13.528   0.545 -34.297  1.00  0.00     0.010 C 
HETATM   40  C   UNL     1     -13.446   2.717 -33.043  1.00  0.00     0.010 C 
ENDBRANCH  37  38
ENDBRANCH  34  37
ENDBRANCH   1  31
TORSDOF 7
ENDMDL
MODEL 7
REMARK VINA RESULT:      -8.2      3.899      5.712
REMARK  7 active torsions:
REMARK  status: ('A' for Active; 'I' for Inactive)
REMARK    1  A    between atoms: C_2  and  C_3 
REMARK    2  A    between atoms: C_3  and  C_4 
REMARK    3  A    between atoms: C_7  and  C_8 
REMARK    4  A    between atoms: C_14  and  C_15 
REMARK    5  A    between atoms: C_18  and  O_19 
REMARK    6  A    between atoms: O_19  and  C_20 
REMARK       I    between atoms: C_20  and  N_21 
REMARK    7  A    between atoms: C_33  and  N_34 
ROOT
HETATM    1  C   UNL     1      -6.162   3.006 -31.875  1.00  0.00     0.099 A 
HETATM    2  N   UNL     1      -6.252   1.662 -31.898  1.00  0.00    -0.172 NA
HETATM    3  N   UNL     1      -7.497   1.392 -31.461  1.00  0.00    -0.256 N 
HETATM    4  H   UNL     1      -7.795   0.425 -31.398  1.00  0.00     0.191 HD
HETATM    5  C   UNL     1      -8.196   2.508 -31.142  1.00  0.00     0.175 A 
HETATM    6  C   UNL     1      -7.376   3.577 -31.399  1.00  0.00     0.040 A 
HETATM    7  C   UNL     1      -7.858   4.961 -31.113  1.00  0.00     0.105 A 
HETATM    8  C   UNL     1      -9.308   4.930 -30.645  1.00  0.00     0.067 A 
HETATM    9  C   UNL     1     -10.007   6.278 -30.561  1.00  0.00     0.020 C 
HETATM   10  N   UNL     1     -10.586   7.395 -30.491  1.00  0.00    -0.096 N 
HETATM   11  C   UNL     1     -10.011   3.783 -30.446  1.00  0.00     0.139 A 
HETATM   12  O   UNL     1      -9.433   2.517 -30.656  1.00  0.00    -0.279 OA
ENDROOT
BRANCH   7  13
HETATM   13  C   UNL     1      -6.898   5.546 -30.086  1.00  0.00    -0.044 A 
HETATM   14  C   UNL     1      -5.936   6.483 -30.505  1.00  0.00     0.011 A 
HETATM   15  C   UNL     1      -4.958   6.941 -29.622  1.00  0.00     0.038 A 
HETATM   16  C   UNL     1      -4.941   6.480 -28.308  1.00  0.00     0.081 A 
HETATM   17  C   UNL     1      -5.915   5.596 -27.854  1.00  0.00     0.038 A 
HETATM   18  C   UNL     1      -6.902   5.150 -28.735  1.00  0.00     0.011 A 
BRANCH  16  19
HETATM   19  O   UNL     1      -3.807   6.838 -27.551  1.00  0.00    -0.261 OA
BRANCH  19  20
HETATM   20  C   UNL     1      -3.284   8.129 -27.509  1.00  0.00     0.368 C 
HETATM   21  N   UNL     1      -1.935   8.153 -27.814  1.00  0.00    -0.324 N 
HETATM   22  C   UNL     1      -1.238   9.429 -27.944  1.00  0.00     0.154 C 
HETATM   23  C   UNL     1      -1.183   6.985 -28.274  1.00  0.00     0.154 C 
HETATM   24  C   UNL     1       0.186   9.333 -27.390  1.00  0.00     0.187 C 
HETATM   25  O   UNL     1       0.902   8.238 -27.986  1.00  0.00    -0.388 OA
HETATM   26  C   UNL     1       0.241   6.995 -27.708  1.00  0.00     0.187 C 
HETATM   27  O   UNL     1      -3.933   9.130 -27.225  1.00  0.00    -0.238 OA
ENDBRANCH  19  20
ENDBRANCH  16  19
ENDBRANCH   7  13
BRANCH  11  28
HETATM   28  N   UNL     1     -11.328   3.712 -30.054  1.00  0.00    -0.282 NA
HETATM   29  H   UNL     1     -11.544   2.985 -29.377  1.00  0.00     0.126 HD
HETATM   30  H   UNL     1     -11.963   3.711 -30.849  1.00  0.00     0.126 HD
ENDBRANCH  11  28
BRANCH   1  31
HETATM   31  C   UNL     1      -4.918   3.685 -32.243  1.00  0.00    -0.005 A 
HETATM   32  C   UNL     1      -3.786   3.621 -31.425  1.00  0.00     0.014 A 
HETATM   33  C   UNL     1      -2.582   4.204 -31.835  1.00  0.00     0.008 A 
HETATM   34  C   UNL     1      -2.491   4.876 -33.061  1.00  0.00    -0.058 A 
HETATM   35  C   UNL     1      -3.638   4.983 -33.854  1.00  0.00     0.008 A 
HETATM   36  C   UNL     1      -4.838   4.388 -33.451  1.00  0.00     0.014 A 
BRANCH  34  37
HETATM   37  C   UNL     1      -1.178   5.480 -33.503  1.00  0.00     0.042 C 
BRANCH  37  38
HETATM   38  C   UNL     1      -0.823   6.864 -32.914  1.00  0.00    -0.019 C 
HETATM   39  C   UNL     1       0.036   6.776 -31.651  1.00  0.00     0.010 C 
HETATM   40  C   UNL     1      -2.051   7.740 -32.658  1.00  0.00     0.010 C 
ENDBRANCH  37  38
ENDBRANCH  34  37
ENDBRANCH   1  31
TORSDOF 7
ENDMDL
MODEL 8
REMARK VINA RESULT:      -8.2      2.785      8.207
REMARK  7 active torsions:
REMARK  status: ('A' for Active; 'I' for Inactive)
REMARK    1  A    between atoms: C_2  and  C_3 
REMARK    2  A    between atoms: C_3  and  C_4 
REMARK    3  A    between atoms: C_7  and  C_8 
REMARK    4  A    between atoms: C_14  and  C_15 
REMARK    5  A    between atoms: C_18  and  O_19 
REMARK    6  A    between atoms: O_19  and  C_20 
REMARK       I    between atoms: C_20  and  N_21 
REMARK    7  A    between atoms: C_33  and  N_34 
ROOT
HETATM    1  C   UNL     1      -3.654   1.001 -31.935  1.00  0.00     0.099 A 
HETATM    2  N   UNL     1      -2.766   0.924 -30.924  1.00  0.00    -0.172 NA
HETATM    3  N   UNL     1      -2.425  -0.377 -30.863  1.00  0.00    -0.256 N 
HETATM    4  H   UNL     1      -1.752  -0.674 -30.165  1.00  0.00     0.191 HD
HETATM    5  C   UNL     1      -3.075  -1.135 -31.779  1.00  0.00     0.175 A 
HETATM    6  C   UNL     1      -3.877  -0.287 -32.500  1.00  0.00     0.040 A 
HETATM    7  C   UNL     1      -4.752  -0.838 -33.576  1.00  0.00     0.105 A 
HETATM    8  C   UNL     1      -4.502  -2.332 -33.748  1.00  0.00     0.067 A 
HETATM    9  C   UNL     1      -5.136  -2.974 -34.972  1.00  0.00     0.020 C 
HETATM   10  N   UNL     1      -5.661  -3.505 -35.987  1.00  0.00    -0.096 N 
HETATM   11  C   UNL     1      -3.657  -3.050 -32.961  1.00  0.00     0.139 A 
HETATM   12  O   UNL     1      -2.944  -2.452 -31.906  1.00  0.00    -0.279 OA
ENDROOT
BRANCH   7  13
HETATM   13  C   UNL     1      -6.182  -0.500 -33.180  1.00  0.00    -0.044 A 
HETATM   14  C   UNL     1      -7.157  -0.366 -34.185  1.00  0.00     0.011 A 
HETATM   15  C   UNL     1      -8.445   0.070 -33.873  1.00  0.00     0.038 A 
HETATM   16  C   UNL     1      -8.776   0.361 -32.552  1.00  0.00     0.081 A 
HETATM   17  C   UNL     1      -7.847   0.183 -31.532  1.00  0.00     0.038 A 
HETATM   18  C   UNL     1      -6.563  -0.268 -31.844  1.00  0.00     0.011 A 
BRANCH  16  19
HETATM   19  O   UNL     1     -10.028   0.983 -32.361  1.00  0.00    -0.261 OA
BRANCH  19  20
HETATM   20  C   UNL     1     -11.083   0.887 -33.266  1.00  0.00     0.368 C 
HETATM   21  N   UNL     1     -11.208   2.028 -34.039  1.00  0.00    -0.324 N 
HETATM   22  C   UNL     1     -12.177   2.069 -35.129  1.00  0.00     0.154 C 
HETATM   23  C   UNL     1     -10.254   3.138 -34.015  1.00  0.00     0.154 C 
HETATM   24  C   UNL     1     -12.815   3.456 -35.244  1.00  0.00     0.187 C 
HETATM   25  O   UNL     1     -11.812   4.480 -35.345  1.00  0.00    -0.388 OA
HETATM   26  C   UNL     1     -10.973   4.480 -34.180  1.00  0.00     0.187 C 
HETATM   27  O   UNL     1     -11.825  -0.083 -33.365  1.00  0.00    -0.238 OA
ENDBRANCH  19  20
ENDBRANCH  16  19
ENDBRANCH   7  13
BRANCH  11  28
HETATM   28  N   UNL     1      -3.382  -4.391 -33.101  1.00  0.00    -0.282 NA
HETATM   29  H   UNL     1      -2.810  -4.799 -32.366  1.00  0.00     0.126 HD
HETATM   30  H   UNL     1      -3.043  -4.615 -34.034  1.00  0.00     0.126 HD
ENDBRANCH  11  28
BRANCH   1  31
HETATM   31  C   UNL     1      -4.298   2.269 -32.279  1.00  0.00    -0.005 A 
HETATM   32  C   UNL     1      -4.863   2.479 -33.541  1.00  0.00     0.014 A 
HETATM   33  C   UNL     1      -5.549   3.666 -33.822  1.00  0.00     0.008 A 
HETATM   34  C   UNL     1      -5.668   4.672 -32.854  1.00  0.00    -0.058 A 
HETATM   35  C   UNL     1      -5.059   4.481 -31.610  1.00  0.00     0.008 A 
HETATM   36  C   UNL     1      -4.385   3.290 -31.324  1.00  0.00     0.014 A 
BRANCH  34  37
HETATM   37  C   UNL     1      -6.432   5.939 -33.162  1.00  0.00     0.042 C 
BRANCH  37  38
HETATM   38  C   UNL     1      -7.164   6.609 -31.977  1.00  0.00    -0.019 C 
HETATM   39  C   UNL     1      -8.600   6.113 -31.802  1.00  0.00     0.010 C 
HETATM   40  C   UNL     1      -7.135   8.136 -32.042  1.00  0.00     0.010 C 
ENDBRANCH  37  38
ENDBRANCH  34  37
ENDBRANCH   1  31
TORSDOF 7
ENDMDL
MODEL 9
REMARK VINA RESULT:      -8.0      2.886      6.044
REMARK  7 active torsions:
REMARK  status: ('A' for Active; 'I' for Inactive)
REMARK    1  A    between atoms: C_2  and  C_3 
REMARK    2  A    between atoms: C_3  and  C_4 
REMARK    3  A    between atoms: C_7  and  C_8 
REMARK    4  A    between atoms: C_14  and  C_15 
REMARK    5  A    between atoms: C_18  and  O_19 
REMARK    6  A    between atoms: O_19  and  C_20 
REMARK       I    between atoms: C_20  and  N_21 
REMARK    7  A    between atoms: C_33  and  N_34 
ROOT
HETATM    1  C   UNL     1      -8.367   1.915 -32.988  1.00  0.00     0.099 A 
HETATM    2  N   UNL     1      -9.307   1.896 -33.953  1.00  0.00    -0.172 NA
HETATM    3  N   UNL     1      -8.946   0.885 -34.767  1.00  0.00    -0.256 N 
HETATM    4  H   UNL     1      -9.522   0.679 -35.576  1.00  0.00     0.191 HD
HETATM    5  C   UNL     1      -7.804   0.273 -34.371  1.00  0.00     0.175 A 
HETATM    6  C   UNL     1      -7.395   0.901 -33.221  1.00  0.00     0.040 A 
HETATM    7  C   UNL     1      -6.132   0.466 -32.555  1.00  0.00     0.105 A 
HETATM    8  C   UNL     1      -5.541  -0.740 -33.275  1.00  0.00     0.067 A 
HETATM    9  C   UNL     1      -4.396  -1.443 -32.561  1.00  0.00     0.020 C 
HETATM   10  N   UNL     1      -3.448  -2.026 -31.971  1.00  0.00    -0.096 N 
HETATM   11  C   UNL     1      -6.067  -1.272 -34.410  1.00  0.00     0.139 A 
HETATM   12  O   UNL     1      -7.215  -0.729 -35.016  1.00  0.00    -0.279 OA
ENDROOT
BRANCH   7  13
HETATM   13  C   UNL     1      -5.214   1.681 -32.544  1.00  0.00    -0.044 A 
HETATM   14  C   UNL     1      -4.351   1.877 -31.451  1.00  0.00     0.011 A 
HETATM   15  C   UNL     1      -3.592   3.042 -31.344  1.00  0.00     0.038 A 
HETATM   16  C   UNL     1      -3.675   4.016 -32.336  1.00  0.00     0.081 A 
HETATM   17  C   UNL     1      -4.478   3.821 -33.456  1.00  0.00     0.038 A 
HETATM   18  C   UNL     1      -5.226   2.647 -33.568  1.00  0.00     0.011 A 
BRANCH  16  19
HETATM   19  O   UNL     1      -3.033   5.238 -32.047  1.00  0.00    -0.261 OA
BRANCH  19  20
HETATM   20  C   UNL     1      -1.772   5.326 -31.460  1.00  0.00     0.368 C 
HETATM   21  N   UNL     1      -1.761   6.191 -30.380  1.00  0.00    -0.324 N 
HETATM   22  C   UNL     1      -0.562   6.321 -29.560  1.00  0.00     0.154 C 
HETATM   23  C   UNL     1      -2.962   6.819 -29.827  1.00  0.00     0.154 C 
HETATM   24  C   UNL     1      -0.366   7.768 -29.100  1.00  0.00     0.187 C 
HETATM   25  O   UNL     1      -1.547   8.270 -28.453  1.00  0.00    -0.388 OA
HETATM   26  C   UNL     1      -2.664   8.245 -29.354  1.00  0.00     0.187 C 
HETATM   27  O   UNL     1      -0.781   4.722 -31.855  1.00  0.00    -0.238 OA
ENDBRANCH  19  20
ENDBRANCH  16  19
ENDBRANCH   7  13
BRANCH  11  28
HETATM   28  N   UNL     1      -5.583  -2.376 -35.073  1.00  0.00    -0.282 NA
HETATM   29  H   UNL     1      -5.351  -3.173 -34.485  1.00  0.00     0.126 HD
HETATM   30  H   UNL     1      -4.837  -2.135 -35.722  1.00  0.00     0.126 HD
ENDBRANCH  11  28
BRANCH   1  31
HETATM   31  C   UNL     1      -8.393   2.924 -31.929  1.00  0.00    -0.005 A 
HETATM   32  C   UNL     1      -8.123   2.590 -30.598  1.00  0.00     0.014 A 
HETATM   33  C   UNL     1      -8.068   3.584 -29.615  1.00  0.00     0.008 A 
HETATM   34  C   UNL     1      -8.298   4.927 -29.939  1.00  0.00    -0.058 A 
HETATM   35  C   UNL     1      -8.617   5.253 -31.261  1.00  0.00     0.008 A 
HETATM   36  C   UNL     1      -8.659   4.262 -32.246  1.00  0.00     0.014 A 
BRANCH  34  37
HETATM   37  C   UNL     1      -8.211   5.994 -28.872  1.00  0.00     0.042 C 
BRANCH  37  38
HETATM   38  C   UNL     1      -6.823   6.635 -28.648  1.00  0.00    -0.019 C 
HETATM   39  C   UNL     1      -5.922   5.808 -27.731  1.00  0.00     0.010 C 
HETATM   40  C   UNL     1      -6.904   8.079 -28.150  1.00  0.00     0.010 C 
ENDBRANCH  37  38
ENDBRANCH  34  37
ENDBRANCH   1  31
TORSDOF 7
ENDMDL
MODEL 10
REMARK VINA RESULT:      -7.9      2.868      5.685
REMARK  7 active torsions:
REMARK  status: ('A' for Active; 'I' for Inactive)
REMARK    1  A    between atoms: C_2  and  C_3 
REMARK    2  A    between atoms: C_3  and  C_4 
REMARK    3  A    between atoms: C_7  and  C_8 
REMARK    4  A    between atoms: C_14  and  C_15 
REMARK    5  A    between atoms: C_18  and  O_19 
REMARK    6  A    between atoms: O_19  and  C_20 
REMARK       I    between atoms: C_20  and  N_21 
REMARK    7  A    between atoms: C_33  and  N_34 
ROOT
HETATM    1  C   UNL     1      -4.741   2.377 -31.536  1.00  0.00     0.099 A 
HETATM    2  N   UNL     1      -4.348   1.294 -30.838  1.00  0.00    -0.172 NA
HETATM    3  N   UNL     1      -5.421   0.481 -30.826  1.00  0.00    -0.256 N 
HETATM    4  H   UNL     1      -5.353  -0.412 -30.351  1.00  0.00     0.191 HD
HETATM    5  C   UNL     1      -6.489   1.011 -31.471  1.00  0.00     0.175 A 
HETATM    6  C   UNL     1      -6.096   2.234 -31.952  1.00  0.00     0.040 A 
HETATM    7  C   UNL     1      -7.075   3.084 -32.690  1.00  0.00     0.105 A 
HETATM    8  C   UNL     1      -8.395   2.341 -32.865  1.00  0.00     0.067 A 
HETATM    9  C   UNL     1      -9.396   2.983 -33.813  1.00  0.00     0.020 C 
HETATM   10  N   UNL     1     -10.226   3.514 -34.599  1.00  0.00    -0.096 N 
HETATM   11  C   UNL     1      -8.643   1.112 -32.340  1.00  0.00     0.139 A 
HETATM   12  O   UNL     1      -7.679   0.429 -31.575  1.00  0.00    -0.279 OA
ENDROOT
BRANCH   7  13
HETATM   13  C   UNL     1      -7.203   4.377 -31.897  1.00  0.00    -0.044 A 
HETATM   14  C   UNL     1      -6.799   5.587 -32.489  1.00  0.00     0.011 A 
HETATM   15  C   UNL     1      -6.778   6.770 -31.750  1.00  0.00     0.038 A 
HETATM   16  C   UNL     1      -7.178   6.758 -30.416  1.00  0.00     0.081 A 
HETATM   17  C   UNL     1      -7.636   5.587 -29.822  1.00  0.00     0.038 A 
HETATM   18  C   UNL     1      -7.670   4.407 -30.568  1.00  0.00     0.011 A 
BRANCH  16  19
HETATM   19  O   UNL     1      -6.935   7.948 -29.697  1.00  0.00    -0.261 OA
BRANCH  19  20
HETATM   20  C   UNL     1      -6.157   8.005 -28.542  1.00  0.00     0.368 C 
HETATM   21  N   UNL     1      -4.984   8.711 -28.741  1.00  0.00    -0.324 N 
HETATM   22  C   UNL     1      -4.097   8.986 -27.615  1.00  0.00     0.154 C 
HETATM   23  C   UNL     1      -4.669   9.439 -29.971  1.00  0.00     0.154 C 
HETATM   24  C   UNL     1      -2.629   8.906 -28.042  1.00  0.00     0.187 C 
HETATM   25  O   UNL     1      -2.373   9.747 -29.178  1.00  0.00    -0.388 OA
HETATM   26  C   UNL     1      -3.176   9.341 -30.297  1.00  0.00     0.187 C 
HETATM   27  O   UNL     1      -6.463   7.485 -27.475  1.00  0.00    -0.238 OA
ENDBRANCH  19  20
ENDBRANCH  16  19
ENDBRANCH   7  13
BRANCH  11  28
HETATM   28  N   UNL     1      -9.806   0.396 -32.499  1.00  0.00    -0.282 NA
HETATM   29  H   UNL     1     -10.203   0.010 -31.645  1.00  0.00     0.126 HD
HETATM   30  H   UNL     1      -9.732  -0.292 -33.245  1.00  0.00     0.126 HD
ENDBRANCH  11  28
BRANCH   1  31
HETATM   31  C   UNL     1      -3.847   3.520 -31.725  1.00  0.00    -0.005 A 
HETATM   32  C   UNL     1      -3.832   4.588 -30.823  1.00  0.00     0.014 A 
HETATM   33  C   UNL     1      -2.909   5.629 -30.972  1.00  0.00     0.008 A 
HETATM   34  C   UNL     1      -1.997   5.631 -32.036  1.00  0.00    -0.058 A 
HETATM   35  C   UNL     1      -2.048   4.588 -32.966  1.00  0.00     0.008 A 
HETATM   36  C   UNL     1      -2.960   3.540 -32.809  1.00  0.00     0.014 A 
BRANCH  34  37
HETATM   37  C   UNL     1      -0.990   6.750 -32.173  1.00  0.00     0.042 C 
BRANCH  37  38
HETATM   38  C   UNL     1       0.278   6.648 -31.295  1.00  0.00    -0.019 C 
HETATM   39  C   UNL     1       0.752   5.209 -31.092  1.00  0.00     0.010 C 
HETATM   40  C   UNL     1       0.130   7.352 -29.945  1.00  0.00     0.010 C 
ENDBRANCH  37  38
ENDBRANCH  34  37
ENDBRANCH   1  31
TORSDOF 7
ENDMDL
