MODEL 1
REMARK VINA RESULT:      -8.7      0.000      0.000
REMARK  5 active torsions:
REMARK  status: ('A' for Active; 'I' for Inactive)
REMARK    1  A    between atoms: N_2  and  C_4 
REMARK    2  A    between atoms: C_4  and  C_5 
REMARK    3  A    between atoms: C_5  and  N_6 
REMARK    4  A    between atoms: C_11  and  C_12 
REMARK    5  A    between atoms: C_14  and  O_15 
ROOT
HETATM    1  N   UNL     1      -5.962   2.399 -33.139  1.00  0.00    -0.332 N 
HETATM    2  C   UNL     1      -5.038   1.923 -32.212  1.00  0.00     0.279 C 
HETATM    3  O   UNL     1      -4.558   2.557 -31.291  1.00  0.00    -0.265 OA
HETATM    4  C   UNL     1      -4.773   0.514 -32.548  1.00  0.00     0.156 A 
HETATM    5  C   UNL     1      -5.605   0.206 -33.541  1.00  0.00     0.060 A 
HETATM    6  C   UNL     1      -6.499   1.308 -33.956  1.00  0.00     0.161 C 
HETATM    7  O   UNL     1      -3.858  -0.297 -31.941  1.00  0.00    -0.303 OA
HETATM    8  C   UNL     1      -3.814  -1.598 -32.399  1.00  0.00     0.090 A 
HETATM    9  C   UNL     1      -4.611  -2.062 -33.461  1.00  0.00     0.051 A 
HETATM   10  C   UNL     1      -5.542  -1.125 -34.128  1.00  0.00     0.196 A 
HETATM   11  O   UNL     1      -6.203  -1.421 -35.111  1.00  0.00    -0.287 OA
HETATM   12  C   UNL     1      -2.931  -2.467 -31.757  1.00  0.00     0.041 A 
HETATM   13  C   UNL     1      -2.848  -3.795 -32.176  1.00  0.00     0.045 A 
HETATM   14  C   UNL     1      -3.643  -4.243 -33.230  1.00  0.00     0.117 A 
HETATM   15  F   UNL     1      -3.556  -5.520 -33.621  1.00  0.00    -0.206 F 
HETATM   16  C   UNL     1      -4.525  -3.389 -33.882  1.00  0.00     0.060 A 
ENDROOT
BRANCH   6  17
HETATM   17  C   UNL     1      -7.971   1.049 -33.692  1.00  0.00    -0.028 A 
HETATM   18  C   UNL     1      -8.931   1.549 -34.590  1.00  0.00     0.046 A 
HETATM   19  C   UNL     1     -10.286   1.360 -34.336  1.00  0.00     0.066 A 
HETATM   20  C   UNL     1     -10.715   0.677 -33.207  1.00  0.00     0.036 A 
HETATM   21  C   UNL     1      -9.776   0.152 -32.323  1.00  0.00     0.003 A 
HETATM   22  C   UNL     1      -8.414   0.333 -32.564  1.00  0.00     0.010 A 
BRANCH  19  23
HETATM   23  O   UNL     1     -11.238   1.845 -35.183  1.00  0.00    -0.361 OA
HETATM   24  H   UNL     1     -11.969   1.207 -35.239  1.00  0.00     0.217 HD
ENDBRANCH  19  23
ENDBRANCH   6  17
BRANCH   1  25
HETATM   25  C   UNL     1      -6.658   3.666 -32.965  1.00  0.00     0.155 C 
BRANCH  25  26
HETATM   26  C   UNL     1      -6.112   4.816 -33.834  1.00  0.00     0.254 C 
BRANCH  26  27
HETATM   27  N   UNL     1      -4.608   4.986 -33.662  1.00  0.00    -0.077 N 
HETATM   28  C   UNL     1      -4.219   6.060 -32.685  1.00  0.00     0.269 C 
HETATM   29  H   UNL     1      -4.247   4.091 -33.301  1.00  0.00     0.279 HD
HETATM   30  C   UNL     1      -3.932   5.190 -34.995  1.00  0.00     0.269 C 
ENDBRANCH  26  27
ENDBRANCH  25  26
ENDBRANCH   1  25
TORSDOF 5
ENDMDL
MODEL 2
REMARK VINA RESULT:      -8.7      2.123      2.701
REMARK  5 active torsions:
REMARK  status: ('A' for Active; 'I' for Inactive)
REMARK    1  A    between atoms: N_2  and  C_4 
REMARK    2  A    between atoms: C_4  and  C_5 
REMARK    3  A    between atoms: C_5  and  N_6 
REMARK    4  A    between atoms: C_11  and  C_12 
REMARK    5  A    between atoms: C_14  and  O_15 
ROOT
HETATM    1  N   UNL     1      -4.014   1.793 -32.204  1.00  0.00    -0.332 N 
HETATM    2  C   UNL     1      -3.425   0.588 -31.826  1.00  0.00     0.279 C 
HETATM    3  O   UNL     1      -2.583   0.446 -30.960  1.00  0.00    -0.265 OA
HETATM    4  C   UNL     1      -4.026  -0.467 -32.658  1.00  0.00     0.156 A 
HETATM    5  C   UNL     1      -4.984   0.122 -33.371  1.00  0.00     0.060 A 
HETATM    6  C   UNL     1      -5.148   1.567 -33.103  1.00  0.00     0.161 C 
HETATM    7  O   UNL     1      -3.665  -1.783 -32.669  1.00  0.00    -0.303 OA
HETATM    8  C   UNL     1      -4.401  -2.600 -33.503  1.00  0.00     0.090 A 
HETATM    9  C   UNL     1      -5.423  -2.116 -34.339  1.00  0.00     0.051 A 
HETATM   10  C   UNL     1      -5.735  -0.670 -34.336  1.00  0.00     0.196 A 
HETATM   11  O   UNL     1      -6.543  -0.155 -35.092  1.00  0.00    -0.287 OA
HETATM   12  C   UNL     1      -4.093  -3.961 -33.491  1.00  0.00     0.041 A 
HETATM   13  C   UNL     1      -4.809  -4.834 -34.312  1.00  0.00     0.045 A 
HETATM   14  C   UNL     1      -5.820  -4.342 -35.136  1.00  0.00     0.117 A 
HETATM   15  F   UNL     1      -6.501  -5.190 -35.916  1.00  0.00    -0.206 F 
HETATM   16  C   UNL     1      -6.136  -2.988 -35.162  1.00  0.00     0.060 A 
ENDROOT
BRANCH   6  17
HETATM   17  C   UNL     1      -6.478   1.938 -32.474  1.00  0.00    -0.028 A 
HETATM   18  C   UNL     1      -7.288   0.927 -31.928  1.00  0.00     0.046 A 
HETATM   19  C   UNL     1      -8.532   1.245 -31.390  1.00  0.00     0.066 A 
HETATM   20  C   UNL     1      -8.991   2.555 -31.376  1.00  0.00     0.036 A 
HETATM   21  C   UNL     1      -8.188   3.571 -31.886  1.00  0.00     0.003 A 
HETATM   22  C   UNL     1      -6.939   3.267 -32.429  1.00  0.00     0.010 A 
BRANCH  19  23
HETATM   23  O   UNL     1      -9.342   0.283 -30.867  1.00  0.00    -0.361 OA
HETATM   24  H   UNL     1      -9.049  -0.587 -31.183  1.00  0.00     0.217 HD
ENDBRANCH  19  23
ENDBRANCH   6  17
BRANCH   1  25
HETATM   25  C   UNL     1      -3.862   3.012 -31.422  1.00  0.00     0.155 C 
BRANCH  25  26
HETATM   26  C   UNL     1      -2.616   3.846 -31.780  1.00  0.00     0.254 C 
BRANCH  26  27
HETATM   27  N   UNL     1      -2.753   4.506 -33.146  1.00  0.00    -0.077 N 
HETATM   28  C   UNL     1      -1.535   5.270 -33.584  1.00  0.00     0.269 C 
HETATM   29  H   UNL     1      -2.907   3.748 -33.828  1.00  0.00     0.279 HD
HETATM   30  C   UNL     1      -3.989   5.366 -33.208  1.00  0.00     0.269 C 
ENDBRANCH  26  27
ENDBRANCH  25  26
ENDBRANCH   1  25
TORSDOF 5
ENDMDL
MODEL 3
REMARK VINA RESULT:      -8.6      2.650      5.045
REMARK  5 active torsions:
REMARK  status: ('A' for Active; 'I' for Inactive)
REMARK    1  A    between atoms: N_2  and  C_4 
REMARK    2  A    between atoms: C_4  and  C_5 
REMARK    3  A    between atoms: C_5  and  N_6 
REMARK    4  A    between atoms: C_11  and  C_12 
REMARK    5  A    between atoms: C_14  and  O_15 
ROOT
HETATM    1  N   UNL     1      -5.928   3.673 -31.058  1.00  0.00    -0.332 N 
HETATM    2  C   UNL     1      -6.994   3.048 -31.701  1.00  0.00     0.279 C 
HETATM    3  O   UNL     1      -8.129   3.476 -31.782  1.00  0.00    -0.265 OA
HETATM    4  C   UNL     1      -6.479   1.792 -32.272  1.00  0.00     0.156 A 
HETATM    5  C   UNL     1      -5.165   1.793 -32.050  1.00  0.00     0.060 A 
HETATM    6  C   UNL     1      -4.662   2.999 -31.357  1.00  0.00     0.161 C 
HETATM    7  O   UNL     1      -7.218   0.837 -32.907  1.00  0.00    -0.303 OA
HETATM    8  C   UNL     1      -6.510  -0.241 -33.399  1.00  0.00     0.090 A 
HETATM    9  C   UNL     1      -5.124  -0.393 -33.215  1.00  0.00     0.051 A 
HETATM   10  C   UNL     1      -4.378   0.641 -32.464  1.00  0.00     0.196 A 
HETATM   11  O   UNL     1      -3.193   0.544 -32.184  1.00  0.00    -0.287 OA
HETATM   12  C   UNL     1      -7.231  -1.204 -34.105  1.00  0.00     0.041 A 
HETATM   13  C   UNL     1      -6.565  -2.313 -34.628  1.00  0.00     0.045 A 
HETATM   14  C   UNL     1      -5.191  -2.452 -34.439  1.00  0.00     0.117 A 
HETATM   15  F   UNL     1      -4.563  -3.520 -34.948  1.00  0.00    -0.206 F 
HETATM   16  C   UNL     1      -4.459  -1.503 -33.735  1.00  0.00     0.060 A 
ENDROOT
BRANCH   6  17
HETATM   17  C   UNL     1      -3.727   3.854 -32.193  1.00  0.00    -0.028 A 
HETATM   18  C   UNL     1      -4.168   4.345 -33.435  1.00  0.00     0.046 A 
HETATM   19  C   UNL     1      -3.306   5.090 -34.234  1.00  0.00     0.066 A 
HETATM   20  C   UNL     1      -2.008   5.366 -33.825  1.00  0.00     0.036 A 
HETATM   21  C   UNL     1      -1.567   4.911 -32.586  1.00  0.00     0.003 A 
HETATM   22  C   UNL     1      -2.420   4.162 -31.773  1.00  0.00     0.010 A 
BRANCH  19  23
HETATM   23  O   UNL     1      -3.702   5.568 -35.447  1.00  0.00    -0.361 OA
HETATM   24  H   UNL     1      -3.968   6.498 -35.352  1.00  0.00     0.217 HD
ENDBRANCH  19  23
ENDBRANCH   6  17
BRANCH   1  25
HETATM   25  C   UNL     1      -5.994   5.056 -30.606  1.00  0.00     0.155 C 
BRANCH  25  26
HETATM   26  C   UNL     1      -5.781   5.241 -29.091  1.00  0.00     0.254 C 
BRANCH  26  27
HETATM   27  N   UNL     1      -4.490   5.993 -28.792  1.00  0.00    -0.077 N 
HETATM   28  C   UNL     1      -4.504   6.744 -27.490  1.00  0.00     0.269 C 
HETATM   29  H   UNL     1      -3.741   5.287 -28.735  1.00  0.00     0.279 HD
HETATM   30  C   UNL     1      -4.113   6.895 -29.939  1.00  0.00     0.269 C 
ENDBRANCH  26  27
ENDBRANCH  25  26
ENDBRANCH   1  25
TORSDOF 5
ENDMDL
MODEL 4
REMARK VINA RESULT:      -8.5      3.062      6.410
REMARK  5 active torsions:
REMARK  status: ('A' for Active; 'I' for Inactive)
REMARK    1  A    between atoms: N_2  and  C_4 
REMARK    2  A    between atoms: C_4  and  C_5 
REMARK    3  A    between atoms: C_5  and  N_6 
REMARK    4  A    between atoms: C_11  and  C_12 
REMARK    5  A    between atoms: C_14  and  O_15 
ROOT
HETATM    1  N   UNL     1      -6.441   2.420 -32.801  1.00  0.00    -0.332 N 
HETATM    2  C   UNL     1      -7.167   3.273 -33.630  1.00  0.00     0.279 C 
HETATM    3  O   UNL     1      -6.745   4.282 -34.163  1.00  0.00    -0.265 OA
HETATM    4  C   UNL     1      -8.523   2.711 -33.749  1.00  0.00     0.156 A 
HETATM    5  C   UNL     1      -8.499   1.543 -33.109  1.00  0.00     0.060 A 
HETATM    6  C   UNL     1      -7.185   1.188 -32.530  1.00  0.00     0.161 C 
HETATM    7  O   UNL     1      -9.575   3.286 -34.400  1.00  0.00    -0.303 OA
HETATM    8  C   UNL     1     -10.744   2.552 -34.415  1.00  0.00     0.090 A 
HETATM    9  C   UNL     1     -10.879   1.317 -33.757  1.00  0.00     0.051 A 
HETATM   10  C   UNL     1      -9.726   0.766 -33.012  1.00  0.00     0.196 A 
HETATM   11  O   UNL     1      -9.784  -0.254 -32.342  1.00  0.00    -0.287 OA
HETATM   12  C   UNL     1     -11.820   3.088 -35.124  1.00  0.00     0.041 A 
HETATM   13  C   UNL     1     -13.025   2.386 -35.176  1.00  0.00     0.045 A 
HETATM   14  C   UNL     1     -13.146   1.162 -34.520  1.00  0.00     0.117 A 
HETATM   15  F   UNL     1     -14.307   0.498 -34.580  1.00  0.00    -0.206 F 
HETATM   16  C   UNL     1     -12.085   0.617 -33.806  1.00  0.00     0.060 A 
ENDROOT
BRANCH   6  17
HETATM   17  C   UNL     1      -6.539  -0.035 -33.156  1.00  0.00    -0.028 A 
HETATM   18  C   UNL     1      -5.468  -0.663 -32.495  1.00  0.00     0.046 A 
HETATM   19  C   UNL     1      -4.835  -1.756 -33.079  1.00  0.00     0.066 A 
HETATM   20  C   UNL     1      -5.246  -2.248 -34.310  1.00  0.00     0.036 A 
HETATM   21  C   UNL     1      -6.323  -1.655 -34.963  1.00  0.00     0.003 A 
HETATM   22  C   UNL     1      -6.968  -0.558 -34.390  1.00  0.00     0.010 A 
BRANCH  19  23
HETATM   23  O   UNL     1      -3.787  -2.376 -32.467  1.00  0.00    -0.361 OA
HETATM   24  H   UNL     1      -3.105  -2.576 -33.130  1.00  0.00     0.217 HD
ENDBRANCH  19  23
ENDBRANCH   6  17
BRANCH   1  25
HETATM   25  C   UNL     1      -4.994   2.510 -32.668  1.00  0.00     0.155 C 
BRANCH  25  26
HETATM   26  C   UNL     1      -4.496   2.647 -31.216  1.00  0.00     0.254 C 
BRANCH  26  27
HETATM   27  N   UNL     1      -3.687   3.923 -31.016  1.00  0.00    -0.077 N 
HETATM   28  C   UNL     1      -4.518   5.175 -30.963  1.00  0.00     0.269 C 
HETATM   29  H   UNL     1      -3.205   3.831 -30.110  1.00  0.00     0.279 HD
HETATM   30  C   UNL     1      -2.595   4.037 -32.049  1.00  0.00     0.269 C 
ENDBRANCH  26  27
ENDBRANCH  25  26
ENDBRANCH   1  25
TORSDOF 5
ENDMDL
MODEL 5
REMARK VINA RESULT:      -8.2      2.244      5.001
REMARK  5 active torsions:
REMARK  status: ('A' for Active; 'I' for Inactive)
REMARK    1  A    between atoms: N_2  and  C_4 
REMARK    2  A    between atoms: C_4  and  C_5 
REMARK    3  A    between atoms: C_5  and  N_6 
REMARK    4  A    between atoms: C_11  and  C_12 
REMARK    5  A    between atoms: C_14  and  O_15 
ROOT
HETATM    1  N   UNL     1      -7.961   2.069 -31.806  1.00  0.00    -0.332 N 
HETATM    2  C   UNL     1      -8.505   1.188 -32.740  1.00  0.00     0.279 C 
HETATM    3  O   UNL     1      -9.604   1.281 -33.253  1.00  0.00    -0.265 OA
HETATM    4  C   UNL     1      -7.494   0.148 -32.994  1.00  0.00     0.156 A 
HETATM    5  C   UNL     1      -6.406   0.514 -32.318  1.00  0.00     0.060 A 
HETATM    6  C   UNL     1      -6.540   1.790 -31.583  1.00  0.00     0.161 C 
HETATM    7  O   UNL     1      -7.660  -0.956 -33.778  1.00  0.00    -0.303 OA
HETATM    8  C   UNL     1      -6.554  -1.774 -33.903  1.00  0.00     0.090 A 
HETATM    9  C   UNL     1      -5.346  -1.534 -33.225  1.00  0.00     0.051 A 
HETATM   10  C   UNL     1      -5.238  -0.356 -32.336  1.00  0.00     0.196 A 
HETATM   11  O   UNL     1      -4.259  -0.123 -31.645  1.00  0.00    -0.287 OA
HETATM   12  C   UNL     1      -6.675  -2.879 -34.746  1.00  0.00     0.041 A 
HETATM   13  C   UNL     1      -5.588  -3.738 -34.912  1.00  0.00     0.045 A 
HETATM   14  C   UNL     1      -4.395  -3.488 -34.235  1.00  0.00     0.117 A 
HETATM   15  F   UNL     1      -3.358  -4.318 -34.406  1.00  0.00    -0.206 F 
HETATM   16  C   UNL     1      -4.260  -2.394 -33.389  1.00  0.00     0.060 A 
ENDROOT
BRANCH   6  17
HETATM   17  C   UNL     1      -5.639   2.900 -32.092  1.00  0.00    -0.028 A 
HETATM   18  C   UNL     1      -4.737   3.516 -31.207  1.00  0.00     0.046 A 
HETATM   19  C   UNL     1      -3.937   4.567 -31.646  1.00  0.00     0.066 A 
HETATM   20  C   UNL     1      -4.009   5.021 -32.956  1.00  0.00     0.036 A 
HETATM   21  C   UNL     1      -4.876   4.403 -33.852  1.00  0.00     0.003 A 
HETATM   22  C   UNL     1      -5.684   3.348 -33.426  1.00  0.00     0.010 A 
BRANCH  19  23
HETATM   23  O   UNL     1      -3.064   5.190 -30.806  1.00  0.00    -0.361 OA
HETATM   24  H   UNL     1      -2.612   5.903 -31.288  1.00  0.00     0.217 HD
ENDBRANCH  19  23
ENDBRANCH   6  17
BRANCH   1  25
HETATM   25  C   UNL     1      -8.563   3.361 -31.513  1.00  0.00     0.155 C 
BRANCH  25  26
HETATM   26  C   UNL     1      -9.831   3.288 -30.640  1.00  0.00     0.254 C 
BRANCH  26  27
HETATM   27  N   UNL     1     -11.091   3.567 -31.451  1.00  0.00    -0.077 N 
HETATM   28  C   UNL     1     -10.852   4.371 -32.698  1.00  0.00     0.269 C 
HETATM   29  H   UNL     1     -11.468   2.652 -31.738  1.00  0.00     0.279 HD
HETATM   30  C   UNL     1     -12.158   4.195 -30.592  1.00  0.00     0.269 C 
ENDBRANCH  26  27
ENDBRANCH  25  26
ENDBRANCH   1  25
TORSDOF 5
ENDMDL
MODEL 6
REMARK VINA RESULT:      -7.9      2.502      3.325
REMARK  5 active torsions:
REMARK  status: ('A' for Active; 'I' for Inactive)
REMARK    1  A    between atoms: N_2  and  C_4 
REMARK    2  A    between atoms: C_4  and  C_5 
REMARK    3  A    between atoms: C_5  and  N_6 
REMARK    4  A    between atoms: C_11  and  C_12 
REMARK    5  A    between atoms: C_14  and  O_15 
ROOT
HETATM    1  N   UNL     1      -8.928   2.960 -32.517  1.00  0.00    -0.332 N 
HETATM    2  C   UNL     1      -7.979   2.462 -31.627  1.00  0.00     0.279 C 
HETATM    3  O   UNL     1      -7.786   2.858 -30.493  1.00  0.00    -0.265 OA
HETATM    4  C   UNL     1      -7.278   1.363 -32.312  1.00  0.00     0.156 A 
HETATM    5  C   UNL     1      -7.899   1.195 -33.478  1.00  0.00     0.060 A 
HETATM    6  C   UNL     1      -9.048   2.101 -33.697  1.00  0.00     0.161 C 
HETATM    7  O   UNL     1      -6.213   0.664 -31.823  1.00  0.00    -0.303 OA
HETATM    8  C   UNL     1      -5.744  -0.355 -32.628  1.00  0.00     0.090 A 
HETATM    9  C   UNL     1      -6.279  -0.631 -33.899  1.00  0.00     0.051 A 
HETATM   10  C   UNL     1      -7.393   0.198 -34.410  1.00  0.00     0.196 A 
HETATM   11  O   UNL     1      -7.856   0.083 -35.534  1.00  0.00    -0.287 OA
HETATM   12  C   UNL     1      -4.694  -1.125 -32.129  1.00  0.00     0.041 A 
HETATM   13  C   UNL     1      -4.184  -2.171 -32.900  1.00  0.00     0.045 A 
HETATM   14  C   UNL     1      -4.722  -2.435 -34.158  1.00  0.00     0.117 A 
HETATM   15  F   UNL     1      -4.225  -3.443 -34.885  1.00  0.00    -0.206 F 
HETATM   16  C   UNL     1      -5.766  -1.675 -34.671  1.00  0.00     0.060 A 
ENDROOT
BRANCH   6  17
HETATM   17  C   UNL     1     -10.390   1.397 -33.775  1.00  0.00    -0.028 A 
HETATM   18  C   UNL     1     -11.424   1.966 -34.539  1.00  0.00     0.046 A 
HETATM   19  C   UNL     1     -12.674   1.357 -34.582  1.00  0.00     0.066 A 
HETATM   20  C   UNL     1     -12.923   0.184 -33.884  1.00  0.00     0.036 A 
HETATM   21  C   UNL     1     -11.902  -0.408 -33.146  1.00  0.00     0.003 A 
HETATM   22  C   UNL     1     -10.643   0.191 -33.093  1.00  0.00     0.010 A 
BRANCH  19  23
HETATM   23  O   UNL     1     -13.697   1.895 -35.304  1.00  0.00    -0.361 OA
HETATM   24  H   UNL     1     -14.249   1.177 -35.658  1.00  0.00     0.217 HD
ENDBRANCH  19  23
ENDBRANCH   6  17
BRANCH   1  25
HETATM   25  C   UNL     1      -9.984   3.872 -32.099  1.00  0.00     0.155 C 
BRANCH  25  26
HETATM   26  C   UNL     1      -9.724   5.350 -32.451  1.00  0.00     0.254 C 
BRANCH  26  27
HETATM   27  N   UNL     1     -10.643   5.833 -33.566  1.00  0.00    -0.077 N 
HETATM   28  C   UNL     1     -12.062   5.353 -33.443  1.00  0.00     0.269 C 
HETATM   29  H   UNL     1     -10.657   6.862 -33.516  1.00  0.00     0.279 HD
HETATM   30  C   UNL     1     -10.070   5.500 -34.920  1.00  0.00     0.269 C 
ENDBRANCH  26  27
ENDBRANCH  25  26
ENDBRANCH   1  25
TORSDOF 5
ENDMDL
MODEL 7
REMARK VINA RESULT:      -7.8      3.477      6.463
REMARK  5 active torsions:
REMARK  status: ('A' for Active; 'I' for Inactive)
REMARK    1  A    between atoms: N_2  and  C_4 
REMARK    2  A    between atoms: C_4  and  C_5 
REMARK    3  A    between atoms: C_5  and  N_6 
REMARK    4  A    between atoms: C_11  and  C_12 
REMARK    5  A    between atoms: C_14  and  O_15 
ROOT
HETATM    1  N   UNL     1      -7.807   3.142 -31.834  1.00  0.00    -0.332 N 
HETATM    2  C   UNL     1      -6.966   3.650 -30.846  1.00  0.00     0.279 C 
HETATM    3  O   UNL     1      -7.158   3.594 -29.646  1.00  0.00    -0.265 OA
HETATM    4  C   UNL     1      -5.805   4.244 -31.529  1.00  0.00     0.156 A 
HETATM    5  C   UNL     1      -5.952   3.966 -32.823  1.00  0.00     0.060 A 
HETATM    6  C   UNL     1      -7.157   3.172 -33.146  1.00  0.00     0.161 C 
HETATM    7  O   UNL     1      -4.787   4.930 -30.931  1.00  0.00    -0.303 OA
HETATM    8  C   UNL     1      -3.780   5.361 -31.771  1.00  0.00     0.090 A 
HETATM    9  C   UNL     1      -3.812   5.167 -33.164  1.00  0.00     0.051 A 
HETATM   10  C   UNL     1      -4.969   4.472 -33.770  1.00  0.00     0.196 A 
HETATM   11  O   UNL     1      -5.118   4.341 -34.975  1.00  0.00    -0.287 OA
HETATM   12  C   UNL     1      -2.697   6.013 -31.181  1.00  0.00     0.041 A 
HETATM   13  C   UNL     1      -1.649   6.466 -31.983  1.00  0.00     0.045 A 
HETATM   14  C   UNL     1      -1.692   6.268 -33.362  1.00  0.00     0.117 A 
HETATM   15  F   UNL     1      -0.678   6.705 -34.119  1.00  0.00    -0.206 F 
HETATM   16  C   UNL     1      -2.765   5.623 -33.966  1.00  0.00     0.060 A 
ENDROOT
BRANCH   6  17
HETATM   17  C   UNL     1      -6.864   1.785 -33.687  1.00  0.00    -0.028 A 
HETATM   18  C   UNL     1      -5.930   0.970 -33.024  1.00  0.00     0.046 A 
HETATM   19  C   UNL     1      -5.616  -0.286 -33.534  1.00  0.00     0.066 A 
HETATM   20  C   UNL     1      -6.215  -0.758 -34.694  1.00  0.00     0.036 A 
HETATM   21  C   UNL     1      -7.163   0.026 -35.346  1.00  0.00     0.003 A 
HETATM   22  C   UNL     1      -7.489   1.287 -34.846  1.00  0.00     0.010 A 
BRANCH  19  23
HETATM   23  O   UNL     1      -4.705  -1.091 -32.919  1.00  0.00    -0.361 OA
HETATM   24  H   UNL     1      -4.151  -0.553 -32.330  1.00  0.00     0.217 HD
ENDBRANCH  19  23
ENDBRANCH   6  17
BRANCH   1  25
HETATM   25  C   UNL     1      -8.919   2.253 -31.528  1.00  0.00     0.155 C 
BRANCH  25  26
HETATM   26  C   UNL     1     -10.165   2.466 -32.409  1.00  0.00     0.254 C 
BRANCH  26  27
HETATM   27  N   UNL     1     -10.866   1.150 -32.721  1.00  0.00    -0.077 N 
HETATM   28  C   UNL     1      -9.955  -0.045 -32.721  1.00  0.00     0.269 C 
HETATM   29  H   UNL     1     -11.569   1.005 -31.982  1.00  0.00     0.279 HD
HETATM   30  C   UNL     1     -11.642   1.244 -34.010  1.00  0.00     0.269 C 
ENDBRANCH  26  27
ENDBRANCH  25  26
ENDBRANCH   1  25
TORSDOF 5
ENDMDL
MODEL 8
REMARK VINA RESULT:      -7.5      2.170      4.875
REMARK  5 active torsions:
REMARK  status: ('A' for Active; 'I' for Inactive)
REMARK    1  A    between atoms: N_2  and  C_4 
REMARK    2  A    between atoms: C_4  and  C_5 
REMARK    3  A    between atoms: C_5  and  N_6 
REMARK    4  A    between atoms: C_11  and  C_12 
REMARK    5  A    between atoms: C_14  and  O_15 
ROOT
HETATM    1  N   UNL     1      -6.546   2.958 -31.447  1.00  0.00    -0.332 N 
HETATM    2  C   UNL     1      -7.402   2.237 -32.277  1.00  0.00     0.279 C 
HETATM    3  O   UNL     1      -8.517   2.580 -32.623  1.00  0.00    -0.265 OA
HETATM    4  C   UNL     1      -6.695   1.005 -32.664  1.00  0.00     0.156 A 
HETATM    5  C   UNL     1      -5.465   1.109 -32.162  1.00  0.00     0.060 A 
HETATM    6  C   UNL     1      -5.205   2.369 -31.432  1.00  0.00     0.161 C 
HETATM    7  O   UNL     1      -7.214  -0.020 -33.400  1.00  0.00    -0.303 OA
HETATM    8  C   UNL     1      -6.347  -1.058 -33.676  1.00  0.00     0.090 A 
HETATM    9  C   UNL     1      -5.029  -1.103 -33.189  1.00  0.00     0.051 A 
HETATM   10  C   UNL     1      -4.534   0.004 -32.341  1.00  0.00     0.196 A 
HETATM   11  O   UNL     1      -3.437   0.002 -31.806  1.00  0.00    -0.287 OA
HETATM   12  C   UNL     1      -6.832  -2.092 -34.478  1.00  0.00     0.041 A 
HETATM   13  C   UNL     1      -5.997  -3.166 -34.792  1.00  0.00     0.045 A 
HETATM   14  C   UNL     1      -4.692  -3.199 -34.302  1.00  0.00     0.117 A 
HETATM   15  F   UNL     1      -3.901  -4.233 -34.613  1.00  0.00    -0.206 F 
HETATM   16  C   UNL     1      -4.196  -2.178 -33.500  1.00  0.00     0.060 A 
ENDROOT
BRANCH   6  17
HETATM   17  C   UNL     1      -4.166   3.263 -32.084  1.00  0.00    -0.028 A 
HETATM   18  C   UNL     1      -2.971   3.543 -31.399  1.00  0.00     0.046 A 
HETATM   19  C   UNL     1      -2.029   4.399 -31.963  1.00  0.00     0.066 A 
HETATM   20  C   UNL     1      -2.245   4.984 -33.203  1.00  0.00     0.036 A 
HETATM   21  C   UNL     1      -3.411   4.694 -33.906  1.00  0.00     0.003 A 
HETATM   22  C   UNL     1      -4.365   3.838 -33.353  1.00  0.00     0.010 A 
BRANCH  19  23
HETATM   23  O   UNL     1      -0.868   4.698 -31.315  1.00  0.00    -0.361 OA
HETATM   24  H   UNL     1      -0.122   4.314 -31.805  1.00  0.00     0.217 HD
ENDBRANCH  19  23
ENDBRANCH   6  17
BRANCH   1  25
HETATM   25  C   UNL     1      -6.799   4.345 -31.084  1.00  0.00     0.155 C 
BRANCH  25  26
HETATM   26  C   UNL     1      -7.132   5.263 -32.277  1.00  0.00     0.254 C 
BRANCH  26  27
HETATM   27  N   UNL     1      -6.842   6.725 -31.960  1.00  0.00    -0.077 N 
HETATM   28  C   UNL     1      -5.386   7.029 -31.746  1.00  0.00     0.269 C 
HETATM   29  H   UNL     1      -7.158   7.274 -32.773  1.00  0.00     0.279 HD
HETATM   30  C   UNL     1      -7.676   7.201 -30.798  1.00  0.00     0.269 C 
ENDBRANCH  26  27
ENDBRANCH  25  26
ENDBRANCH   1  25
TORSDOF 5
ENDMDL
MODEL 9
REMARK VINA RESULT:      -7.5      3.680      7.201
REMARK  5 active torsions:
REMARK  status: ('A' for Active; 'I' for Inactive)
REMARK    1  A    between atoms: N_2  and  C_4 
REMARK    2  A    between atoms: C_4  and  C_5 
REMARK    3  A    between atoms: C_5  and  N_6 
REMARK    4  A    between atoms: C_11  and  C_12 
REMARK    5  A    between atoms: C_14  and  O_15 
ROOT
HETATM    1  N   UNL     1      -6.311   3.537 -31.827  1.00  0.00    -0.332 N 
HETATM    2  C   UNL     1      -6.011   4.391 -30.767  1.00  0.00     0.279 C 
HETATM    3  O   UNL     1      -6.744   4.656 -29.833  1.00  0.00    -0.265 OA
HETATM    4  C   UNL     1      -4.643   4.889 -30.987  1.00  0.00     0.156 A 
HETATM    5  C   UNL     1      -4.179   4.242 -32.055  1.00  0.00     0.060 A 
HETATM    6  C   UNL     1      -5.123   3.265 -32.638  1.00  0.00     0.161 C 
HETATM    7  O   UNL     1      -3.997   5.821 -30.228  1.00  0.00    -0.303 OA
HETATM    8  C   UNL     1      -2.698   6.103 -30.601  1.00  0.00     0.090 A 
HETATM    9  C   UNL     1      -2.083   5.522 -31.724  1.00  0.00     0.051 A 
HETATM   10  C   UNL     1      -2.848   4.563 -32.552  1.00  0.00     0.196 A 
HETATM   11  O   UNL     1      -2.422   4.082 -33.590  1.00  0.00    -0.287 OA
HETATM   12  C   UNL     1      -1.993   7.008 -29.807  1.00  0.00     0.041 A 
HETATM   13  C   UNL     1      -0.674   7.326 -30.136  1.00  0.00     0.045 A 
HETATM   14  C   UNL     1      -0.075   6.743 -31.252  1.00  0.00     0.117 A 
HETATM   15  F   UNL     1       1.191   7.055 -31.554  1.00  0.00    -0.206 F 
HETATM   16  C   UNL     1      -0.766   5.843 -32.054  1.00  0.00     0.060 A 
ENDROOT
BRANCH   6  17
HETATM   17  C   UNL     1      -4.665   1.822 -32.541  1.00  0.00    -0.028 A 
HETATM   18  C   UNL     1      -3.606   1.491 -31.679  1.00  0.00     0.046 A 
HETATM   19  C   UNL     1      -3.144   0.179 -31.614  1.00  0.00     0.066 A 
HETATM   20  C   UNL     1      -3.716  -0.820 -32.388  1.00  0.00     0.036 A 
HETATM   21  C   UNL     1      -4.785  -0.514 -33.226  1.00  0.00     0.003 A 
HETATM   22  C   UNL     1      -5.259   0.796 -33.302  1.00  0.00     0.010 A 
BRANCH  19  23
HETATM   23  O   UNL     1      -2.110  -0.166 -30.797  1.00  0.00    -0.361 OA
HETATM   24  H   UNL     1      -1.271   0.058 -31.232  1.00  0.00     0.217 HD
ENDBRANCH  19  23
ENDBRANCH   6  17
BRANCH   1  25
HETATM   25  C   UNL     1      -7.471   2.656 -31.811  1.00  0.00     0.155 C 
BRANCH  25  26
HETATM   26  C   UNL     1      -8.380   2.780 -33.050  1.00  0.00     0.254 C 
BRANCH  26  27
HETATM   27  N   UNL     1      -9.220   1.526 -33.259  1.00  0.00    -0.077 N 
HETATM   28  C   UNL     1     -10.697   1.787 -33.362  1.00  0.00     0.269 C 
HETATM   29  H   UNL     1      -8.915   1.108 -34.150  1.00  0.00     0.279 HD
HETATM   30  C   UNL     1      -8.921   0.494 -32.201  1.00  0.00     0.269 C 
ENDBRANCH  26  27
ENDBRANCH  25  26
ENDBRANCH   1  25
TORSDOF 5
ENDMDL
MODEL 10
REMARK VINA RESULT:      -7.5     14.673     16.072
REMARK  5 active torsions:
REMARK  status: ('A' for Active; 'I' for Inactive)
REMARK    1  A    between atoms: N_2  and  C_4 
REMARK    2  A    between atoms: C_4  and  C_5 
REMARK    3  A    between atoms: C_5  and  N_6 
REMARK    4  A    between atoms: C_11  and  C_12 
REMARK    5  A    between atoms: C_14  and  O_15 
ROOT
HETATM    1  N   UNL     1      -5.853 -13.545 -39.881  1.00  0.00    -0.332 N 
HETATM    2  C   UNL     1      -5.144 -12.926 -38.853  1.00  0.00     0.279 C 
HETATM    3  O   UNL     1      -4.321 -12.041 -38.985  1.00  0.00    -0.265 OA
HETATM    4  C   UNL     1      -5.596 -13.533 -37.590  1.00  0.00     0.156 A 
HETATM    5  C   UNL     1      -6.590 -14.360 -37.908  1.00  0.00     0.060 A 
HETATM    6  C   UNL     1      -6.923 -14.391 -39.349  1.00  0.00     0.161 C 
HETATM    7  O   UNL     1      -5.088 -13.275 -36.350  1.00  0.00    -0.303 OA
HETATM    8  C   UNL     1      -5.700 -13.934 -35.302  1.00  0.00     0.090 A 
HETATM    9  C   UNL     1      -6.741 -14.860 -35.486  1.00  0.00     0.051 A 
HETATM   10  C   UNL     1      -7.214 -15.152 -36.858  1.00  0.00     0.196 A 
HETATM   11  O   UNL     1      -8.049 -16.005 -37.114  1.00  0.00    -0.287 OA
HETATM   12  C   UNL     1      -5.241 -13.644 -34.017  1.00  0.00     0.041 A 
HETATM   13  C   UNL     1      -5.827 -14.279 -32.920  1.00  0.00     0.045 A 
HETATM   14  C   UNL     1      -6.858 -15.195 -33.116  1.00  0.00     0.117 A 
HETATM   15  F   UNL     1      -7.413 -15.795 -32.055  1.00  0.00    -0.206 F 
HETATM   16  C   UNL     1      -7.324 -15.497 -34.391  1.00  0.00     0.060 A 
ENDROOT
BRANCH   6  17
HETATM   17  C   UNL     1      -8.307 -13.863 -39.679  1.00  0.00    -0.028 A 
HETATM   18  C   UNL     1      -9.272 -14.738 -40.207  1.00  0.00     0.046 A 
HETATM   19  C   UNL     1     -10.530 -14.258 -40.559  1.00  0.00     0.066 A 
HETATM   20  C   UNL     1     -10.857 -12.919 -40.394  1.00  0.00     0.036 A 
HETATM   21  C   UNL     1      -9.922 -12.045 -39.846  1.00  0.00     0.003 A 
HETATM   22  C   UNL     1      -8.657 -12.512 -39.488  1.00  0.00     0.010 A 
BRANCH  19  23
HETATM   23  O   UNL     1     -11.479 -15.082 -41.085  1.00  0.00    -0.361 OA
HETATM   24  H   UNL     1     -11.398 -15.961 -40.679  1.00  0.00     0.217 HD
ENDBRANCH  19  23
ENDBRANCH   6  17
BRANCH   1  25
HETATM   25  C   UNL     1      -5.865 -13.024 -41.241  1.00  0.00     0.155 C 
BRANCH  25  26
HETATM   26  C   UNL     1      -5.150 -13.920 -42.271  1.00  0.00     0.254 C 
BRANCH  26  27
HETATM   27  N   UNL     1      -4.106 -14.813 -41.612  1.00  0.00    -0.077 N 
HETATM   28  C   UNL     1      -2.699 -14.295 -41.721  1.00  0.00     0.269 C 
HETATM   29  H   UNL     1      -4.344 -14.860 -40.611  1.00  0.00     0.279 HD
HETATM   30  C   UNL     1      -4.208 -16.228 -42.122  1.00  0.00     0.269 C 
ENDBRANCH  26  27
ENDBRANCH  25  26
ENDBRANCH   1  25
TORSDOF 5
ENDMDL
