MODEL 1
REMARK VINA RESULT:      -8.2      0.000      0.000
REMARK  9 active torsions:
REMARK  status: ('A' for Active; 'I' for Inactive)
REMARK    1  A    between atoms: N_6  and  C_7 
REMARK    2  A    between atoms: C_9  and  S_10 
REMARK    3  A    between atoms: S_10  and  C_11 
REMARK    4  A    between atoms: C_11  and  C_12 
REMARK    5  A    between atoms: C_14  and  C_15 
REMARK       I    between atoms: C_15  and  N_16 
REMARK    6  A    between atoms: N_16  and  C_17 
REMARK    7  A    between atoms: C_17  and  C_18 
REMARK    8  A    between atoms: C_18  and  N_19 
REMARK    9  A    between atoms: C_27  and  C_28 
ROOT
HETATM    1  C   UNL     1      -7.095  -0.815 -33.138  1.00  0.00     0.130 A 
HETATM    2  N   UNL     1      -5.981  -0.443 -32.482  1.00  0.00    -0.205 NA
HETATM    3  C   UNL     1      -4.832  -1.085 -32.757  1.00  0.00     0.191 A 
HETATM    4  N   UNL     1      -4.729  -2.130 -33.581  1.00  0.00    -0.218 NA
HETATM    5  C   UNL     1      -5.847  -2.511 -34.236  1.00  0.00     0.146 A 
HETATM    6  C   UNL     1      -7.053  -1.856 -34.047  1.00  0.00     0.087 A 
ENDROOT
BRANCH   3   7
HETATM    7  S   UNL     1      -3.343  -0.458 -32.018  1.00  0.00    -0.084 SA
BRANCH   7   8
HETATM    8  C   UNL     1      -4.087   0.903 -31.073  1.00  0.00     0.147 C 
BRANCH   8   9
HETATM    9  C   UNL     1      -3.817   2.245 -31.653  1.00  0.00     0.063 A 
HETATM   10  O   UNL     1      -2.707   2.909 -31.214  1.00  0.00    -0.309 OA
HETATM   11  C   UNL     1      -2.556   4.014 -32.011  1.00  0.00     0.143 A 
HETATM   12  C   UNL     1      -3.590   4.076 -32.922  1.00  0.00     0.045 A 
HETATM   13  C   UNL     1      -4.415   2.953 -32.676  1.00  0.00     0.036 A 
BRANCH  11  14
HETATM   14  C   UNL     1      -1.398   4.853 -31.831  1.00  0.00     0.275 C 
HETATM   15  N   UNL     1      -0.952   4.970 -30.531  1.00  0.00    -0.354 N 
HETATM   16  H   UNL     1      -1.542   4.537 -29.822  1.00  0.00     0.162 HD
HETATM   17  O   UNL     1      -0.786   5.414 -32.741  1.00  0.00    -0.265 OA
BRANCH  15  18
HETATM   18  C   UNL     1       0.032   5.965 -30.130  1.00  0.00     0.150 C 
BRANCH  18  19
HETATM   19  C   UNL     1       0.344   5.966 -28.620  1.00  0.00     0.253 C 
BRANCH  19  20
HETATM   20  N   UNL     1      -0.874   6.284 -27.776  1.00  0.00    -0.077 N 
HETATM   21  H   UNL     1      -1.593   5.567 -27.994  1.00  0.00     0.279 HD
HETATM   22  C   UNL     1      -0.643   6.126 -26.302  1.00  0.00     0.269 C 
HETATM   23  C   UNL     1      -1.471   7.617 -28.110  1.00  0.00     0.269 C 
ENDBRANCH  19  20
ENDBRANCH  18  19
ENDBRANCH  15  18
ENDBRANCH  11  14
ENDBRANCH   8   9
ENDBRANCH   7   8
ENDBRANCH   3   7
BRANCH   1  24
HETATM   24  N   UNL     1      -8.266  -0.080 -32.932  1.00  0.00    -0.362 N 
HETATM   25  C   UNL     1      -8.781   0.653 -34.111  1.00  0.00     0.152 C 
HETATM   26  C   UNL     1      -8.143   2.055 -34.211  1.00  0.00     0.254 C 
HETATM   27  N   UNL     1      -8.376   2.826 -32.903  1.00  0.00    -0.072 N 
HETATM   28  C   UNL     1      -7.833   4.221 -32.960  1.00  0.00     0.269 C 
HETATM   29  H   UNL     1      -9.395   2.902 -32.783  1.00  0.00     0.279 HD
HETATM   30  C   UNL     1      -7.837   2.047 -31.706  1.00  0.00     0.254 C 
HETATM   31  C   UNL     1      -8.458   0.632 -31.654  1.00  0.00     0.152 C 
ENDBRANCH   1  24
BRANCH   5  32
HETATM   32  C   UNL     1      -5.788  -3.681 -35.206  1.00  0.00     0.434 C 
HETATM   33  F   UNL     1      -5.190  -3.385 -36.390  1.00  0.00    -0.165 F 
HETATM   34  F   UNL     1      -5.098  -4.735 -34.682  1.00  0.00    -0.165 F 
HETATM   35  F   UNL     1      -7.025  -4.162 -35.511  1.00  0.00    -0.165 F 
ENDBRANCH   5  32
TORSDOF 9
ENDMDL
MODEL 2
REMARK VINA RESULT:      -8.0      1.330      1.790
REMARK  9 active torsions:
REMARK  status: ('A' for Active; 'I' for Inactive)
REMARK    1  A    between atoms: N_6  and  C_7 
REMARK    2  A    between atoms: C_9  and  S_10 
REMARK    3  A    between atoms: S_10  and  C_11 
REMARK    4  A    between atoms: C_11  and  C_12 
REMARK    5  A    between atoms: C_14  and  C_15 
REMARK       I    between atoms: C_15  and  N_16 
REMARK    6  A    between atoms: N_16  and  C_17 
REMARK    7  A    between atoms: C_17  and  C_18 
REMARK    8  A    between atoms: C_18  and  N_19 
REMARK    9  A    between atoms: C_27  and  C_28 
ROOT
HETATM    1  C   UNL     1      -7.224   0.076 -32.347  1.00  0.00     0.130 A 
HETATM    2  N   UNL     1      -6.082   0.632 -31.904  1.00  0.00    -0.205 NA
HETATM    3  C   UNL     1      -4.913   0.138 -32.350  1.00  0.00     0.191 A 
HETATM    4  N   UNL     1      -4.799  -0.931 -33.142  1.00  0.00    -0.218 NA
HETATM    5  C   UNL     1      -5.942  -1.497 -33.583  1.00  0.00     0.146 A 
HETATM    6  C   UNL     1      -7.182  -1.002 -33.213  1.00  0.00     0.087 A 
ENDROOT
BRANCH   3   7
HETATM    7  S   UNL     1      -3.429   1.003 -31.897  1.00  0.00    -0.084 SA
BRANCH   7   8
HETATM    8  C   UNL     1      -4.105   2.688 -31.920  1.00  0.00     0.147 C 
BRANCH   8   9
HETATM    9  C   UNL     1      -3.096   3.726 -32.262  1.00  0.00     0.063 A 
HETATM   10  O   UNL     1      -2.384   4.273 -31.232  1.00  0.00    -0.309 OA
HETATM   11  C   UNL     1      -1.399   5.047 -31.789  1.00  0.00     0.143 A 
HETATM   12  C   UNL     1      -1.513   5.028 -33.164  1.00  0.00     0.045 A 
HETATM   13  C   UNL     1      -2.620   4.199 -33.467  1.00  0.00     0.036 A 
BRANCH  11  14
HETATM   14  C   UNL     1      -0.430   5.673 -30.926  1.00  0.00     0.275 C 
HETATM   15  N   UNL     1      -0.174   5.006 -29.747  1.00  0.00    -0.354 N 
HETATM   16  H   UNL     1      -0.765   4.198 -29.560  1.00  0.00     0.162 HD
HETATM   17  O   UNL     1       0.186   6.707 -31.191  1.00  0.00    -0.265 OA
BRANCH  15  18
HETATM   18  C   UNL     1       0.572   5.613 -28.653  1.00  0.00     0.150 C 
BRANCH  18  19
HETATM   19  C   UNL     1      -0.309   6.366 -27.636  1.00  0.00     0.253 C 
BRANCH  19  20
HETATM   20  N   UNL     1      -0.114   7.867 -27.698  1.00  0.00    -0.077 N 
HETATM   21  H   UNL     1      -0.179   8.225 -26.724  1.00  0.00     0.279 HD
HETATM   22  C   UNL     1       1.259   8.280 -28.141  1.00  0.00     0.269 C 
HETATM   23  C   UNL     1      -1.187   8.554 -28.487  1.00  0.00     0.269 C 
ENDBRANCH  19  20
ENDBRANCH  18  19
ENDBRANCH  15  18
ENDBRANCH  11  14
ENDBRANCH   8   9
ENDBRANCH   7   8
ENDBRANCH   3   7
BRANCH   1  24
HETATM   24  N   UNL     1      -8.439   0.655 -31.970  1.00  0.00    -0.362 N 
HETATM   25  C   UNL     1      -9.611   0.283 -32.793  1.00  0.00     0.152 C 
HETATM   26  C   UNL     1      -9.755   1.224 -34.008  1.00  0.00     0.254 C 
HETATM   27  N   UNL     1      -9.823   2.682 -33.530  1.00  0.00    -0.072 N 
HETATM   28  C   UNL     1     -10.025   3.644 -34.660  1.00  0.00     0.269 C 
HETATM   29  H   UNL     1     -10.648   2.755 -32.919  1.00  0.00     0.279 HD
HETATM   30  C   UNL     1      -8.602   3.038 -32.683  1.00  0.00     0.254 C 
HETATM   31  C   UNL     1      -8.457   2.054 -31.500  1.00  0.00     0.152 C 
ENDBRANCH   1  24
BRANCH   5  32
HETATM   32  C   UNL     1      -5.876  -2.703 -34.507  1.00  0.00     0.434 C 
HETATM   33  F   UNL     1      -4.965  -3.638 -34.128  1.00  0.00    -0.165 F 
HETATM   34  F   UNL     1      -7.075  -3.346 -34.584  1.00  0.00    -0.165 F 
HETATM   35  F   UNL     1      -5.558  -2.356 -35.786  1.00  0.00    -0.165 F 
ENDBRANCH   5  32
TORSDOF 9
ENDMDL
MODEL 3
REMARK VINA RESULT:      -7.7      2.710      4.332
REMARK  9 active torsions:
REMARK  status: ('A' for Active; 'I' for Inactive)
REMARK    1  A    between atoms: N_6  and  C_7 
REMARK    2  A    between atoms: C_9  and  S_10 
REMARK    3  A    between atoms: S_10  and  C_11 
REMARK    4  A    between atoms: C_11  and  C_12 
REMARK    5  A    between atoms: C_14  and  C_15 
REMARK       I    between atoms: C_15  and  N_16 
REMARK    6  A    between atoms: N_16  and  C_17 
REMARK    7  A    between atoms: C_17  and  C_18 
REMARK    8  A    between atoms: C_18  and  N_19 
REMARK    9  A    between atoms: C_27  and  C_28 
ROOT
HETATM    1  C   UNL     1      -5.421  -0.346 -32.295  1.00  0.00     0.130 A 
HETATM    2  N   UNL     1      -6.454   0.380 -32.757  1.00  0.00    -0.205 NA
HETATM    3  C   UNL     1      -7.147  -0.089 -33.810  1.00  0.00     0.191 A 
HETATM    4  N   UNL     1      -6.830  -1.192 -34.492  1.00  0.00    -0.218 NA
HETATM    5  C   UNL     1      -5.788  -1.920 -34.036  1.00  0.00     0.146 A 
HETATM    6  C   UNL     1      -5.068  -1.529 -32.919  1.00  0.00     0.087 A 
ENDROOT
BRANCH   3   7
HETATM    7  S   UNL     1      -8.615   0.791 -34.286  1.00  0.00    -0.084 SA
BRANCH   7   8
HETATM    8  C   UNL     1      -8.741   1.873 -32.833  1.00  0.00     0.147 C 
BRANCH   8   9
HETATM    9  C   UNL     1      -8.392   3.290 -33.118  1.00  0.00     0.063 A 
HETATM   10  O   UNL     1      -7.069   3.630 -33.086  1.00  0.00    -0.309 OA
HETATM   11  C   UNL     1      -6.970   4.913 -33.560  1.00  0.00     0.143 A 
HETATM   12  C   UNL     1      -8.228   5.400 -33.848  1.00  0.00     0.045 A 
HETATM   13  C   UNL     1      -9.144   4.367 -33.540  1.00  0.00     0.036 A 
BRANCH  11  14
HETATM   14  C   UNL     1      -5.664   5.498 -33.727  1.00  0.00     0.275 C 
HETATM   15  N   UNL     1      -4.893   4.941 -34.726  1.00  0.00    -0.354 N 
HETATM   16  H   UNL     1      -5.282   4.113 -35.174  1.00  0.00     0.162 HD
HETATM   17  O   UNL     1      -5.232   6.454 -33.081  1.00  0.00    -0.265 OA
BRANCH  15  18
HETATM   18  C   UNL     1      -3.473   5.227 -34.866  1.00  0.00     0.150 C 
BRANCH  18  19
HETATM   19  C   UNL     1      -2.604   4.657 -33.727  1.00  0.00     0.253 C 
BRANCH  19  20
HETATM   20  N   UNL     1      -2.003   5.742 -32.856  1.00  0.00    -0.077 N 
HETATM   21  H   UNL     1      -2.685   5.937 -32.097  1.00  0.00     0.279 HD
HETATM   22  C   UNL     1      -0.765   5.311 -32.124  1.00  0.00     0.269 C 
HETATM   23  C   UNL     1      -1.797   7.026 -33.599  1.00  0.00     0.269 C 
ENDBRANCH  19  20
ENDBRANCH  18  19
ENDBRANCH  15  18
ENDBRANCH  11  14
ENDBRANCH   8   9
ENDBRANCH   7   8
ENDBRANCH   3   7
BRANCH   1  24
HETATM   24  N   UNL     1      -4.767   0.084 -31.137  1.00  0.00    -0.362 N 
HETATM   25  C   UNL     1      -5.644   0.465 -30.008  1.00  0.00     0.152 C 
HETATM   26  C   UNL     1      -6.055   1.950 -30.102  1.00  0.00     0.254 C 
HETATM   27  N   UNL     1      -4.800   2.831 -30.182  1.00  0.00    -0.072 N 
HETATM   28  C   UNL     1      -5.130   4.292 -30.214  1.00  0.00     0.269 C 
HETATM   29  H   UNL     1      -4.264   2.661 -29.321  1.00  0.00     0.279 HD
HETATM   30  C   UNL     1      -3.914   2.416 -31.355  1.00  0.00     0.254 C 
HETATM   31  C   UNL     1      -3.554   0.916 -31.259  1.00  0.00     0.152 C 
ENDBRANCH   1  24
BRANCH   5  32
HETATM   32  C   UNL     1      -5.394  -3.200 -34.757  1.00  0.00     0.434 C 
HETATM   33  F   UNL     1      -4.810  -4.128 -33.953  1.00  0.00    -0.165 F 
HETATM   34  F   UNL     1      -6.472  -3.811 -35.324  1.00  0.00    -0.165 F 
HETATM   35  F   UNL     1      -4.518  -2.971 -35.774  1.00  0.00    -0.165 F 
ENDBRANCH   5  32
TORSDOF 9
ENDMDL
MODEL 4
REMARK VINA RESULT:      -7.7      4.293      8.246
REMARK  9 active torsions:
REMARK  status: ('A' for Active; 'I' for Inactive)
REMARK    1  A    between atoms: N_6  and  C_7 
REMARK    2  A    between atoms: C_9  and  S_10 
REMARK    3  A    between atoms: S_10  and  C_11 
REMARK    4  A    between atoms: C_11  and  C_12 
REMARK    5  A    between atoms: C_14  and  C_15 
REMARK       I    between atoms: C_15  and  N_16 
REMARK    6  A    between atoms: N_16  and  C_17 
REMARK    7  A    between atoms: C_17  and  C_18 
REMARK    8  A    between atoms: C_18  and  N_19 
REMARK    9  A    between atoms: C_27  and  C_28 
ROOT
HETATM    1  C   UNL     1      -5.014   3.796 -30.700  1.00  0.00     0.130 A 
HETATM    2  N   UNL     1      -4.919   2.454 -30.719  1.00  0.00    -0.205 NA
HETATM    3  C   UNL     1      -3.856   1.896 -31.326  1.00  0.00     0.191 A 
HETATM    4  N   UNL     1      -2.924   2.580 -31.994  1.00  0.00    -0.218 NA
HETATM    5  C   UNL     1      -3.021   3.927 -31.984  1.00  0.00     0.146 A 
HETATM    6  C   UNL     1      -4.055   4.571 -31.325  1.00  0.00     0.087 A 
ENDROOT
BRANCH   3   7
HETATM    7  S   UNL     1      -3.655   0.138 -31.179  1.00  0.00    -0.084 SA
BRANCH   7   8
HETATM    8  C   UNL     1      -3.867  -0.286 -32.932  1.00  0.00     0.147 C 
BRANCH   8   9
HETATM    9  C   UNL     1      -5.258  -0.673 -33.285  1.00  0.00     0.063 A 
HETATM   10  O   UNL     1      -6.274  -0.000 -32.667  1.00  0.00    -0.309 OA
HETATM   11  C   UNL     1      -7.441  -0.382 -33.277  1.00  0.00     0.143 A 
HETATM   12  C   UNL     1      -7.172  -1.326 -34.246  1.00  0.00     0.045 A 
HETATM   13  C   UNL     1      -5.773  -1.533 -34.234  1.00  0.00     0.036 A 
BRANCH  11  14
HETATM   14  C   UNL     1      -8.674   0.252 -32.885  1.00  0.00     0.275 C 
HETATM   15  N   UNL     1      -9.399   0.817 -33.913  1.00  0.00    -0.354 N 
HETATM   16  H   UNL     1      -8.944   0.818 -34.825  1.00  0.00     0.162 HD
HETATM   17  O   UNL     1      -9.118   0.281 -31.736  1.00  0.00    -0.265 OA
BRANCH  15  18
HETATM   18  C   UNL     1     -10.523   1.711 -33.676  1.00  0.00     0.150 C 
BRANCH  18  19
HETATM   19  C   UNL     1     -11.898   1.083 -33.982  1.00  0.00     0.253 C 
BRANCH  19  20
HETATM   20  N   UNL     1     -12.991   1.607 -33.073  1.00  0.00    -0.077 N 
HETATM   21  H   UNL     1     -12.749   1.319 -32.104  1.00  0.00     0.279 HD
HETATM   22  C   UNL     1     -13.046   3.105 -32.998  1.00  0.00     0.269 C 
HETATM   23  C   UNL     1     -14.331   1.013 -33.382  1.00  0.00     0.269 C 
ENDBRANCH  19  20
ENDBRANCH  18  19
ENDBRANCH  15  18
ENDBRANCH  11  14
ENDBRANCH   8   9
ENDBRANCH   7   8
ENDBRANCH   3   7
BRANCH   1  24
HETATM   24  N   UNL     1      -6.059   4.380 -29.978  1.00  0.00    -0.362 N 
HETATM   25  C   UNL     1      -7.242   3.520 -29.749  1.00  0.00     0.152 C 
HETATM   26  C   UNL     1      -8.241   3.631 -30.921  1.00  0.00     0.254 C 
HETATM   27  N   UNL     1      -8.627   5.102 -31.136  1.00  0.00    -0.072 N 
HETATM   28  C   UNL     1      -9.645   5.271 -32.222  1.00  0.00     0.269 C 
HETATM   29  H   UNL     1      -9.063   5.424 -30.261  1.00  0.00     0.279 HD
HETATM   30  C   UNL     1      -7.389   5.965 -31.368  1.00  0.00     0.254 C 
HETATM   31  C   UNL     1      -6.387   5.801 -30.203  1.00  0.00     0.152 C 
ENDBRANCH   1  24
BRANCH   5  32
HETATM   32  C   UNL     1      -1.974   4.760 -32.707  1.00  0.00     0.434 C 
HETATM   33  F   UNL     1      -1.799   4.416 -34.010  1.00  0.00    -0.165 F 
HETATM   34  F   UNL     1      -2.294   6.085 -32.701  1.00  0.00    -0.165 F 
HETATM   35  F   UNL     1      -0.748   4.671 -32.120  1.00  0.00    -0.165 F 
ENDBRANCH   5  32
TORSDOF 9
ENDMDL
MODEL 5
REMARK VINA RESULT:      -7.4      4.210      8.721
REMARK  9 active torsions:
REMARK  status: ('A' for Active; 'I' for Inactive)
REMARK    1  A    between atoms: N_6  and  C_7 
REMARK    2  A    between atoms: C_9  and  S_10 
REMARK    3  A    between atoms: S_10  and  C_11 
REMARK    4  A    between atoms: C_11  and  C_12 
REMARK    5  A    between atoms: C_14  and  C_15 
REMARK       I    between atoms: C_15  and  N_16 
REMARK    6  A    between atoms: N_16  and  C_17 
REMARK    7  A    between atoms: C_17  and  C_18 
REMARK    8  A    between atoms: C_18  and  N_19 
REMARK    9  A    between atoms: C_27  and  C_28 
ROOT
HETATM    1  C   UNL     1      -3.651   3.772 -32.066  1.00  0.00     0.130 A 
HETATM    2  N   UNL     1      -3.325   2.470 -31.979  1.00  0.00    -0.205 NA
HETATM    3  C   UNL     1      -4.122   1.657 -31.262  1.00  0.00     0.191 A 
HETATM    4  N   UNL     1      -5.175   2.067 -30.552  1.00  0.00    -0.218 NA
HETATM    5  C   UNL     1      -5.501   3.375 -30.630  1.00  0.00     0.146 A 
HETATM    6  C   UNL     1      -4.761   4.258 -31.400  1.00  0.00     0.087 A 
ENDROOT
BRANCH   3   7
HETATM    7  S   UNL     1      -3.777  -0.084 -31.313  1.00  0.00    -0.084 SA
BRANCH   7   8
HETATM    8  C   UNL     1      -3.969  -0.326 -33.102  1.00  0.00     0.147 C 
BRANCH   8   9
HETATM    9  C   UNL     1      -5.335  -0.759 -33.499  1.00  0.00     0.063 A 
HETATM   10  O   UNL     1      -6.388  -0.021 -33.036  1.00  0.00    -0.309 OA
HETATM   11  C   UNL     1      -7.512  -0.478 -33.673  1.00  0.00     0.143 A 
HETATM   12  C   UNL     1      -7.182  -1.530 -34.502  1.00  0.00     0.045 A 
HETATM   13  C   UNL     1      -5.787  -1.728 -34.371  1.00  0.00     0.036 A 
BRANCH  11  14
HETATM   14  C   UNL     1      -8.767   0.193 -33.444  1.00  0.00     0.275 C 
HETATM   15  N   UNL     1      -9.130   1.110 -34.408  1.00  0.00    -0.354 N 
HETATM   16  H   UNL     1      -8.431   1.293 -35.127  1.00  0.00     0.162 HD
HETATM   17  O   UNL     1      -9.521  -0.028 -32.495  1.00  0.00    -0.265 OA
BRANCH  15  18
HETATM   18  C   UNL     1     -10.220   2.054 -34.215  1.00  0.00     0.150 C 
BRANCH  18  19
HETATM   19  C   UNL     1     -11.601   1.511 -34.635  1.00  0.00     0.253 C 
BRANCH  19  20
HETATM   20  N   UNL     1     -12.445   1.091 -33.449  1.00  0.00    -0.077 N 
HETATM   21  H   UNL     1     -11.838   1.144 -32.607  1.00  0.00     0.279 HD
HETATM   22  C   UNL     1     -13.568   2.039 -33.142  1.00  0.00     0.269 C 
HETATM   23  C   UNL     1     -12.920  -0.326 -33.555  1.00  0.00     0.269 C 
ENDBRANCH  19  20
ENDBRANCH  18  19
ENDBRANCH  15  18
ENDBRANCH  11  14
ENDBRANCH   8   9
ENDBRANCH   7   8
ENDBRANCH   3   7
BRANCH   1  24
HETATM   24  N   UNL     1      -2.886   4.597 -32.896  1.00  0.00    -0.362 N 
HETATM   25  C   UNL     1      -1.492   4.832 -32.461  1.00  0.00     0.152 C 
HETATM   26  C   UNL     1      -1.408   6.039 -31.501  1.00  0.00     0.254 C 
HETATM   27  N   UNL     1      -2.022   7.277 -32.170  1.00  0.00    -0.072 N 
HETATM   28  C   UNL     1      -1.915   8.500 -31.311  1.00  0.00     0.269 C 
HETATM   29  H   UNL     1      -1.472   7.457 -33.021  1.00  0.00     0.279 HD
HETATM   30  C   UNL     1      -3.459   7.006 -32.609  1.00  0.00     0.254 C 
HETATM   31  C   UNL     1      -3.520   5.768 -33.533  1.00  0.00     0.152 C 
ENDBRANCH   1  24
BRANCH   5  32
HETATM   32  C   UNL     1      -6.706   3.897 -29.863  1.00  0.00     0.434 C 
HETATM   33  F   UNL     1      -6.387   4.708 -28.820  1.00  0.00    -0.165 F 
HETATM   34  F   UNL     1      -7.541   4.616 -30.665  1.00  0.00    -0.165 F 
HETATM   35  F   UNL     1      -7.464   2.890 -29.346  1.00  0.00    -0.165 F 
ENDBRANCH   5  32
TORSDOF 9
ENDMDL
MODEL 6
REMARK VINA RESULT:      -7.4      3.737      7.681
REMARK  9 active torsions:
REMARK  status: ('A' for Active; 'I' for Inactive)
REMARK    1  A    between atoms: N_6  and  C_7 
REMARK    2  A    between atoms: C_9  and  S_10 
REMARK    3  A    between atoms: S_10  and  C_11 
REMARK    4  A    between atoms: C_11  and  C_12 
REMARK    5  A    between atoms: C_14  and  C_15 
REMARK       I    between atoms: C_15  and  N_16 
REMARK    6  A    between atoms: N_16  and  C_17 
REMARK    7  A    between atoms: C_17  and  C_18 
REMARK    8  A    between atoms: C_18  and  N_19 
REMARK    9  A    between atoms: C_27  and  C_28 
ROOT
HETATM    1  C   UNL     1      -5.038   4.169 -31.005  1.00  0.00     0.130 A 
HETATM    2  N   UNL     1      -6.300   4.621 -31.115  1.00  0.00    -0.205 NA
HETATM    3  C   UNL     1      -7.310   3.771 -30.858  1.00  0.00     0.191 A 
HETATM    4  N   UNL     1      -7.153   2.475 -30.582  1.00  0.00    -0.218 NA
HETATM    5  C   UNL     1      -5.888   2.014 -30.479  1.00  0.00     0.146 A 
HETATM    6  C   UNL     1      -4.798   2.849 -30.669  1.00  0.00     0.087 A 
ENDROOT
BRANCH   3   7
HETATM    7  S   UNL     1      -8.957   4.436 -30.830  1.00  0.00    -0.084 SA
BRANCH   7   8
HETATM    8  C   UNL     1      -9.315   4.294 -32.604  1.00  0.00     0.147 C 
BRANCH   8   9
HETATM    9  C   UNL     1      -9.325   2.891 -33.097  1.00  0.00     0.063 A 
HETATM   10  O   UNL     1      -8.250   2.475 -33.831  1.00  0.00    -0.309 OA
HETATM   11  C   UNL     1      -8.382   1.122 -34.008  1.00  0.00     0.143 A 
HETATM   12  C   UNL     1      -9.556   0.689 -33.429  1.00  0.00     0.045 A 
HETATM   13  C   UNL     1     -10.175   1.830 -32.865  1.00  0.00     0.036 A 
BRANCH  11  14
HETATM   14  C   UNL     1      -7.328   0.399 -34.674  1.00  0.00     0.275 C 
HETATM   15  N   UNL     1      -6.620  -0.477 -33.877  1.00  0.00    -0.354 N 
HETATM   16  H   UNL     1      -6.846  -0.449 -32.884  1.00  0.00     0.162 HD
HETATM   17  O   UNL     1      -7.062   0.486 -35.874  1.00  0.00    -0.265 OA
BRANCH  15  18
HETATM   18  C   UNL     1      -5.373  -1.091 -34.309  1.00  0.00     0.150 C 
BRANCH  18  19
HETATM   19  C   UNL     1      -4.686  -1.945 -33.224  1.00  0.00     0.253 C 
BRANCH  19  20
HETATM   20  N   UNL     1      -4.079  -3.216 -33.783  1.00  0.00    -0.077 N 
HETATM   21  H   UNL     1      -3.322  -2.932 -34.436  1.00  0.00     0.279 HD
HETATM   22  C   UNL     1      -3.373  -4.049 -32.754  1.00  0.00     0.269 C 
HETATM   23  C   UNL     1      -5.062  -4.021 -34.578  1.00  0.00     0.269 C 
ENDBRANCH  19  20
ENDBRANCH  18  19
ENDBRANCH  15  18
ENDBRANCH  11  14
ENDBRANCH   8   9
ENDBRANCH   7   8
ENDBRANCH   3   7
BRANCH   1  24
HETATM   24  N   UNL     1      -3.987   5.077 -31.166  1.00  0.00    -0.362 N 
HETATM   25  C   UNL     1      -4.259   6.222 -32.063  1.00  0.00     0.152 C 
HETATM   26  C   UNL     1      -3.928   5.867 -33.528  1.00  0.00     0.254 C 
HETATM   27  N   UNL     1      -2.473   5.386 -33.630  1.00  0.00    -0.072 N 
HETATM   28  C   UNL     1      -2.070   5.084 -35.041  1.00  0.00     0.269 C 
HETATM   29  H   UNL     1      -1.882   6.163 -33.306  1.00  0.00     0.279 HD
HETATM   30  C   UNL     1      -2.221   4.205 -32.694  1.00  0.00     0.254 C 
HETATM   31  C   UNL     1      -2.602   4.573 -31.242  1.00  0.00     0.152 C 
ENDBRANCH   1  24
BRANCH   5  32
HETATM   32  C   UNL     1      -5.646   0.551 -30.142  1.00  0.00     0.434 C 
HETATM   33  F   UNL     1      -4.473   0.062 -30.624  1.00  0.00    -0.165 F 
HETATM   34  F   UNL     1      -5.622   0.341 -28.795  1.00  0.00    -0.165 F 
HETATM   35  F   UNL     1      -6.627  -0.259 -30.628  1.00  0.00    -0.165 F 
ENDBRANCH   5  32
TORSDOF 9
ENDMDL
MODEL 7
REMARK VINA RESULT:      -7.3      3.127      4.441
REMARK  9 active torsions:
REMARK  status: ('A' for Active; 'I' for Inactive)
REMARK    1  A    between atoms: N_6  and  C_7 
REMARK    2  A    between atoms: C_9  and  S_10 
REMARK    3  A    between atoms: S_10  and  C_11 
REMARK    4  A    between atoms: C_11  and  C_12 
REMARK    5  A    between atoms: C_14  and  C_15 
REMARK       I    between atoms: C_15  and  N_16 
REMARK    6  A    between atoms: N_16  and  C_17 
REMARK    7  A    between atoms: C_17  and  C_18 
REMARK    8  A    between atoms: C_18  and  N_19 
REMARK    9  A    between atoms: C_27  and  C_28 
ROOT
HETATM    1  C   UNL     1     -10.352   2.207 -33.887  1.00  0.00     0.130 A 
HETATM    2  N   UNL     1     -10.013   2.745 -32.701  1.00  0.00    -0.205 NA
HETATM    3  C   UNL     1      -8.884   2.322 -32.105  1.00  0.00     0.191 A 
HETATM    4  N   UNL     1      -8.111   1.336 -32.567  1.00  0.00    -0.218 NA
HETATM    5  C   UNL     1      -8.452   0.788 -33.753  1.00  0.00     0.146 A 
HETATM    6  C   UNL     1      -9.568   1.218 -34.452  1.00  0.00     0.087 A 
ENDROOT
BRANCH   3   7
HETATM    7  S   UNL     1      -8.361   3.173 -30.637  1.00  0.00    -0.084 SA
BRANCH   7   8
HETATM    8  C   UNL     1      -7.931   4.760 -31.407  1.00  0.00     0.147 C 
BRANCH   8   9
HETATM    9  C   UNL     1      -6.724   4.691 -32.273  1.00  0.00     0.063 A 
HETATM   10  O   UNL     1      -5.509   4.618 -31.653  1.00  0.00    -0.309 OA
HETATM   11  C   UNL     1      -4.574   4.371 -32.624  1.00  0.00     0.143 A 
HETATM   12  C   UNL     1      -5.186   4.334 -33.860  1.00  0.00     0.045 A 
HETATM   13  C   UNL     1      -6.564   4.566 -33.637  1.00  0.00     0.036 A 
BRANCH  11  14
HETATM   14  C   UNL     1      -3.204   4.149 -32.236  1.00  0.00     0.275 C 
HETATM   15  N   UNL     1      -2.418   5.280 -32.175  1.00  0.00    -0.354 N 
HETATM   16  H   UNL     1      -2.854   6.138 -32.507  1.00  0.00     0.162 HD
HETATM   17  O   UNL     1      -2.728   3.054 -31.929  1.00  0.00    -0.265 OA
BRANCH  15  18
HETATM   18  C   UNL     1      -0.968   5.216 -32.054  1.00  0.00     0.150 C 
BRANCH  18  19
HETATM   19  C   UNL     1      -0.318   6.542 -31.611  1.00  0.00     0.253 C 
BRANCH  19  20
HETATM   20  N   UNL     1       0.575   6.374 -30.398  1.00  0.00    -0.077 N 
HETATM   21  H   UNL     1       1.549   6.560 -30.708  1.00  0.00     0.279 HD
HETATM   22  C   UNL     1       0.337   7.399 -29.328  1.00  0.00     0.269 C 
HETATM   23  C   UNL     1       0.549   4.979 -29.854  1.00  0.00     0.269 C 
ENDBRANCH  19  20
ENDBRANCH  18  19
ENDBRANCH  15  18
ENDBRANCH  11  14
ENDBRANCH   8   9
ENDBRANCH   7   8
ENDBRANCH   3   7
BRANCH   1  24
HETATM   24  N   UNL     1     -11.465   2.720 -34.558  1.00  0.00    -0.362 N 
HETATM   25  C   UNL     1     -12.222   3.770 -33.840  1.00  0.00     0.152 C 
HETATM   26  C   UNL     1     -13.297   3.147 -32.923  1.00  0.00     0.254 C 
HETATM   27  N   UNL     1     -14.215   2.234 -33.748  1.00  0.00    -0.072 N 
HETATM   28  C   UNL     1     -15.321   1.645 -32.926  1.00  0.00     0.269 C 
HETATM   29  H   UNL     1     -14.654   2.826 -34.466  1.00  0.00     0.279 HD
HETATM   30  C   UNL     1     -13.409   1.162 -34.478  1.00  0.00     0.254 C 
HETATM   31  C   UNL     1     -12.312   1.811 -35.354  1.00  0.00     0.152 C 
ENDBRANCH   1  24
BRANCH   5  32
HETATM   32  C   UNL     1      -7.595  -0.322 -34.341  1.00  0.00     0.434 C 
HETATM   33  F   UNL     1      -7.661  -1.493 -33.653  1.00  0.00    -0.165 F 
HETATM   34  F   UNL     1      -7.958  -0.612 -35.623  1.00  0.00    -0.165 F 
HETATM   35  F   UNL     1      -6.277   0.016 -34.396  1.00  0.00    -0.165 F 
ENDBRANCH   5  32
TORSDOF 9
ENDMDL
MODEL 8
REMARK VINA RESULT:      -7.2      3.185      4.683
REMARK  9 active torsions:
REMARK  status: ('A' for Active; 'I' for Inactive)
REMARK    1  A    between atoms: N_6  and  C_7 
REMARK    2  A    between atoms: C_9  and  S_10 
REMARK    3  A    between atoms: S_10  and  C_11 
REMARK    4  A    between atoms: C_11  and  C_12 
REMARK    5  A    between atoms: C_14  and  C_15 
REMARK       I    between atoms: C_15  and  N_16 
REMARK    6  A    between atoms: N_16  and  C_17 
REMARK    7  A    between atoms: C_17  and  C_18 
REMARK    8  A    between atoms: C_18  and  N_19 
REMARK    9  A    between atoms: C_27  and  C_28 
ROOT
HETATM    1  C   UNL     1      -8.599   0.752 -32.888  1.00  0.00     0.130 A 
HETATM    2  N   UNL     1      -8.215   2.003 -33.197  1.00  0.00    -0.205 NA
HETATM    3  C   UNL     1      -9.146   2.872 -33.627  1.00  0.00     0.191 A 
HETATM    4  N   UNL     1     -10.424   2.558 -33.855  1.00  0.00    -0.218 NA
HETATM    5  C   UNL     1     -10.813   1.300 -33.554  1.00  0.00     0.146 A 
HETATM    6  C   UNL     1      -9.919   0.370 -33.048  1.00  0.00     0.087 A 
ENDROOT
BRANCH   3   7
HETATM    7  S   UNL     1      -8.652   4.563 -33.852  1.00  0.00    -0.084 SA
BRANCH   7   8
HETATM    8  C   UNL     1      -7.449   4.655 -32.495  1.00  0.00     0.147 C 
BRANCH   8   9
HETATM    9  C   UNL     1      -6.047   4.832 -32.956  1.00  0.00     0.063 A 
HETATM   10  O   UNL     1      -5.092   5.041 -32.001  1.00  0.00    -0.309 OA
HETATM   11  C   UNL     1      -3.875   4.983 -32.628  1.00  0.00     0.143 A 
HETATM   12  C   UNL     1      -4.057   4.784 -33.980  1.00  0.00     0.045 A 
HETATM   13  C   UNL     1      -5.453   4.713 -34.195  1.00  0.00     0.036 A 
BRANCH  11  14
HETATM   14  C   UNL     1      -2.675   5.075 -31.834  1.00  0.00     0.275 C 
HETATM   15  N   UNL     1      -2.643   6.118 -30.933  1.00  0.00    -0.354 N 
HETATM   16  H   UNL     1      -3.421   6.773 -30.989  1.00  0.00     0.162 HD
HETATM   17  O   UNL     1      -1.733   4.282 -31.887  1.00  0.00    -0.265 OA
BRANCH  15  18
HETATM   18  C   UNL     1      -1.426   6.514 -30.241  1.00  0.00     0.150 C 
BRANCH  18  19
HETATM   19  C   UNL     1      -1.665   7.090 -28.831  1.00  0.00     0.253 C 
BRANCH  19  20
HETATM   20  N   UNL     1      -0.959   6.296 -27.751  1.00  0.00    -0.077 N 
HETATM   21  H   UNL     1      -1.239   5.302 -27.869  1.00  0.00     0.279 HD
HETATM   22  C   UNL     1       0.534   6.268 -27.903  1.00  0.00     0.269 C 
HETATM   23  C   UNL     1      -1.374   6.706 -26.371  1.00  0.00     0.269 C 
ENDBRANCH  19  20
ENDBRANCH  18  19
ENDBRANCH  15  18
ENDBRANCH  11  14
ENDBRANCH   8   9
ENDBRANCH   7   8
ENDBRANCH   3   7
BRANCH   1  24
HETATM   24  N   UNL     1      -7.655  -0.120 -32.340  1.00  0.00    -0.362 N 
HETATM   25  C   UNL     1      -7.076   0.292 -31.042  1.00  0.00     0.152 C 
HETATM   26  C   UNL     1      -5.843   1.197 -31.249  1.00  0.00     0.254 C 
HETATM   27  N   UNL     1      -4.816   0.480 -32.138  1.00  0.00    -0.072 N 
HETATM   28  C   UNL     1      -3.566   1.283 -32.327  1.00  0.00     0.269 C 
HETATM   29  H   UNL     1      -4.550  -0.383 -31.645  1.00  0.00     0.279 HD
HETATM   30  C   UNL     1      -5.440   0.065 -33.469  1.00  0.00     0.254 C 
HETATM   31  C   UNL     1      -6.697  -0.803 -33.232  1.00  0.00     0.152 C 
ENDBRANCH   1  24
BRANCH   5  32
HETATM   32  C   UNL     1     -12.261   0.890 -33.769  1.00  0.00     0.434 C 
HETATM   33  F   UNL     1     -12.540  -0.379 -33.368  1.00  0.00    -0.165 F 
HETATM   34  F   UNL     1     -13.120   1.702 -33.091  1.00  0.00    -0.165 F 
HETATM   35  F   UNL     1     -12.631   0.967 -35.077  1.00  0.00    -0.165 F 
ENDBRANCH   5  32
TORSDOF 9
ENDMDL
MODEL 9
REMARK VINA RESULT:      -7.2      2.542      3.410
REMARK  9 active torsions:
REMARK  status: ('A' for Active; 'I' for Inactive)
REMARK    1  A    between atoms: N_6  and  C_7 
REMARK    2  A    between atoms: C_9  and  S_10 
REMARK    3  A    between atoms: S_10  and  C_11 
REMARK    4  A    between atoms: C_11  and  C_12 
REMARK    5  A    between atoms: C_14  and  C_15 
REMARK       I    between atoms: C_15  and  N_16 
REMARK    6  A    between atoms: N_16  and  C_17 
REMARK    7  A    between atoms: C_17  and  C_18 
REMARK    8  A    between atoms: C_18  and  N_19 
REMARK    9  A    between atoms: C_27  and  C_28 
ROOT
HETATM    1  C   UNL     1      -8.961   2.357 -34.142  1.00  0.00     0.130 A 
HETATM    2  N   UNL     1      -8.143   3.392 -33.881  1.00  0.00    -0.205 NA
HETATM    3  C   UNL     1      -6.819   3.161 -33.816  1.00  0.00     0.191 A 
HETATM    4  N   UNL     1      -6.259   1.952 -33.906  1.00  0.00    -0.218 NA
HETATM    5  C   UNL     1      -7.079   0.910 -34.160  1.00  0.00     0.146 A 
HETATM    6  C   UNL     1      -8.446   1.084 -34.301  1.00  0.00     0.087 A 
ENDROOT
BRANCH   3   7
HETATM    7  S   UNL     1      -5.746   4.567 -33.655  1.00  0.00    -0.084 SA
BRANCH   7   8
HETATM    8  C   UNL     1      -4.536   3.830 -32.519  1.00  0.00     0.147 C 
BRANCH   8   9
HETATM    9  C   UNL     1      -3.203   4.487 -32.566  1.00  0.00     0.063 A 
HETATM   10  O   UNL     1      -2.485   4.536 -31.404  1.00  0.00    -0.309 OA
HETATM   11  C   UNL     1      -1.235   5.001 -31.721  1.00  0.00     0.143 A 
HETATM   12  C   UNL     1      -1.174   5.287 -33.069  1.00  0.00     0.045 A 
HETATM   13  C   UNL     1      -2.446   4.982 -33.607  1.00  0.00     0.036 A 
BRANCH  11  14
HETATM   14  C   UNL     1      -0.230   5.063 -30.691  1.00  0.00     0.275 C 
HETATM   15  N   UNL     1      -0.622   5.680 -29.522  1.00  0.00    -0.354 N 
HETATM   16  H   UNL     1      -1.542   6.117 -29.542  1.00  0.00     0.162 HD
HETATM   17  O   UNL     1       0.900   4.578 -30.778  1.00  0.00    -0.265 OA
BRANCH  15  18
HETATM   18  C   UNL     1       0.326   6.058 -28.483  1.00  0.00     0.150 C 
BRANCH  18  19
HETATM   19  C   UNL     1      -0.308   6.226 -27.088  1.00  0.00     0.253 C 
BRANCH  19  20
HETATM   20  N   UNL     1       0.323   7.352 -26.295  1.00  0.00    -0.077 N 
HETATM   21  H   UNL     1       0.704   6.936 -25.422  1.00  0.00     0.279 HD
HETATM   22  C   UNL     1       1.526   7.957 -26.959  1.00  0.00     0.269 C 
HETATM   23  C   UNL     1      -0.672   8.394 -25.883  1.00  0.00     0.269 C 
ENDBRANCH  19  20
ENDBRANCH  18  19
ENDBRANCH  15  18
ENDBRANCH  11  14
ENDBRANCH   8   9
ENDBRANCH   7   8
ENDBRANCH   3   7
BRANCH   1  24
HETATM   24  N   UNL     1     -10.325   2.613 -34.316  1.00  0.00    -0.362 N 
HETATM   25  C   UNL     1     -10.656   3.787 -35.153  1.00  0.00     0.152 C 
HETATM   26  C   UNL     1     -10.716   5.074 -34.302  1.00  0.00     0.254 C 
HETATM   27  N   UNL     1     -11.712   4.886 -33.148  1.00  0.00    -0.072 N 
HETATM   28  C   UNL     1     -11.862   6.125 -32.318  1.00  0.00     0.269 C 
HETATM   29  H   UNL     1     -12.628   4.696 -33.576  1.00  0.00     0.279 HD
HETATM   30  C   UNL     1     -11.346   3.668 -32.302  1.00  0.00     0.254 C 
HETATM   31  C   UNL     1     -11.250   2.404 -33.185  1.00  0.00     0.152 C 
ENDBRANCH   1  24
BRANCH   5  32
HETATM   32  C   UNL     1      -6.495  -0.488 -34.298  1.00  0.00     0.434 C 
HETATM   33  F   UNL     1      -5.197  -0.585 -33.907  1.00  0.00    -0.165 F 
HETATM   34  F   UNL     1      -7.187  -1.398 -33.555  1.00  0.00    -0.165 F 
HETATM   35  F   UNL     1      -6.543  -0.943 -35.581  1.00  0.00    -0.165 F 
ENDBRANCH   5  32
TORSDOF 9
ENDMDL
MODEL 10
REMARK VINA RESULT:      -7.1      3.954      7.751
REMARK  9 active torsions:
REMARK  status: ('A' for Active; 'I' for Inactive)
REMARK    1  A    between atoms: N_6  and  C_7 
REMARK    2  A    between atoms: C_9  and  S_10 
REMARK    3  A    between atoms: S_10  and  C_11 
REMARK    4  A    between atoms: C_11  and  C_12 
REMARK    5  A    between atoms: C_14  and  C_15 
REMARK       I    between atoms: C_15  and  N_16 
REMARK    6  A    between atoms: N_16  and  C_17 
REMARK    7  A    between atoms: C_17  and  C_18 
REMARK    8  A    between atoms: C_18  and  N_19 
REMARK    9  A    between atoms: C_27  and  C_28 
ROOT
HETATM    1  C   UNL     1      -4.494  -0.515 -32.180  1.00  0.00     0.130 A 
HETATM    2  N   UNL     1      -5.362   0.008 -33.064  1.00  0.00    -0.205 NA
HETATM    3  C   UNL     1      -5.784  -0.763 -34.082  1.00  0.00     0.191 A 
HETATM    4  N   UNL     1      -5.334  -1.995 -34.331  1.00  0.00    -0.218 NA
HETATM    5  C   UNL     1      -4.455  -2.521 -33.451  1.00  0.00     0.146 A 
HETATM    6  C   UNL     1      -4.025  -1.806 -32.345  1.00  0.00     0.087 A 
ENDROOT
BRANCH   3   7
HETATM    7  S   UNL     1      -7.066  -0.117 -35.127  1.00  0.00    -0.084 SA
BRANCH   7   8
HETATM    8  C   UNL     1      -7.645   1.205 -34.025  1.00  0.00     0.147 C 
BRANCH   8   9
HETATM    9  C   UNL     1      -9.121   1.225 -33.848  1.00  0.00     0.063 A 
HETATM   10  O   UNL     1      -9.825   2.169 -34.542  1.00  0.00    -0.309 OA
HETATM   11  C   UNL     1     -11.155   1.880 -34.380  1.00  0.00     0.143 A 
HETATM   12  C   UNL     1     -11.297   0.787 -33.550  1.00  0.00     0.045 A 
HETATM   13  C   UNL     1      -9.990   0.382 -33.187  1.00  0.00     0.036 A 
BRANCH  11  14
HETATM   14  C   UNL     1     -12.132   2.666 -35.090  1.00  0.00     0.275 C 
HETATM   15  N   UNL     1     -11.841   4.009 -35.200  1.00  0.00    -0.354 N 
HETATM   16  H   UNL     1     -11.021   4.326 -34.685  1.00  0.00     0.162 HD
HETATM   17  O   UNL     1     -13.151   2.215 -35.617  1.00  0.00    -0.265 OA
BRANCH  15  18
HETATM   18  C   UNL     1     -12.821   4.986 -35.652  1.00  0.00     0.150 C 
BRANCH  18  19
HETATM   19  C   UNL     1     -13.325   5.928 -34.540  1.00  0.00     0.253 C 
BRANCH  19  20
HETATM   20  N   UNL     1     -12.542   7.223 -34.477  1.00  0.00    -0.077 N 
HETATM   21  H   UNL     1     -13.199   7.963 -34.161  1.00  0.00     0.279 HD
HETATM   22  C   UNL     1     -11.466   7.227 -33.430  1.00  0.00     0.269 C 
HETATM   23  C   UNL     1     -12.021   7.646 -35.817  1.00  0.00     0.269 C 
ENDBRANCH  19  20
ENDBRANCH  18  19
ENDBRANCH  15  18
ENDBRANCH  11  14
ENDBRANCH   8   9
ENDBRANCH   7   8
ENDBRANCH   3   7
BRANCH   1  24
HETATM   24  N   UNL     1      -4.138   0.247 -31.064  1.00  0.00    -0.362 N 
HETATM   25  C   UNL     1      -5.207   0.460 -30.063  1.00  0.00     0.152 C 
HETATM   26  C   UNL     1      -6.049   1.706 -30.410  1.00  0.00     0.254 C 
HETATM   27  N   UNL     1      -5.132   2.931 -30.546  1.00  0.00    -0.072 N 
HETATM   28  C   UNL     1      -5.897   4.189 -30.823  1.00  0.00     0.269 C 
HETATM   29  H   UNL     1      -4.666   3.054 -29.637  1.00  0.00     0.279 HD
HETATM   30  C   UNL     1      -4.038   2.683 -31.584  1.00  0.00     0.254 C 
HETATM   31  C   UNL     1      -3.240   1.406 -31.236  1.00  0.00     0.152 C 
ENDBRANCH   1  24
BRANCH   5  32
HETATM   32  C   UNL     1      -3.926  -3.930 -33.669  1.00  0.00     0.434 C 
HETATM   33  F   UNL     1      -3.224  -4.425 -32.615  1.00  0.00    -0.165 F 
HETATM   34  F   UNL     1      -4.934  -4.816 -33.906  1.00  0.00    -0.165 F 
HETATM   35  F   UNL     1      -3.100  -4.010 -34.749  1.00  0.00    -0.165 F 
ENDBRANCH   5  32
TORSDOF 9
ENDMDL
