MODEL 1
REMARK VINA RESULT:      -8.8      0.000      0.000
REMARK  7 active torsions:
REMARK  status: ('A' for Active; 'I' for Inactive)
REMARK    1  A    between atoms: C_8  and  N_9 
REMARK       I    between atoms: N_9  and  C_10 
REMARK    2  A    between atoms: C_10  and  C_11 
REMARK    3  A    between atoms: C_11  and  N_12 
REMARK    4  A    between atoms: N_12  and  C_14 
REMARK    5  A    between atoms: C_14  and  C_15 
REMARK       I    between atoms: C_15  and  N_16 
REMARK    6  A    between atoms: N_16  and  C_17 
REMARK    7  A    between atoms: C_19  and  C_20 
ROOT
HETATM    1  N   UNL     1      -5.514   3.670 -32.046  1.00  0.00    -0.058 N 
HETATM    2  H   UNL     1      -5.104   3.021 -32.739  1.00  0.00     0.280 HD
HETATM    3  C   UNL     1      -6.374   4.646 -32.798  1.00  0.00     0.270 C 
ENDROOT
BRANCH   1   4
HETATM    4  C   UNL     1      -4.318   4.358 -31.368  1.00  0.00     0.337 C 
BRANCH   4   5
HETATM    5  C   UNL     1      -3.009   3.660 -31.730  1.00  0.00     0.248 C 
HETATM    6  N   UNL     1      -2.091   4.207 -32.562  1.00  0.00    -0.322 N 
HETATM    7  H   UNL     1      -1.440   3.521 -32.938  1.00  0.00     0.169 HD
HETATM    8  O   UNL     1      -2.826   2.516 -31.291  1.00  0.00    -0.271 OA
BRANCH   6   9
HETATM    9  C   UNL     1      -1.905   5.498 -33.022  1.00  0.00     0.085 C 
HETATM   10  C   UNL     1      -2.523   5.933 -34.181  1.00  0.00     0.052 C 
HETATM   11  C   UNL     1      -3.443   5.272 -35.139  1.00  0.00     0.072 C 
HETATM   12  N   UNL     1      -2.150   7.238 -34.344  1.00  0.00    -0.280 N 
HETATM   13  H   UNL     1      -2.422   7.888 -35.077  1.00  0.00     0.189 HD
HETATM   14  N   UNL     1      -1.295   7.663 -33.408  1.00  0.00    -0.177 NA
HETATM   15  C   UNL     1      -1.073   6.590 -32.640  1.00  0.00     0.079 C 
HETATM   16  C   UNL     1       0.040   6.697 -31.664  1.00  0.00     0.075 C 
ENDBRANCH   6   9
ENDBRANCH   4   5
ENDBRANCH   1   4
BRANCH   1  17
HETATM   17  C   UNL     1      -6.299   2.782 -31.068  1.00  0.00     0.337 C 
BRANCH  17  18
HETATM   18  C   UNL     1      -6.268   1.280 -31.392  1.00  0.00     0.248 C 
HETATM   19  N   UNL     1      -5.352   0.942 -32.375  1.00  0.00    -0.326 N 
HETATM   20  H   UNL     1      -4.961   1.682 -32.948  1.00  0.00     0.169 HD
HETATM   21  O   UNL     1      -7.004   0.502 -30.793  1.00  0.00    -0.271 OA
BRANCH  19  22
HETATM   22  C   UNL     1      -4.940  -0.361 -32.737  1.00  0.00     0.035 A 
HETATM   23  C   UNL     1      -5.627  -1.176 -33.640  1.00  0.00     0.047 A 
HETATM   24  C   UNL     1      -5.198  -2.494 -33.915  1.00  0.00     0.071 A 
HETATM   25  C   UNL     1      -4.055  -2.977 -33.273  1.00  0.00     0.049 A 
HETATM   26 CL   UNL     1      -3.457  -4.573 -33.533  1.00  0.00    -0.083 Cl
HETATM   27  C   UNL     1      -3.358  -2.166 -32.375  1.00  0.00     0.027 A 
HETATM   28  C   UNL     1      -3.801  -0.869 -32.104  1.00  0.00     0.031 A 
BRANCH  24  29
HETATM   29  C   UNL     1      -5.986  -3.356 -34.868  1.00  0.00     0.419 C 
HETATM   30  F   UNL     1      -5.317  -3.609 -36.031  1.00  0.00    -0.166 F 
HETATM   31  F   UNL     1      -6.293  -4.578 -34.356  1.00  0.00    -0.166 F 
HETATM   32  F   UNL     1      -7.160  -2.783 -35.249  1.00  0.00    -0.166 F 
ENDBRANCH  24  29
ENDBRANCH  19  22
ENDBRANCH  17  18
ENDBRANCH   1  17
TORSDOF 7
ENDMDL
MODEL 2
REMARK VINA RESULT:      -8.5      1.350      1.878
REMARK  7 active torsions:
REMARK  status: ('A' for Active; 'I' for Inactive)
REMARK    1  A    between atoms: C_8  and  N_9 
REMARK       I    between atoms: N_9  and  C_10 
REMARK    2  A    between atoms: C_10  and  C_11 
REMARK    3  A    between atoms: C_11  and  N_12 
REMARK    4  A    between atoms: N_12  and  C_14 
REMARK    5  A    between atoms: C_14  and  C_15 
REMARK       I    between atoms: C_15  and  N_16 
REMARK    6  A    between atoms: N_16  and  C_17 
REMARK    7  A    between atoms: C_19  and  C_20 
ROOT
HETATM    1  N   UNL     1      -5.369   3.374 -31.865  1.00  0.00    -0.058 N 
HETATM    2  H   UNL     1      -4.991   2.864 -32.682  1.00  0.00     0.280 HD
HETATM    3  C   UNL     1      -6.554   4.167 -32.339  1.00  0.00     0.270 C 
ENDROOT
BRANCH   1   4
HETATM    4  C   UNL     1      -4.225   4.279 -31.382  1.00  0.00     0.337 C 
BRANCH   4   5
HETATM    5  C   UNL     1      -2.865   3.656 -31.692  1.00  0.00     0.248 C 
HETATM    6  N   UNL     1      -1.956   4.243 -32.506  1.00  0.00    -0.322 N 
HETATM    7  H   UNL     1      -1.254   3.591 -32.849  1.00  0.00     0.169 HD
HETATM    8  O   UNL     1      -2.629   2.532 -31.227  1.00  0.00    -0.271 OA
BRANCH   6   9
HETATM    9  C   UNL     1      -1.833   5.535 -32.983  1.00  0.00     0.085 C 
HETATM   10  C   UNL     1      -2.469   5.924 -34.147  1.00  0.00     0.052 C 
HETATM   11  C   UNL     1      -3.355   5.206 -35.098  1.00  0.00     0.072 C 
HETATM   12  N   UNL     1      -2.161   7.243 -34.328  1.00  0.00    -0.280 N 
HETATM   13  H   UNL     1      -2.464   7.869 -35.071  1.00  0.00     0.189 HD
HETATM   14  N   UNL     1      -1.330   7.722 -33.398  1.00  0.00    -0.177 NA
HETATM   15  C   UNL     1      -1.056   6.672 -32.615  1.00  0.00     0.079 C 
HETATM   16  C   UNL     1       0.050   6.847 -31.640  1.00  0.00     0.075 C 
ENDBRANCH   6   9
ENDBRANCH   4   5
ENDBRANCH   1   4
BRANCH   1  17
HETATM   17  C   UNL     1      -5.723   2.291 -30.835  1.00  0.00     0.337 C 
BRANCH  17  18
HETATM   18  C   UNL     1      -6.227   0.969 -31.432  1.00  0.00     0.248 C 
HETATM   19  N   UNL     1      -5.544   0.578 -32.573  1.00  0.00    -0.326 N 
HETATM   20  H   UNL     1      -4.960   1.259 -33.045  1.00  0.00     0.169 HD
HETATM   21  O   UNL     1      -7.146   0.357 -30.896  1.00  0.00    -0.271 OA
BRANCH  19  22
HETATM   22  C   UNL     1      -5.626  -0.675 -33.221  1.00  0.00     0.035 A 
HETATM   23  C   UNL     1      -4.716  -1.718 -33.026  1.00  0.00     0.047 A 
HETATM   24  C   UNL     1      -4.817  -2.927 -33.750  1.00  0.00     0.071 A 
HETATM   25  C   UNL     1      -5.858  -3.076 -34.671  1.00  0.00     0.049 A 
HETATM   26 CL   UNL     1      -6.060  -4.507 -35.609  1.00  0.00    -0.083 Cl
HETATM   27  C   UNL     1      -6.775  -2.042 -34.865  1.00  0.00     0.027 A 
HETATM   28  C   UNL     1      -6.657  -0.848 -34.151  1.00  0.00     0.031 A 
BRANCH  24  29
HETATM   29  C   UNL     1      -3.795  -4.015 -33.538  1.00  0.00     0.419 C 
HETATM   30  F   UNL     1      -3.022  -4.238 -34.641  1.00  0.00    -0.166 F 
HETATM   31  F   UNL     1      -2.921  -3.740 -32.534  1.00  0.00    -0.166 F 
HETATM   32  F   UNL     1      -4.360  -5.218 -33.250  1.00  0.00    -0.166 F 
ENDBRANCH  24  29
ENDBRANCH  19  22
ENDBRANCH  17  18
ENDBRANCH   1  17
TORSDOF 7
ENDMDL
MODEL 3
REMARK VINA RESULT:      -8.2      3.049      5.408
REMARK  7 active torsions:
REMARK  status: ('A' for Active; 'I' for Inactive)
REMARK    1  A    between atoms: C_8  and  N_9 
REMARK       I    between atoms: N_9  and  C_10 
REMARK    2  A    between atoms: C_10  and  C_11 
REMARK    3  A    between atoms: C_11  and  N_12 
REMARK    4  A    between atoms: N_12  and  C_14 
REMARK    5  A    between atoms: C_14  and  C_15 
REMARK       I    between atoms: C_15  and  N_16 
REMARK    6  A    between atoms: N_16  and  C_17 
REMARK    7  A    between atoms: C_19  and  C_20 
ROOT
HETATM    1  N   UNL     1      -5.469   3.453 -31.603  1.00  0.00    -0.058 N 
HETATM    2  H   UNL     1      -6.367   3.295 -31.114  1.00  0.00     0.280 HD
HETATM    3  C   UNL     1      -4.855   4.697 -31.024  1.00  0.00     0.270 C 
ENDROOT
BRANCH   1   4
HETATM    4  C   UNL     1      -5.833   3.625 -33.086  1.00  0.00     0.337 C 
BRANCH   4   5
HETATM    5  C   UNL     1      -7.121   4.430 -33.244  1.00  0.00     0.248 C 
HETATM    6  N   UNL     1      -8.352   3.876 -33.131  1.00  0.00    -0.322 N 
HETATM    7  H   UNL     1      -9.082   4.448 -33.550  1.00  0.00     0.169 HD
HETATM    8  O   UNL     1      -7.019   5.624 -33.557  1.00  0.00    -0.271 OA
BRANCH   6   9
HETATM    9  C   UNL     1      -8.786   2.676 -32.598  1.00  0.00     0.085 C 
HETATM   10  C   UNL     1      -8.896   2.507 -31.230  1.00  0.00     0.052 C 
HETATM   11  C   UNL     1      -8.641   3.411 -30.081  1.00  0.00     0.072 C 
HETATM   12  N   UNL     1      -9.358   1.235 -31.040  1.00  0.00    -0.280 N 
HETATM   13  H   UNL     1      -9.575   0.764 -30.164  1.00  0.00     0.189 HD
HETATM   14  N   UNL     1      -9.503   0.550 -32.178  1.00  0.00    -0.177 NA
HETATM   15  C   UNL     1      -9.083   1.388 -33.133  1.00  0.00     0.079 C 
HETATM   16  C   UNL     1      -8.890   0.805 -34.484  1.00  0.00     0.075 C 
ENDBRANCH   6   9
ENDBRANCH   4   5
ENDBRANCH   1   4
BRANCH   1  17
HETATM   17  C   UNL     1      -4.640   2.183 -31.355  1.00  0.00     0.337 C 
BRANCH  17  18
HETATM   18  C   UNL     1      -5.311   0.875 -31.801  1.00  0.00     0.248 C 
HETATM   19  N   UNL     1      -4.752   0.325 -32.942  1.00  0.00    -0.326 N 
HETATM   20  H   UNL     1      -4.140   0.901 -33.510  1.00  0.00     0.169 HD
HETATM   21  O   UNL     1      -6.244   0.407 -31.156  1.00  0.00    -0.271 OA
BRANCH  19  22
HETATM   22  C   UNL     1      -5.001  -0.963 -33.471  1.00  0.00     0.035 A 
HETATM   23  C   UNL     1      -4.213  -2.084 -33.201  1.00  0.00     0.047 A 
HETATM   24  C   UNL     1      -4.477  -3.333 -33.809  1.00  0.00     0.071 A 
HETATM   25  C   UNL     1      -5.559  -3.438 -34.688  1.00  0.00     0.049 A 
HETATM   26 CL   UNL     1      -5.957  -4.913 -35.486  1.00  0.00    -0.083 Cl
HETATM   27  C   UNL     1      -6.356  -2.324 -34.956  1.00  0.00     0.027 A 
HETATM   28  C   UNL     1      -6.075  -1.093 -34.357  1.00  0.00     0.031 A 
BRANCH  24  29
HETATM   29  C   UNL     1      -3.583  -4.512 -33.521  1.00  0.00     0.419 C 
HETATM   30  F   UNL     1      -2.678  -4.261 -32.531  1.00  0.00    -0.166 F 
HETATM   31  F   UNL     1      -4.266  -5.615 -33.113  1.00  0.00    -0.166 F 
HETATM   32  F   UNL     1      -2.841  -4.885 -34.597  1.00  0.00    -0.166 F 
ENDBRANCH  24  29
ENDBRANCH  19  22
ENDBRANCH  17  18
ENDBRANCH   1  17
TORSDOF 7
ENDMDL
MODEL 4
REMARK VINA RESULT:      -8.0      3.008      5.360
REMARK  7 active torsions:
REMARK  status: ('A' for Active; 'I' for Inactive)
REMARK    1  A    between atoms: C_8  and  N_9 
REMARK       I    between atoms: N_9  and  C_10 
REMARK    2  A    between atoms: C_10  and  C_11 
REMARK    3  A    between atoms: C_11  and  N_12 
REMARK    4  A    between atoms: N_12  and  C_14 
REMARK    5  A    between atoms: C_14  and  C_15 
REMARK       I    between atoms: C_15  and  N_16 
REMARK    6  A    between atoms: N_16  and  C_17 
REMARK    7  A    between atoms: C_19  and  C_20 
ROOT
HETATM    1  N   UNL     1      -5.045   3.337 -31.094  1.00  0.00    -0.058 N 
HETATM    2  H   UNL     1      -5.258   2.944 -30.162  1.00  0.00     0.280 HD
HETATM    3  C   UNL     1      -4.495   4.719 -30.885  1.00  0.00     0.270 C 
ENDROOT
BRANCH   1   4
HETATM    4  C   UNL     1      -6.386   3.358 -31.847  1.00  0.00     0.337 C 
BRANCH   4   5
HETATM    5  C   UNL     1      -7.515   2.825 -30.968  1.00  0.00     0.248 C 
HETATM    6  N   UNL     1      -8.786   2.680 -31.412  1.00  0.00    -0.322 N 
HETATM    7  H   UNL     1      -9.463   2.610 -30.655  1.00  0.00     0.169 HD
HETATM    8  O   UNL     1      -7.255   2.586 -29.780  1.00  0.00    -0.271 OA
BRANCH   6   9
HETATM    9  C   UNL     1      -9.329   2.653 -32.683  1.00  0.00     0.085 C 
HETATM   10  C   UNL     1      -9.689   1.455 -33.275  1.00  0.00     0.052 C 
HETATM   11  C   UNL     1      -9.632   0.047 -32.810  1.00  0.00     0.072 C 
HETATM   12  N   UNL     1     -10.198   1.775 -34.502  1.00  0.00    -0.280 N 
HETATM   13  H   UNL     1     -10.578   1.153 -35.212  1.00  0.00     0.189 HD
HETATM   14  N   UNL     1     -10.145   3.083 -34.771  1.00  0.00    -0.177 NA
HETATM   15  C   UNL     1      -9.545   3.623 -33.704  1.00  0.00     0.079 C 
HETATM   16  C   UNL     1      -9.119   5.040 -33.835  1.00  0.00     0.075 C 
ENDBRANCH   6   9
ENDBRANCH   4   5
ENDBRANCH   1   4
BRANCH   1  17
HETATM   17  C   UNL     1      -4.042   2.363 -31.730  1.00  0.00     0.337 C 
BRANCH  17  18
HETATM   18  C   UNL     1      -4.534   0.912 -31.846  1.00  0.00     0.248 C 
HETATM   19  N   UNL     1      -4.849   0.535 -33.142  1.00  0.00    -0.326 N 
HETATM   20  H   UNL     1      -4.960   1.258 -33.844  1.00  0.00     0.169 HD
HETATM   21  O   UNL     1      -4.607   0.200 -30.849  1.00  0.00    -0.271 OA
BRANCH  19  22
HETATM   22  C   UNL     1      -5.120  -0.775 -33.600  1.00  0.00     0.035 A 
HETATM   23  C   UNL     1      -4.312  -1.881 -33.326  1.00  0.00     0.047 A 
HETATM   24  C   UNL     1      -4.603  -3.155 -33.865  1.00  0.00     0.071 A 
HETATM   25  C   UNL     1      -5.730  -3.301 -34.678  1.00  0.00     0.049 A 
HETATM   26 CL   UNL     1      -6.164  -4.810 -35.390  1.00  0.00    -0.083 Cl
HETATM   27  C   UNL     1      -6.546  -2.202 -34.950  1.00  0.00     0.027 A 
HETATM   28  C   UNL     1      -6.240  -0.946 -34.420  1.00  0.00     0.031 A 
BRANCH  24  29
HETATM   29  C   UNL     1      -3.688  -4.318 -33.576  1.00  0.00     0.419 C 
HETATM   30  F   UNL     1      -4.365  -5.451 -33.228  1.00  0.00    -0.166 F 
HETATM   31  F   UNL     1      -2.919  -4.671 -34.641  1.00  0.00    -0.166 F 
HETATM   32  F   UNL     1      -2.840  -4.077 -32.541  1.00  0.00    -0.166 F 
ENDBRANCH  24  29
ENDBRANCH  19  22
ENDBRANCH  17  18
ENDBRANCH   1  17
TORSDOF 7
ENDMDL
MODEL 5
REMARK VINA RESULT:      -8.0      3.220      5.380
REMARK  7 active torsions:
REMARK  status: ('A' for Active; 'I' for Inactive)
REMARK    1  A    between atoms: C_8  and  N_9 
REMARK       I    between atoms: N_9  and  C_10 
REMARK    2  A    between atoms: C_10  and  C_11 
REMARK    3  A    between atoms: C_11  and  N_12 
REMARK    4  A    between atoms: N_12  and  C_14 
REMARK    5  A    between atoms: C_14  and  C_15 
REMARK       I    between atoms: C_15  and  N_16 
REMARK    6  A    between atoms: N_16  and  C_17 
REMARK    7  A    between atoms: C_19  and  C_20 
ROOT
HETATM    1  N   UNL     1      -6.566   3.276 -31.103  1.00  0.00    -0.058 N 
HETATM    2  H   UNL     1      -6.824   2.334 -31.443  1.00  0.00     0.280 HD
HETATM    3  C   UNL     1      -7.347   3.529 -29.844  1.00  0.00     0.270 C 
ENDROOT
BRANCH   1   4
HETATM    4  C   UNL     1      -6.960   4.243 -32.231  1.00  0.00     0.337 C 
BRANCH   4   5
HETATM    5  C   UNL     1      -6.884   3.555 -33.593  1.00  0.00     0.248 C 
HETATM    6  N   UNL     1      -7.850   2.723 -34.050  1.00  0.00    -0.322 N 
HETATM    7  H   UNL     1      -7.528   2.124 -34.807  1.00  0.00     0.169 HD
HETATM    8  O   UNL     1      -5.856   3.721 -34.264  1.00  0.00    -0.271 OA
BRANCH   6   9
HETATM    9  C   UNL     1      -9.158   2.513 -33.657  1.00  0.00     0.085 C 
HETATM   10  C   UNL     1      -9.473   1.518 -32.748  1.00  0.00     0.052 C 
HETATM   11  C   UNL     1      -8.647   0.529 -32.012  1.00  0.00     0.072 C 
HETATM   12  N   UNL     1     -10.826   1.584 -32.566  1.00  0.00    -0.280 N 
HETATM   13  H   UNL     1     -11.411   1.018 -31.956  1.00  0.00     0.189 HD
HETATM   14  N   UNL     1     -11.417   2.509 -33.327  1.00  0.00    -0.177 NA
HETATM   15  C   UNL     1     -10.424   3.030 -34.058  1.00  0.00     0.079 C 
HETATM   16  C   UNL     1     -10.825   3.911 -35.184  1.00  0.00     0.075 C 
ENDBRANCH   6   9
ENDBRANCH   4   5
ENDBRANCH   1   4
BRANCH   1  17
HETATM   17  C   UNL     1      -5.046   3.231 -30.887  1.00  0.00     0.337 C 
BRANCH  17  18
HETATM   18  C   UNL     1      -4.328   2.065 -31.583  1.00  0.00     0.248 C 
HETATM   19  N   UNL     1      -4.918   0.832 -31.352  1.00  0.00    -0.326 N 
HETATM   20  H   UNL     1      -5.591   0.750 -30.598  1.00  0.00     0.169 HD
HETATM   21  O   UNL     1      -3.336   2.272 -32.276  1.00  0.00    -0.271 OA
BRANCH  19  22
HETATM   22  C   UNL     1      -4.627  -0.383 -32.015  1.00  0.00     0.035 A 
HETATM   23  C   UNL     1      -5.379  -0.894 -33.075  1.00  0.00     0.047 A 
HETATM   24  C   UNL     1      -5.074  -2.146 -33.657  1.00  0.00     0.071 A 
HETATM   25  C   UNL     1      -3.989  -2.873 -33.159  1.00  0.00     0.049 A 
HETATM   26 CL   UNL     1      -3.543  -4.413 -33.793  1.00  0.00    -0.083 Cl
HETATM   27  C   UNL     1      -3.229  -2.365 -32.104  1.00  0.00     0.027 A 
HETATM   28  C   UNL     1      -3.549  -1.131 -31.532  1.00  0.00     0.031 A 
BRANCH  24  29
HETATM   29  C   UNL     1      -5.930  -2.682 -34.776  1.00  0.00     0.419 C 
HETATM   30  F   UNL     1      -6.889  -1.798 -35.179  1.00  0.00    -0.166 F 
HETATM   31  F   UNL     1      -5.221  -2.979 -35.897  1.00  0.00    -0.166 F 
HETATM   32  F   UNL     1      -6.607  -3.809 -34.428  1.00  0.00    -0.166 F 
ENDBRANCH  24  29
ENDBRANCH  19  22
ENDBRANCH  17  18
ENDBRANCH   1  17
TORSDOF 7
ENDMDL
MODEL 6
REMARK VINA RESULT:      -7.9      3.900      6.546
REMARK  7 active torsions:
REMARK  status: ('A' for Active; 'I' for Inactive)
REMARK    1  A    between atoms: C_8  and  N_9 
REMARK       I    between atoms: N_9  and  C_10 
REMARK    2  A    between atoms: C_10  and  C_11 
REMARK    3  A    between atoms: C_11  and  N_12 
REMARK    4  A    between atoms: N_12  and  C_14 
REMARK    5  A    between atoms: C_14  and  C_15 
REMARK       I    between atoms: C_15  and  N_16 
REMARK    6  A    between atoms: N_16  and  C_17 
REMARK    7  A    between atoms: C_19  and  C_20 
ROOT
HETATM    1  N   UNL     1      -8.062   2.702 -31.133  1.00  0.00    -0.058 N 
HETATM    2  H   UNL     1      -7.689   1.760 -30.927  1.00  0.00     0.280 HD
HETATM    3  C   UNL     1      -7.935   3.520 -29.879  1.00  0.00     0.270 C 
ENDROOT
BRANCH   1   4
HETATM    4  C   UNL     1      -9.530   2.485 -31.534  1.00  0.00     0.337 C 
BRANCH   4   5
HETATM    5  C   UNL     1      -9.723   1.115 -32.181  1.00  0.00     0.248 C 
HETATM    6  N   UNL     1     -10.744   0.840 -33.027  1.00  0.00    -0.322 N 
HETATM    7  H   UNL     1     -10.913  -0.158 -33.131  1.00  0.00     0.169 HD
HETATM    8  O   UNL     1      -8.946   0.209 -31.852  1.00  0.00    -0.271 OA
BRANCH   6   9
HETATM    9  C   UNL     1     -11.613   1.653 -33.732  1.00  0.00     0.085 C 
HETATM   10  C   UNL     1     -12.910   1.249 -33.990  1.00  0.00     0.052 C 
HETATM   11  C   UNL     1     -13.670   0.022 -33.641  1.00  0.00     0.072 C 
HETATM   12  N   UNL     1     -13.497   2.272 -34.681  1.00  0.00    -0.280 N 
HETATM   13  H   UNL     1     -14.452   2.337 -35.025  1.00  0.00     0.189 HD
HETATM   14  N   UNL     1     -12.663   3.283 -34.936  1.00  0.00    -0.177 NA
HETATM   15  C   UNL     1     -11.487   2.887 -34.433  1.00  0.00     0.079 C 
HETATM   16  C   UNL     1     -10.305   3.707 -34.798  1.00  0.00     0.075 C 
ENDBRANCH   6   9
ENDBRANCH   4   5
ENDBRANCH   1   4
BRANCH   1  17
HETATM   17  C   UNL     1      -7.216   3.229 -32.302  1.00  0.00     0.337 C 
BRANCH  17  18
HETATM   18  C   UNL     1      -6.358   2.169 -33.010  1.00  0.00     0.248 C 
HETATM   19  N   UNL     1      -6.041   1.086 -32.206  1.00  0.00    -0.326 N 
HETATM   20  H   UNL     1      -6.177   1.168 -31.205  1.00  0.00     0.169 HD
HETATM   21  O   UNL     1      -6.028   2.320 -34.182  1.00  0.00    -0.271 OA
BRANCH  19  22
HETATM   22  C   UNL     1      -5.457  -0.134 -32.621  1.00  0.00     0.035 A 
HETATM   23  C   UNL     1      -6.040  -1.006 -33.544  1.00  0.00     0.047 A 
HETATM   24  C   UNL     1      -5.436  -2.241 -33.872  1.00  0.00     0.071 A 
HETATM   25  C   UNL     1      -4.225  -2.581 -33.263  1.00  0.00     0.049 A 
HETATM   26 CL   UNL     1      -3.415  -4.067 -33.589  1.00  0.00    -0.083 Cl
HETATM   27  C   UNL     1      -3.632  -1.711 -32.346  1.00  0.00     0.027 A 
HETATM   28  C   UNL     1      -4.247  -0.499 -32.022  1.00  0.00     0.031 A 
BRANCH  24  29
HETATM   29  C   UNL     1      -6.114  -3.172 -34.845  1.00  0.00     0.419 C 
HETATM   30  F   UNL     1      -6.361  -4.405 -34.314  1.00  0.00    -0.166 F 
HETATM   31  F   UNL     1      -7.321  -2.715 -35.271  1.00  0.00    -0.166 F 
HETATM   32  F   UNL     1      -5.366  -3.405 -35.957  1.00  0.00    -0.166 F 
ENDBRANCH  24  29
ENDBRANCH  19  22
ENDBRANCH  17  18
ENDBRANCH   1  17
TORSDOF 7
ENDMDL
MODEL 7
REMARK VINA RESULT:      -7.6      4.900      7.526
REMARK  7 active torsions:
REMARK  status: ('A' for Active; 'I' for Inactive)
REMARK    1  A    between atoms: C_8  and  N_9 
REMARK       I    between atoms: N_9  and  C_10 
REMARK    2  A    between atoms: C_10  and  C_11 
REMARK    3  A    between atoms: C_11  and  N_12 
REMARK    4  A    between atoms: N_12  and  C_14 
REMARK    5  A    between atoms: C_14  and  C_15 
REMARK       I    between atoms: C_15  and  N_16 
REMARK    6  A    between atoms: N_16  and  C_17 
REMARK    7  A    between atoms: C_19  and  C_20 
ROOT
HETATM    1  N   UNL     1      -9.348   2.816 -33.686  1.00  0.00    -0.058 N 
HETATM    2  H   UNL     1      -9.273   3.534 -34.426  1.00  0.00     0.280 HD
HETATM    3  C   UNL     1      -9.971   1.597 -34.305  1.00  0.00     0.270 C 
ENDROOT
BRANCH   1   4
HETATM    4  C   UNL     1     -10.244   3.435 -32.601  1.00  0.00     0.337 C 
BRANCH   4   5
HETATM    5  C   UNL     1     -11.166   4.498 -33.194  1.00  0.00     0.248 C 
HETATM    6  N   UNL     1     -12.477   4.274 -33.449  1.00  0.00    -0.322 N 
HETATM    7  H   UNL     1     -12.872   4.946 -34.103  1.00  0.00     0.169 HD
HETATM    8  O   UNL     1     -10.661   5.583 -33.515  1.00  0.00    -0.271 OA
BRANCH   6   9
HETATM    9  C   UNL     1     -13.352   3.291 -33.025  1.00  0.00     0.085 C 
HETATM   10  C   UNL     1     -13.848   3.293 -31.733  1.00  0.00     0.052 C 
HETATM   11  C   UNL     1     -13.648   4.206 -30.581  1.00  0.00     0.072 C 
HETATM   12  N   UNL     1     -14.682   2.214 -31.644  1.00  0.00    -0.280 N 
HETATM   13  H   UNL     1     -15.237   1.907 -30.849  1.00  0.00     0.189 HD
HETATM   14  N   UNL     1     -14.721   1.484 -32.762  1.00  0.00    -0.177 NA
HETATM   15  C   UNL     1     -13.854   2.082 -33.588  1.00  0.00     0.079 C 
HETATM   16  C   UNL     1     -13.498   1.337 -34.822  1.00  0.00     0.075 C 
ENDBRANCH   6   9
ENDBRANCH   4   5
ENDBRANCH   1   4
BRANCH   1  17
HETATM   17  C   UNL     1      -7.912   2.590 -33.188  1.00  0.00     0.337 C 
BRANCH  17  18
HETATM   18  C   UNL     1      -7.504   1.116 -33.037  1.00  0.00     0.248 C 
HETATM   19  N   UNL     1      -6.656   0.669 -34.038  1.00  0.00    -0.326 N 
HETATM   20  H   UNL     1      -6.559   1.229 -34.878  1.00  0.00     0.169 HD
HETATM   21  O   UNL     1      -7.915   0.453 -32.090  1.00  0.00    -0.271 OA
BRANCH  19  22
HETATM   22  C   UNL     1      -5.944  -0.552 -34.062  1.00  0.00     0.035 A 
HETATM   23  C   UNL     1      -6.456  -1.745 -34.579  1.00  0.00     0.047 A 
HETATM   24  C   UNL     1      -5.718  -2.949 -34.519  1.00  0.00     0.071 A 
HETATM   25  C   UNL     1      -4.447  -2.931 -33.938  1.00  0.00     0.049 A 
HETATM   26 CL   UNL     1      -3.473  -4.348 -33.808  1.00  0.00    -0.083 Cl
HETATM   27  C   UNL     1      -3.926  -1.741 -33.426  1.00  0.00     0.027 A 
HETATM   28  C   UNL     1      -4.671  -0.561 -33.482  1.00  0.00     0.031 A 
BRANCH  24  29
HETATM   29  C   UNL     1      -6.318  -4.224 -35.055  1.00  0.00     0.419 C 
HETATM   30  F   UNL     1      -5.545  -4.810 -36.016  1.00  0.00    -0.166 F 
HETATM   31  F   UNL     1      -6.490  -5.177 -34.100  1.00  0.00    -0.166 F 
HETATM   32  F   UNL     1      -7.530  -4.030 -35.640  1.00  0.00    -0.166 F 
ENDBRANCH  24  29
ENDBRANCH  19  22
ENDBRANCH  17  18
ENDBRANCH   1  17
TORSDOF 7
ENDMDL
MODEL 8
REMARK VINA RESULT:      -7.5      3.654      5.026
REMARK  7 active torsions:
REMARK  status: ('A' for Active; 'I' for Inactive)
REMARK    1  A    between atoms: C_8  and  N_9 
REMARK       I    between atoms: N_9  and  C_10 
REMARK    2  A    between atoms: C_10  and  C_11 
REMARK    3  A    between atoms: C_11  and  N_12 
REMARK    4  A    between atoms: N_12  and  C_14 
REMARK    5  A    between atoms: C_14  and  C_15 
REMARK       I    between atoms: C_15  and  N_16 
REMARK    6  A    between atoms: N_16  and  C_17 
REMARK    7  A    between atoms: C_19  and  C_20 
ROOT
HETATM    1  N   UNL     1      -9.554   2.764 -33.108  1.00  0.00    -0.058 N 
HETATM    2  H   UNL     1      -8.854   3.515 -32.981  1.00  0.00     0.280 HD
HETATM    3  C   UNL     1     -10.879   3.424 -33.368  1.00  0.00     0.270 C 
ENDROOT
BRANCH   1   4
HETATM    4  C   UNL     1      -9.552   1.973 -31.790  1.00  0.00     0.337 C 
BRANCH   4   5
HETATM    5  C   UNL     1      -9.356   2.902 -30.594  1.00  0.00     0.248 C 
HETATM    6  N   UNL     1      -8.145   3.132 -30.033  1.00  0.00    -0.322 N 
HETATM    7  H   UNL     1      -8.212   3.514 -29.092  1.00  0.00     0.169 HD
HETATM    8  O   UNL     1     -10.367   3.404 -30.084  1.00  0.00    -0.271 OA
BRANCH   6   9
HETATM    9  C   UNL     1      -6.856   2.907 -30.480  1.00  0.00     0.085 C 
HETATM   10  C   UNL     1      -6.286   3.723 -31.440  1.00  0.00     0.052 C 
HETATM   11  C   UNL     1      -6.784   4.916 -32.170  1.00  0.00     0.072 C 
HETATM   12  N   UNL     1      -5.022   3.246 -31.644  1.00  0.00    -0.280 N 
HETATM   13  H   UNL     1      -4.303   3.605 -32.268  1.00  0.00     0.189 HD
HETATM   14  N   UNL     1      -4.749   2.151 -30.929  1.00  0.00    -0.177 NA
HETATM   15  C   UNL     1      -5.885   1.884 -30.273  1.00  0.00     0.079 C 
HETATM   16  C   UNL     1      -5.959   0.567 -29.591  1.00  0.00     0.075 C 
ENDBRANCH   6   9
ENDBRANCH   4   5
ENDBRANCH   1   4
BRANCH   1  17
HETATM   17  C   UNL     1      -9.041   1.923 -34.287  1.00  0.00     0.337 C 
BRANCH  17  18
HETATM   18  C   UNL     1      -7.688   1.235 -34.050  1.00  0.00     0.248 C 
HETATM   19  N   UNL     1      -7.790  -0.125 -33.808  1.00  0.00    -0.326 N 
HETATM   20  H   UNL     1      -8.700  -0.509 -33.577  1.00  0.00     0.169 HD
HETATM   21  O   UNL     1      -6.647   1.884 -34.097  1.00  0.00    -0.271 OA
BRANCH  19  22
HETATM   22  C   UNL     1      -6.731  -1.060 -33.767  1.00  0.00     0.035 A 
HETATM   23  C   UNL     1      -5.630  -0.958 -32.914  1.00  0.00     0.047 A 
HETATM   24  C   UNL     1      -4.571  -1.893 -32.963  1.00  0.00     0.071 A 
HETATM   25  C   UNL     1      -4.644  -2.945 -33.881  1.00  0.00     0.049 A 
HETATM   26 CL   UNL     1      -3.401  -4.130 -34.025  1.00  0.00    -0.083 Cl
HETATM   27  C   UNL     1      -5.746  -3.058 -34.732  1.00  0.00     0.027 A 
HETATM   28  C   UNL     1      -6.779  -2.119 -34.680  1.00  0.00     0.031 A 
BRANCH  24  29
HETATM   29  C   UNL     1      -3.382  -1.730 -32.051  1.00  0.00     0.419 C 
HETATM   30  F   UNL     1      -2.958  -2.912 -31.516  1.00  0.00    -0.166 F 
HETATM   31  F   UNL     1      -2.295  -1.207 -32.678  1.00  0.00    -0.166 F 
HETATM   32  F   UNL     1      -3.644  -0.928 -30.984  1.00  0.00    -0.166 F 
ENDBRANCH  24  29
ENDBRANCH  19  22
ENDBRANCH  17  18
ENDBRANCH   1  17
TORSDOF 7
ENDMDL
MODEL 9
REMARK VINA RESULT:      -7.5      2.039      2.804
REMARK  7 active torsions:
REMARK  status: ('A' for Active; 'I' for Inactive)
REMARK    1  A    between atoms: C_8  and  N_9 
REMARK       I    between atoms: N_9  and  C_10 
REMARK    2  A    between atoms: C_10  and  C_11 
REMARK    3  A    between atoms: C_11  and  N_12 
REMARK    4  A    between atoms: N_12  and  C_14 
REMARK    5  A    between atoms: C_14  and  C_15 
REMARK       I    between atoms: C_15  and  N_16 
REMARK    6  A    between atoms: N_16  and  C_17 
REMARK    7  A    between atoms: C_19  and  C_20 
ROOT
HETATM    1  N   UNL     1      -5.621   3.686 -31.082  1.00  0.00    -0.058 N 
HETATM    2  H   UNL     1      -6.444   3.672 -31.708  1.00  0.00     0.280 HD
HETATM    3  C   UNL     1      -6.114   3.441 -29.684  1.00  0.00     0.270 C 
ENDROOT
BRANCH   1   4
HETATM    4  C   UNL     1      -5.007   5.086 -31.242  1.00  0.00     0.337 C 
BRANCH   4   5
HETATM    5  C   UNL     1      -5.229   5.623 -32.654  1.00  0.00     0.248 C 
HETATM    6  N   UNL     1      -4.315   6.383 -33.303  1.00  0.00    -0.322 N 
HETATM    7  H   UNL     1      -4.715   6.902 -34.082  1.00  0.00     0.169 HD
HETATM    8  O   UNL     1      -6.325   5.404 -33.187  1.00  0.00    -0.271 OA
BRANCH   6   9
HETATM    9  C   UNL     1      -2.970   6.612 -33.080  1.00  0.00     0.085 C 
HETATM   10  C   UNL     1      -2.555   7.585 -32.189  1.00  0.00     0.052 C 
HETATM   11  C   UNL     1      -3.295   8.532 -31.318  1.00  0.00     0.072 C 
HETATM   12  N   UNL     1      -1.189   7.545 -32.190  1.00  0.00    -0.280 N 
HETATM   13  H   UNL     1      -0.538   8.106 -31.645  1.00  0.00     0.189 HD
HETATM   14  N   UNL     1      -0.688   6.657 -33.054  1.00  0.00    -0.177 NA
HETATM   15  C   UNL     1      -1.759   6.136 -33.663  1.00  0.00     0.079 C 
HETATM   16  C   UNL     1      -1.495   5.299 -34.860  1.00  0.00     0.075 C 
ENDBRANCH   6   9
ENDBRANCH   4   5
ENDBRANCH   1   4
BRANCH   1  17
HETATM   17  C   UNL     1      -4.689   2.584 -31.609  1.00  0.00     0.337 C 
BRANCH  17  18
HETATM   18  C   UNL     1      -5.395   1.438 -32.348  1.00  0.00     0.248 C 
HETATM   19  N   UNL     1      -4.525   0.501 -32.882  1.00  0.00    -0.326 N 
HETATM   20  H   UNL     1      -3.542   0.740 -32.957  1.00  0.00     0.169 HD
HETATM   21  O   UNL     1      -6.620   1.405 -32.414  1.00  0.00    -0.271 OA
BRANCH  19  22
HETATM   22  C   UNL     1      -4.865  -0.760 -33.423  1.00  0.00     0.035 A 
HETATM   23  C   UNL     1      -4.138  -1.931 -33.196  1.00  0.00     0.047 A 
HETATM   24  C   UNL     1      -4.494  -3.150 -33.815  1.00  0.00     0.071 A 
HETATM   25  C   UNL     1      -5.606  -3.175 -34.662  1.00  0.00     0.049 A 
HETATM   26 CL   UNL     1      -6.115  -4.610 -35.471  1.00  0.00    -0.083 Cl
HETATM   27  C   UNL     1      -6.342  -2.011 -34.888  1.00  0.00     0.027 A 
HETATM   28  C   UNL     1      -5.971  -0.810 -34.278  1.00  0.00     0.031 A 
BRANCH  24  29
HETATM   29  C   UNL     1      -3.664  -4.385 -33.574  1.00  0.00     0.419 C 
HETATM   30  F   UNL     1      -2.911  -4.737 -34.656  1.00  0.00    -0.166 F 
HETATM   31  F   UNL     1      -2.779  -4.244 -32.551  1.00  0.00    -0.166 F 
HETATM   32  F   UNL     1      -4.419  -5.481 -33.292  1.00  0.00    -0.166 F 
ENDBRANCH  24  29
ENDBRANCH  19  22
ENDBRANCH  17  18
ENDBRANCH   1  17
TORSDOF 7
ENDMDL
MODEL 10
REMARK VINA RESULT:      -7.4      5.370      7.960
REMARK  7 active torsions:
REMARK  status: ('A' for Active; 'I' for Inactive)
REMARK    1  A    between atoms: C_8  and  N_9 
REMARK       I    between atoms: N_9  and  C_10 
REMARK    2  A    between atoms: C_10  and  C_11 
REMARK    3  A    between atoms: C_11  and  N_12 
REMARK    4  A    between atoms: N_12  and  C_14 
REMARK    5  A    between atoms: C_14  and  C_15 
REMARK       I    between atoms: C_15  and  N_16 
REMARK    6  A    between atoms: N_16  and  C_17 
REMARK    7  A    between atoms: C_19  and  C_20 
ROOT
HETATM    1  N   UNL     1     -10.370   3.583 -31.858  1.00  0.00    -0.058 N 
HETATM    2  H   UNL     1     -11.337   3.463 -31.510  1.00  0.00     0.280 HD
HETATM    3  C   UNL     1     -10.126   5.057 -32.009  1.00  0.00     0.270 C 
ENDROOT
BRANCH   1   4
HETATM    4  C   UNL     1     -10.327   2.849 -33.209  1.00  0.00     0.337 C 
BRANCH   4   5
HETATM    5  C   UNL     1     -11.220   3.542 -34.236  1.00  0.00     0.248 C 
HETATM    6  N   UNL     1     -12.567   3.398 -34.255  1.00  0.00    -0.322 N 
HETATM    7  H   UNL     1     -12.980   3.661 -35.147  1.00  0.00     0.169 HD
HETATM    8  O   UNL     1     -10.668   4.203 -35.126  1.00  0.00    -0.271 OA
BRANCH   6   9
HETATM    9  C   UNL     1     -13.464   2.928 -33.314  1.00  0.00     0.085 C 
HETATM   10  C   UNL     1     -13.887   1.611 -33.334  1.00  0.00     0.052 C 
HETATM   11  C   UNL     1     -13.558   0.462 -34.215  1.00  0.00     0.072 C 
HETATM   12  N   UNL     1     -14.744   1.470 -32.279  1.00  0.00    -0.280 N 
HETATM   13  H   UNL     1     -15.238   0.635 -31.971  1.00  0.00     0.189 HD
HETATM   14  N   UNL     1     -14.950   2.609 -31.611  1.00  0.00    -0.177 NA
HETATM   15  C   UNL     1     -14.239   3.525 -32.278  1.00  0.00     0.079 C 
HETATM   16  C   UNL     1     -14.483   4.943 -31.911  1.00  0.00     0.075 C 
ENDBRANCH   6   9
ENDBRANCH   4   5
ENDBRANCH   1   4
BRANCH   1  17
HETATM   17  C   UNL     1      -9.471   2.912 -30.809  1.00  0.00     0.337 C 
BRANCH  17  18
HETATM   18  C   UNL     1      -8.174   2.304 -31.362  1.00  0.00     0.248 C 
HETATM   19  N   UNL     1      -8.183   0.919 -31.406  1.00  0.00    -0.326 N 
HETATM   20  H   UNL     1      -8.896   0.422 -30.883  1.00  0.00     0.169 HD
HETATM   21  O   UNL     1      -7.254   3.031 -31.726  1.00  0.00    -0.271 OA
BRANCH  19  22
HETATM   22  C   UNL     1      -7.242   0.085 -32.051  1.00  0.00     0.035 A 
HETATM   23  C   UNL     1      -5.930  -0.101 -31.610  1.00  0.00     0.047 A 
HETATM   24  C   UNL     1      -5.016  -0.901 -32.334  1.00  0.00     0.071 A 
HETATM   25  C   UNL     1      -5.449  -1.521 -33.509  1.00  0.00     0.049 A 
HETATM   26 CL   UNL     1      -4.409  -2.507 -34.467  1.00  0.00    -0.083 Cl
HETATM   27  C   UNL     1      -6.761  -1.346 -33.952  1.00  0.00     0.027 A 
HETATM   28  C   UNL     1      -7.650  -0.544 -33.232  1.00  0.00     0.031 A 
BRANCH  24  29
HETATM   29  C   UNL     1      -3.598  -1.049 -31.845  1.00  0.00     0.419 C 
HETATM   30  F   UNL     1      -2.677  -0.593 -32.743  1.00  0.00    -0.166 F 
HETATM   31  F   UNL     1      -3.353  -0.362 -30.697  1.00  0.00    -0.166 F 
HETATM   32  F   UNL     1      -3.255  -2.344 -31.609  1.00  0.00    -0.166 F 
ENDBRANCH  24  29
ENDBRANCH  19  22
ENDBRANCH  17  18
ENDBRANCH   1  17
TORSDOF 7
ENDMDL
