MODEL 1
REMARK VINA RESULT:      -8.9      0.000      0.000
REMARK  4 active torsions:
REMARK  status: ('A' for Active; 'I' for Inactive)
REMARK    1  A    between atoms: C_4  and  O_5 
REMARK    2  A    between atoms: C_6  and  C_7 
REMARK    3  A    between atoms: C_11  and  C_12 
REMARK       I    between atoms: C_12  and  N_13 
REMARK    4  A    between atoms: C_19  and  O_20 
ROOT
HETATM    1  C   UNL     1      -4.270   5.283 -33.050  1.00  0.00     0.065 A 
HETATM    2  N   UNL     1      -4.540   5.055 -34.373  1.00  0.00    -0.277 N 
HETATM    3  H   UNL     1      -3.891   5.193 -35.143  1.00  0.00     0.189 HD
HETATM    4  N   UNL     1      -5.756   4.535 -34.618  1.00  0.00    -0.169 NA
HETATM    5  C   UNL     1      -6.355   4.514 -33.408  1.00  0.00     0.148 A 
HETATM    6  C   UNL     1      -5.450   4.964 -32.405  1.00  0.00     0.071 A 
ENDROOT
BRANCH   5   7
HETATM    7  C   UNL     1      -7.723   3.991 -33.159  1.00  0.00     0.299 C 
HETATM    8  N   UNL     1      -8.148   2.945 -33.937  1.00  0.00    -0.189 NA
HETATM    9  C   UNL     1      -7.535   1.819 -33.862  1.00  0.00     0.154 C 
HETATM   10  S   UNL     1      -8.240   0.442 -34.775  1.00  0.00    -0.056 SA
HETATM   11  N   UNL     1      -6.379   1.427 -33.213  1.00  0.00    -0.236 NA
HETATM   12  C   UNL     1      -6.841  -0.577 -34.372  1.00  0.00     0.032 A 
HETATM   13  C   UNL     1      -5.938   0.143 -33.584  1.00  0.00     0.032 A 
HETATM   14  C   UNL     1      -6.582  -1.877 -34.767  1.00  0.00     0.057 A 
HETATM   15  C   UNL     1      -4.763  -0.451 -33.153  1.00  0.00     0.028 A 
HETATM   16  C   UNL     1      -4.485  -1.766 -33.551  1.00  0.00     0.038 A 
HETATM   17  C   UNL     1      -5.389  -2.480 -34.355  1.00  0.00     0.069 A 
HETATM   18  H   UNL     1      -5.647   2.134 -33.183  1.00  0.00     0.136 HD
HETATM   19  O   UNL     1      -8.447   4.520 -32.321  1.00  0.00    -0.263 OA
BRANCH  17  20
HETATM   20  O   UNL     1      -5.220  -3.764 -34.797  1.00  0.00    -0.356 OA
HETATM   21  C   UNL     1      -6.391  -4.476 -35.176  1.00  0.00     0.210 C 
ENDBRANCH  17  20
ENDBRANCH   5   7
BRANCH   1  22
HETATM   22  C   UNL     1      -2.963   5.746 -32.567  1.00  0.00     0.025 A 
HETATM   23  C   UNL     1      -2.114   6.561 -33.341  1.00  0.00     0.078 A 
HETATM   24  C   UNL     1      -0.857   6.959 -32.871  1.00  0.00     0.044 A 
HETATM   25  C   UNL     1      -0.413   6.543 -31.611  1.00  0.00    -0.059 A 
HETATM   26  C   UNL     1       0.924   6.977 -31.087  1.00  0.00     0.048 C 
HETATM   27  C   UNL     1      -1.256   5.755 -30.823  1.00  0.00     0.008 A 
HETATM   28  C   UNL     1      -2.511   5.359 -31.297  1.00  0.00     0.017 A 
BRANCH  23  29
HETATM   29  O   UNL     1      -2.514   6.978 -34.590  1.00  0.00    -0.360 OA
HETATM   30  H   UNL     1      -3.008   6.252 -35.008  1.00  0.00     0.217 HD
ENDBRANCH  23  29
ENDBRANCH   1  22
TORSDOF 4
ENDMDL
MODEL 2
REMARK VINA RESULT:      -8.9      2.440      8.285
REMARK  4 active torsions:
REMARK  status: ('A' for Active; 'I' for Inactive)
REMARK    1  A    between atoms: C_4  and  O_5 
REMARK    2  A    between atoms: C_6  and  C_7 
REMARK    3  A    between atoms: C_11  and  C_12 
REMARK       I    between atoms: C_12  and  N_13 
REMARK    4  A    between atoms: C_19  and  O_20 
ROOT
HETATM    1  C   UNL     1      -6.084   0.990 -33.307  1.00  0.00     0.065 A 
HETATM    2  N   UNL     1      -5.604   1.460 -32.114  1.00  0.00    -0.277 N 
HETATM    3  H   UNL     1      -5.148   0.902 -31.397  1.00  0.00     0.189 HD
HETATM    4  N   UNL     1      -5.702   2.792 -31.954  1.00  0.00    -0.169 NA
HETATM    5  C   UNL     1      -6.371   3.207 -33.051  1.00  0.00     0.148 A 
HETATM    6  C   UNL     1      -6.614   2.107 -33.922  1.00  0.00     0.071 A 
ENDROOT
BRANCH   5   7
HETATM    7  C   UNL     1      -6.700   4.626 -33.344  1.00  0.00     0.299 C 
HETATM    8  N   UNL     1      -6.252   5.573 -32.459  1.00  0.00    -0.189 NA
HETATM    9  C   UNL     1      -4.987   5.735 -32.304  1.00  0.00     0.154 C 
HETATM   10  S   UNL     1      -4.461   7.101 -31.262  1.00  0.00    -0.056 SA
HETATM   11  N   UNL     1      -3.891   5.037 -32.775  1.00  0.00    -0.236 NA
HETATM   12  C   UNL     1      -2.770   6.569 -31.373  1.00  0.00     0.032 A 
HETATM   13  C   UNL     1      -2.680   5.426 -32.173  1.00  0.00     0.032 A 
HETATM   14  C   UNL     1      -1.654   7.115 -30.762  1.00  0.00     0.057 A 
HETATM   15  C   UNL     1      -1.451   4.827 -32.396  1.00  0.00     0.028 A 
HETATM   16  C   UNL     1      -0.314   5.366 -31.779  1.00  0.00     0.038 A 
HETATM   17  C   UNL     1      -0.412   6.505 -30.963  1.00  0.00     0.069 A 
HETATM   18  H   UNL     1      -4.026   4.030 -32.843  1.00  0.00     0.136 HD
HETATM   19  O   UNL     1      -7.391   4.915 -34.317  1.00  0.00    -0.263 OA
BRANCH  17  20
HETATM   20  O   UNL     1       0.630   7.115 -30.317  1.00  0.00    -0.356 OA
HETATM   21  C   UNL     1       0.407   7.523 -28.973  1.00  0.00     0.210 C 
ENDBRANCH  17  20
ENDBRANCH   5   7
BRANCH   1  22
HETATM   22  C   UNL     1      -5.972  -0.416 -33.717  1.00  0.00     0.025 A 
HETATM   23  C   UNL     1      -4.751  -1.117 -33.700  1.00  0.00     0.078 A 
HETATM   24  C   UNL     1      -4.666  -2.446 -34.130  1.00  0.00     0.044 A 
HETATM   25  C   UNL     1      -5.806  -3.108 -34.598  1.00  0.00    -0.059 A 
HETATM   26  C   UNL     1      -5.733  -4.538 -35.046  1.00  0.00     0.048 C 
HETATM   27  C   UNL     1      -7.029  -2.432 -34.598  1.00  0.00     0.008 A 
HETATM   28  C   UNL     1      -7.109  -1.104 -34.167  1.00  0.00     0.017 A 
BRANCH  23  29
HETATM   29  O   UNL     1      -3.608  -0.493 -33.256  1.00  0.00    -0.360 OA
HETATM   30  H   UNL     1      -3.580  -0.566 -32.286  1.00  0.00     0.217 HD
ENDBRANCH  23  29
ENDBRANCH   1  22
TORSDOF 4
ENDMDL
MODEL 3
REMARK VINA RESULT:      -8.4      4.238      6.671
REMARK  4 active torsions:
REMARK  status: ('A' for Active; 'I' for Inactive)
REMARK    1  A    between atoms: C_4  and  O_5 
REMARK    2  A    between atoms: C_6  and  C_7 
REMARK    3  A    between atoms: C_11  and  C_12 
REMARK       I    between atoms: C_12  and  N_13 
REMARK    4  A    between atoms: C_19  and  O_20 
ROOT
HETATM    1  C   UNL     1       0.055   6.491 -29.612  1.00  0.00     0.065 A 
HETATM    2  N   UNL     1      -0.124   5.138 -29.720  1.00  0.00    -0.277 N 
HETATM    3  H   UNL     1       0.081   4.453 -28.998  1.00  0.00     0.189 HD
HETATM    4  N   UNL     1      -0.689   4.735 -30.872  1.00  0.00    -0.169 NA
HETATM    5  C   UNL     1      -0.795   5.868 -31.601  1.00  0.00     0.148 A 
HETATM    6  C   UNL     1      -0.349   6.984 -30.837  1.00  0.00     0.071 A 
ENDROOT
BRANCH   5   7
HETATM    7  C   UNL     1      -1.394   5.938 -32.958  1.00  0.00     0.299 C 
HETATM    8  N   UNL     1      -2.306   4.971 -33.295  1.00  0.00    -0.189 NA
HETATM    9  C   UNL     1      -3.409   4.896 -32.642  1.00  0.00     0.154 C 
HETATM   10  S   UNL     1      -4.632   3.723 -33.237  1.00  0.00    -0.056 SA
HETATM   11  N   UNL     1      -3.870   5.543 -31.511  1.00  0.00    -0.236 NA
HETATM   12  C   UNL     1      -5.662   4.039 -31.824  1.00  0.00     0.032 A 
HETATM   13  C   UNL     1      -5.059   4.992 -30.998  1.00  0.00     0.032 A 
HETATM   14  C   UNL     1      -6.869   3.450 -31.490  1.00  0.00     0.057 A 
HETATM   15  C   UNL     1      -5.682   5.392 -29.826  1.00  0.00     0.028 A 
HETATM   16  C   UNL     1      -6.901   4.799 -29.473  1.00  0.00     0.038 A 
HETATM   17  C   UNL     1      -7.496   3.831 -30.299  1.00  0.00     0.069 A 
HETATM   18  H   UNL     1      -3.156   5.737 -30.811  1.00  0.00     0.136 HD
HETATM   19  O   UNL     1      -1.036   6.804 -33.751  1.00  0.00    -0.263 OA
BRANCH  17  20
HETATM   20  O   UNL     1      -8.681   3.193 -30.053  1.00  0.00    -0.356 OA
HETATM   21  C   UNL     1      -9.869   3.850 -30.477  1.00  0.00     0.210 C 
ENDBRANCH  17  20
ENDBRANCH   5   7
BRANCH   1  22
HETATM   22  C   UNL     1       0.557   7.138 -28.392  1.00  0.00     0.025 A 
HETATM   23  C   UNL     1       0.247   6.667 -27.102  1.00  0.00     0.078 A 
HETATM   24  C   UNL     1       0.709   7.324 -25.956  1.00  0.00     0.044 A 
HETATM   25  C   UNL     1       1.491   8.478 -26.073  1.00  0.00    -0.059 A 
HETATM   26  C   UNL     1       2.008   9.182 -24.853  1.00  0.00     0.048 C 
HETATM   27  C   UNL     1       1.826   8.941 -27.348  1.00  0.00     0.008 A 
HETATM   28  C   UNL     1       1.361   8.282 -28.491  1.00  0.00     0.017 A 
BRANCH  23  29
HETATM   29  O   UNL     1      -0.529   5.542 -26.949  1.00  0.00    -0.360 OA
HETATM   30  H   UNL     1       0.009   4.768 -27.192  1.00  0.00     0.217 HD
ENDBRANCH  23  29
ENDBRANCH   1  22
TORSDOF 4
ENDMDL
MODEL 4
REMARK VINA RESULT:      -8.4      2.401      7.941
REMARK  4 active torsions:
REMARK  status: ('A' for Active; 'I' for Inactive)
REMARK    1  A    between atoms: C_4  and  O_5 
REMARK    2  A    between atoms: C_6  and  C_7 
REMARK    3  A    between atoms: C_11  and  C_12 
REMARK       I    between atoms: C_12  and  N_13 
REMARK    4  A    between atoms: C_19  and  O_20 
ROOT
HETATM    1  C   UNL     1      -6.272   1.384 -33.226  1.00  0.00     0.065 A 
HETATM    2  N   UNL     1      -6.737   1.726 -31.985  1.00  0.00    -0.277 N 
HETATM    3  H   UNL     1      -6.792   1.107 -31.180  1.00  0.00     0.189 HD
HETATM    4  N   UNL     1      -7.070   3.022 -31.846  1.00  0.00    -0.169 NA
HETATM    5  C   UNL     1      -6.914   3.536 -33.085  1.00  0.00     0.148 A 
HETATM    6  C   UNL     1      -6.405   2.542 -33.968  1.00  0.00     0.071 A 
ENDROOT
BRANCH   5   7
HETATM    7  C   UNL     1      -7.137   4.963 -33.434  1.00  0.00     0.299 C 
HETATM    8  N   UNL     1      -6.579   5.908 -32.612  1.00  0.00    -0.189 NA
HETATM    9  C   UNL     1      -5.300   5.971 -32.509  1.00  0.00     0.154 C 
HETATM   10  S   UNL     1      -4.624   7.334 -31.553  1.00  0.00    -0.056 SA
HETATM   11  N   UNL     1      -4.284   5.164 -32.985  1.00  0.00    -0.236 NA
HETATM   12  C   UNL     1      -2.987   6.658 -31.699  1.00  0.00     0.032 A 
HETATM   13  C   UNL     1      -3.022   5.477 -32.446  1.00  0.00     0.032 A 
HETATM   14  C   UNL     1      -1.808   7.136 -31.155  1.00  0.00     0.057 A 
HETATM   15  C   UNL     1      -1.856   4.768 -32.684  1.00  0.00     0.028 A 
HETATM   16  C   UNL     1      -0.656   5.238 -32.134  1.00  0.00     0.038 A 
HETATM   17  C   UNL     1      -0.628   6.417 -31.371  1.00  0.00     0.069 A 
HETATM   18  H   UNL     1      -4.503   4.169 -33.000  1.00  0.00     0.136 HD
HETATM   19  O   UNL     1      -7.840   5.264 -34.394  1.00  0.00    -0.263 OA
BRANCH  17  20
HETATM   20  O   UNL     1       0.485   6.966 -30.792  1.00  0.00    -0.356 OA
HETATM   21  C   UNL     1       0.373   7.373 -29.434  1.00  0.00     0.210 C 
ENDBRANCH  17  20
ENDBRANCH   5   7
BRANCH   1  22
HETATM   22  C   UNL     1      -5.759   0.046 -33.549  1.00  0.00     0.025 A 
HETATM   23  C   UNL     1      -6.438  -0.840 -34.407  1.00  0.00     0.078 A 
HETATM   24  C   UNL     1      -5.945  -2.123 -34.670  1.00  0.00     0.044 A 
HETATM   25  C   UNL     1      -4.758  -2.557 -34.071  1.00  0.00    -0.059 A 
HETATM   26  C   UNL     1      -4.208  -3.923 -34.357  1.00  0.00     0.048 C 
HETATM   27  C   UNL     1      -4.061  -1.678 -33.237  1.00  0.00     0.008 A 
HETATM   28  C   UNL     1      -4.558  -0.397 -32.977  1.00  0.00     0.017 A 
BRANCH  23  29
HETATM   29  O   UNL     1      -7.615  -0.451 -35.004  1.00  0.00    -0.360 OA
HETATM   30  H   UNL     1      -8.312  -1.074 -34.734  1.00  0.00     0.217 HD
ENDBRANCH  23  29
ENDBRANCH   1  22
TORSDOF 4
ENDMDL
MODEL 5
REMARK VINA RESULT:      -8.2      3.362      8.657
REMARK  4 active torsions:
REMARK  status: ('A' for Active; 'I' for Inactive)
REMARK    1  A    between atoms: C_4  and  O_5 
REMARK    2  A    between atoms: C_6  and  C_7 
REMARK    3  A    between atoms: C_11  and  C_12 
REMARK       I    between atoms: C_12  and  N_13 
REMARK    4  A    between atoms: C_19  and  O_20 
ROOT
HETATM    1  C   UNL     1      -4.681   1.455 -32.108  1.00  0.00     0.065 A 
HETATM    2  N   UNL     1      -4.711   2.022 -30.863  1.00  0.00    -0.277 N 
HETATM    3  H   UNL     1      -4.552   1.533 -29.985  1.00  0.00     0.189 HD
HETATM    4  N   UNL     1      -4.900   3.353 -30.854  1.00  0.00    -0.169 NA
HETATM    5  C   UNL     1      -5.106   3.665 -32.151  1.00  0.00     0.148 A 
HETATM    6  C   UNL     1      -4.964   2.503 -32.963  1.00  0.00     0.071 A 
ENDROOT
BRANCH   5   7
HETATM    7  C   UNL     1      -5.335   5.043 -32.656  1.00  0.00     0.299 C 
HETATM    8  N   UNL     1      -5.088   6.079 -31.793  1.00  0.00    -0.189 NA
HETATM    9  C   UNL     1      -3.891   6.267 -31.366  1.00  0.00     0.154 C 
HETATM   10  S   UNL     1      -3.597   7.736 -30.376  1.00  0.00    -0.056 SA
HETATM   11  N   UNL     1      -2.727   5.532 -31.498  1.00  0.00    -0.236 NA
HETATM   12  C   UNL     1      -1.935   7.209 -30.038  1.00  0.00     0.032 A 
HETATM   13  C   UNL     1      -1.682   5.991 -30.675  1.00  0.00     0.032 A 
HETATM   14  C   UNL     1      -0.982   7.824 -29.245  1.00  0.00     0.057 A 
HETATM   15  C   UNL     1      -0.444   5.381 -30.546  1.00  0.00     0.028 A 
HETATM   16  C   UNL     1       0.528   5.990 -29.740  1.00  0.00     0.038 A 
HETATM   17  C   UNL     1       0.264   7.206 -29.090  1.00  0.00     0.069 A 
HETATM   18  H   UNL     1      -2.859   4.522 -31.493  1.00  0.00     0.136 HD
HETATM   19  O   UNL     1      -5.778   5.225 -33.786  1.00  0.00    -0.263 OA
BRANCH  17  20
HETATM   20  O   UNL     1       1.138   7.887 -28.286  1.00  0.00    -0.356 OA
HETATM   21  C   UNL     1       0.606   8.954 -27.511  1.00  0.00     0.210 C 
ENDBRANCH  17  20
ENDBRANCH   5   7
BRANCH   1  22
HETATM   22  C   UNL     1      -4.381   0.035 -32.336  1.00  0.00     0.025 A 
HETATM   23  C   UNL     1      -3.306  -0.623 -31.708  1.00  0.00     0.078 A 
HETATM   24  C   UNL     1      -3.021  -1.968 -31.971  1.00  0.00     0.044 A 
HETATM   25  C   UNL     1      -3.804  -2.689 -32.878  1.00  0.00    -0.059 A 
HETATM   26  C   UNL     1      -3.522  -4.136 -33.156  1.00  0.00     0.048 C 
HETATM   27  C   UNL     1      -4.889  -2.055 -33.489  1.00  0.00     0.008 A 
HETATM   28  C   UNL     1      -5.170  -0.710 -33.224  1.00  0.00     0.017 A 
BRANCH  23  29
HETATM   29  O   UNL     1      -2.509   0.059 -30.819  1.00  0.00    -0.360 OA
HETATM   30  H   UNL     1      -2.060   0.775 -31.302  1.00  0.00     0.217 HD
ENDBRANCH  23  29
ENDBRANCH   1  22
TORSDOF 4
ENDMDL
MODEL 6
REMARK VINA RESULT:      -8.0      3.561      7.962
REMARK  4 active torsions:
REMARK  status: ('A' for Active; 'I' for Inactive)
REMARK    1  A    between atoms: C_4  and  O_5 
REMARK    2  A    between atoms: C_6  and  C_7 
REMARK    3  A    between atoms: C_11  and  C_12 
REMARK       I    between atoms: C_12  and  N_13 
REMARK    4  A    between atoms: C_19  and  O_20 
ROOT
HETATM    1  C   UNL     1      -5.997   1.110 -33.461  1.00  0.00     0.065 A 
HETATM    2  N   UNL     1      -5.735   1.612 -32.214  1.00  0.00    -0.277 N 
HETATM    3  H   UNL     1      -5.470   1.065 -31.399  1.00  0.00     0.189 HD
HETATM    4  N   UNL     1      -5.775   2.953 -32.127  1.00  0.00    -0.169 NA
HETATM    5  C   UNL     1      -6.182   3.351 -33.351  1.00  0.00     0.148 A 
HETATM    6  C   UNL     1      -6.319   2.225 -34.212  1.00  0.00     0.071 A 
ENDROOT
BRANCH   5   7
HETATM    7  C   UNL     1      -6.351   4.770 -33.759  1.00  0.00     0.299 C 
HETATM    8  N   UNL     1      -7.580   5.145 -34.238  1.00  0.00    -0.189 NA
HETATM    9  C   UNL     1      -8.600   5.084 -33.460  1.00  0.00     0.154 C 
HETATM   10  S   UNL     1     -10.147   5.747 -34.088  1.00  0.00    -0.056 SA
HETATM   11  N   UNL     1      -8.775   4.573 -32.187  1.00  0.00    -0.236 NA
HETATM   12  C   UNL     1     -11.014   5.153 -32.655  1.00  0.00     0.032 A 
HETATM   13  C   UNL     1     -10.123   4.510 -31.791  1.00  0.00     0.032 A 
HETATM   14  C   UNL     1     -12.366   5.234 -32.373  1.00  0.00     0.057 A 
HETATM   15  C   UNL     1     -10.580   3.958 -30.605  1.00  0.00     0.028 A 
HETATM   16  C   UNL     1     -11.948   4.027 -30.310  1.00  0.00     0.038 A 
HETATM   17  C   UNL     1     -12.842   4.661 -31.189  1.00  0.00     0.069 A 
HETATM   18  H   UNL     1      -8.234   3.733 -31.988  1.00  0.00     0.136 HD
HETATM   19  O   UNL     1      -5.402   5.547 -33.710  1.00  0.00    -0.263 OA
BRANCH  17  20
HETATM   20  O   UNL     1     -14.191   4.789 -30.999  1.00  0.00    -0.356 OA
HETATM   21  C   UNL     1     -15.015   4.739 -32.158  1.00  0.00     0.210 C 
ENDBRANCH  17  20
ENDBRANCH   5   7
BRANCH   1  22
HETATM   22  C   UNL     1      -5.900  -0.318 -33.788  1.00  0.00     0.025 A 
HETATM   23  C   UNL     1      -4.710  -1.053 -33.625  1.00  0.00     0.078 A 
HETATM   24  C   UNL     1      -4.634  -2.406 -33.978  1.00  0.00     0.044 A 
HETATM   25  C   UNL     1      -5.751  -3.058 -34.512  1.00  0.00    -0.059 A 
HETATM   26  C   UNL     1      -5.690  -4.511 -34.877  1.00  0.00     0.048 C 
HETATM   27  C   UNL     1      -6.945  -2.345 -34.655  1.00  0.00     0.008 A 
HETATM   28  C   UNL     1      -7.016  -0.994 -34.301  1.00  0.00     0.017 A 
BRANCH  23  29
HETATM   29  O   UNL     1      -3.589  -0.442 -33.114  1.00  0.00    -0.360 OA
HETATM   30  H   UNL     1      -2.807  -0.930 -33.427  1.00  0.00     0.217 HD
ENDBRANCH  23  29
ENDBRANCH   1  22
TORSDOF 4
ENDMDL
MODEL 7
REMARK VINA RESULT:      -7.9      2.091      7.748
REMARK  4 active torsions:
REMARK  status: ('A' for Active; 'I' for Inactive)
REMARK    1  A    between atoms: C_4  and  O_5 
REMARK    2  A    between atoms: C_6  and  C_7 
REMARK    3  A    between atoms: C_11  and  C_12 
REMARK       I    between atoms: C_12  and  N_13 
REMARK    4  A    between atoms: C_19  and  O_20 
ROOT
HETATM    1  C   UNL     1      -7.352   0.049 -33.478  1.00  0.00     0.065 A 
HETATM    2  N   UNL     1      -7.961   0.309 -32.280  1.00  0.00    -0.277 N 
HETATM    3  H   UNL     1      -7.889  -0.261 -31.441  1.00  0.00     0.189 HD
HETATM    4  N   UNL     1      -8.644   1.467 -32.235  1.00  0.00    -0.169 NA
HETATM    5  C   UNL     1      -8.565   1.944 -33.496  1.00  0.00     0.148 A 
HETATM    6  C   UNL     1      -7.756   1.087 -34.295  1.00  0.00     0.071 A 
ENDROOT
BRANCH   5   7
HETATM    7  C   UNL     1      -9.152   3.234 -33.942  1.00  0.00     0.299 C 
HETATM    8  N   UNL     1      -8.789   4.363 -33.252  1.00  0.00    -0.189 NA
HETATM    9  C   UNL     1      -7.561   4.737 -33.266  1.00  0.00     0.154 C 
HETATM   10  S   UNL     1      -7.178   6.310 -32.488  1.00  0.00    -0.056 SA
HETATM   11  N   UNL     1      -6.411   4.149 -33.758  1.00  0.00    -0.236 NA
HETATM   12  C   UNL     1      -5.438   6.030 -32.717  1.00  0.00     0.032 A 
HETATM   13  C   UNL     1      -5.232   4.805 -33.358  1.00  0.00     0.032 A 
HETATM   14  C   UNL     1      -4.379   6.826 -32.318  1.00  0.00     0.057 A 
HETATM   15  C   UNL     1      -3.945   4.372 -33.635  1.00  0.00     0.028 A 
HETATM   16  C   UNL     1      -2.863   5.166 -33.231  1.00  0.00     0.038 A 
HETATM   17  C   UNL     1      -3.075   6.389 -32.574  1.00  0.00     0.069 A 
HETATM   18  H   UNL     1      -6.382   3.134 -33.672  1.00  0.00     0.136 HD
HETATM   19  O   UNL     1      -9.966   3.262 -34.860  1.00  0.00    -0.263 OA
BRANCH  17  20
HETATM   20  O   UNL     1      -2.096   7.241 -32.141  1.00  0.00    -0.356 OA
HETATM   21  C   UNL     1      -0.770   6.982 -32.586  1.00  0.00     0.210 C 
ENDBRANCH  17  20
ENDBRANCH   5   7
BRANCH   1  22
HETATM   22  C   UNL     1      -6.474  -1.109 -33.696  1.00  0.00     0.025 A 
HETATM   23  C   UNL     1      -5.164  -1.174 -33.184  1.00  0.00     0.078 A 
HETATM   24  C   UNL     1      -4.336  -2.274 -33.437  1.00  0.00     0.044 A 
HETATM   25  C   UNL     1      -4.798  -3.337 -34.219  1.00  0.00    -0.059 A 
HETATM   26  C   UNL     1      -3.928  -4.531 -34.483  1.00  0.00     0.048 C 
HETATM   27  C   UNL     1      -6.105  -3.296 -34.712  1.00  0.00     0.008 A 
HETATM   28  C   UNL     1      -6.929  -2.195 -34.457  1.00  0.00     0.017 A 
BRANCH  23  29
HETATM   29  O   UNL     1      -4.673  -0.140 -32.421  1.00  0.00    -0.360 OA
HETATM   30  H   UNL     1      -5.420   0.276 -31.957  1.00  0.00     0.217 HD
ENDBRANCH  23  29
ENDBRANCH   1  22
TORSDOF 4
ENDMDL
MODEL 8
REMARK VINA RESULT:      -7.9      2.044      2.362
REMARK  4 active torsions:
REMARK  status: ('A' for Active; 'I' for Inactive)
REMARK    1  A    between atoms: C_4  and  O_5 
REMARK    2  A    between atoms: C_6  and  C_7 
REMARK    3  A    between atoms: C_11  and  C_12 
REMARK       I    between atoms: C_12  and  N_13 
REMARK    4  A    between atoms: C_19  and  O_20 
ROOT
HETATM    1  C   UNL     1      -5.137   4.484 -31.059  1.00  0.00     0.065 A 
HETATM    2  N   UNL     1      -5.399   4.186 -29.749  1.00  0.00    -0.277 N 
HETATM    3  H   UNL     1      -4.779   4.369 -28.963  1.00  0.00     0.189 HD
HETATM    4  N   UNL     1      -6.621   3.674 -29.521  1.00  0.00    -0.169 NA
HETATM    5  C   UNL     1      -7.154   3.534 -30.754  1.00  0.00     0.148 A 
HETATM    6  C   UNL     1      -6.256   4.041 -31.736  1.00  0.00     0.071 A 
ENDROOT
BRANCH   5   7
HETATM    7  C   UNL     1      -8.524   3.026 -31.023  1.00  0.00     0.299 C 
HETATM    8  N   UNL     1      -8.758   2.467 -32.253  1.00  0.00    -0.189 NA
HETATM    9  C   UNL     1      -8.127   1.398 -32.586  1.00  0.00     0.154 C 
HETATM   10  S   UNL     1      -8.599   0.620 -34.134  1.00  0.00    -0.056 SA
HETATM   11  N   UNL     1      -7.098   0.696 -31.985  1.00  0.00    -0.236 NA
HETATM   12  C   UNL     1      -7.262  -0.542 -33.988  1.00  0.00     0.032 A 
HETATM   13  C   UNL     1      -6.548  -0.303 -32.810  1.00  0.00     0.032 A 
HETATM   14  C   UNL     1      -6.885  -1.536 -34.874  1.00  0.00     0.057 A 
HETATM   15  C   UNL     1      -5.452  -1.087 -32.488  1.00  0.00     0.028 A 
HETATM   16  C   UNL     1      -5.056  -2.093 -33.380  1.00  0.00     0.038 A 
HETATM   17  C   UNL     1      -5.767  -2.319 -34.570  1.00  0.00     0.069 A 
HETATM   18  H   UNL     1      -6.412   1.276 -31.506  1.00  0.00     0.136 HD
HETATM   19  O   UNL     1      -9.411   3.156 -30.184  1.00  0.00    -0.263 OA
BRANCH  17  20
HETATM   20  O   UNL     1      -5.472  -3.273 -35.506  1.00  0.00    -0.356 OA
HETATM   21  C   UNL     1      -6.133  -4.526 -35.383  1.00  0.00     0.210 C 
ENDBRANCH  17  20
ENDBRANCH   5   7
BRANCH   1  22
HETATM   22  C   UNL     1      -3.902   5.146 -31.499  1.00  0.00     0.025 A 
HETATM   23  C   UNL     1      -2.653   4.495 -31.504  1.00  0.00     0.078 A 
HETATM   24  C   UNL     1      -1.485   5.161 -31.895  1.00  0.00     0.044 A 
HETATM   25  C   UNL     1      -1.537   6.503 -32.283  1.00  0.00    -0.059 A 
HETATM   26  C   UNL     1      -0.296   7.224 -32.721  1.00  0.00     0.048 C 
HETATM   27  C   UNL     1      -2.774   7.154 -32.306  1.00  0.00     0.008 A 
HETATM   28  C   UNL     1      -3.938   6.485 -31.915  1.00  0.00     0.017 A 
BRANCH  23  29
HETATM   29  O   UNL     1      -2.564   3.178 -31.117  1.00  0.00    -0.360 OA
HETATM   30  H   UNL     1      -1.929   3.121 -30.382  1.00  0.00     0.217 HD
ENDBRANCH  23  29
ENDBRANCH   1  22
TORSDOF 4
ENDMDL
MODEL 9
REMARK VINA RESULT:      -7.9      4.413      8.051
REMARK  4 active torsions:
REMARK  status: ('A' for Active; 'I' for Inactive)
REMARK    1  A    between atoms: C_4  and  O_5 
REMARK    2  A    between atoms: C_6  and  C_7 
REMARK    3  A    between atoms: C_11  and  C_12 
REMARK       I    between atoms: C_12  and  N_13 
REMARK    4  A    between atoms: C_19  and  O_20 
ROOT
HETATM    1  C   UNL     1      -6.241   0.454 -32.964  1.00  0.00     0.065 A 
HETATM    2  N   UNL     1      -5.753   1.593 -33.546  1.00  0.00    -0.277 N 
HETATM    3  H   UNL     1      -5.224   1.635 -34.414  1.00  0.00     0.189 HD
HETATM    4  N   UNL     1      -6.088   2.734 -32.920  1.00  0.00    -0.169 NA
HETATM    5  C   UNL     1      -6.744   2.323 -31.814  1.00  0.00     0.148 A 
HETATM    6  C   UNL     1      -6.867   0.904 -31.816  1.00  0.00     0.071 A 
ENDROOT
BRANCH   5   7
HETATM    7  C   UNL     1      -7.342   3.235 -30.805  1.00  0.00     0.299 C 
HETATM    8  N   UNL     1      -7.876   4.413 -31.260  1.00  0.00    -0.189 NA
HETATM    9  C   UNL     1      -8.885   4.377 -32.055  1.00  0.00     0.154 C 
HETATM   10  S   UNL     1      -9.646   5.947 -32.481  1.00  0.00    -0.056 SA
HETATM   11  N   UNL     1      -9.529   3.337 -32.699  1.00  0.00    -0.236 NA
HETATM   12  C   UNL     1     -10.711   5.144 -33.654  1.00  0.00     0.032 A 
HETATM   13  C   UNL     1     -10.459   3.769 -33.664  1.00  0.00     0.032 A 
HETATM   14  C   UNL     1     -11.646   5.715 -34.499  1.00  0.00     0.057 A 
HETATM   15  C   UNL     1     -11.171   2.936 -34.512  1.00  0.00     0.028 A 
HETATM   16  C   UNL     1     -12.117   3.502 -35.377  1.00  0.00     0.038 A 
HETATM   17  C   UNL     1     -12.356   4.886 -35.374  1.00  0.00     0.069 A 
HETATM   18  H   UNL     1      -8.917   2.584 -33.007  1.00  0.00     0.136 HD
HETATM   19  O   UNL     1      -7.303   2.952 -29.611  1.00  0.00    -0.263 OA
BRANCH  17  20
HETATM   20  O   UNL     1     -13.255   5.542 -36.171  1.00  0.00    -0.356 OA
HETATM   21  C   UNL     1     -13.899   6.683 -35.617  1.00  0.00     0.210 C 
ENDBRANCH  17  20
ENDBRANCH   5   7
BRANCH   1  22
HETATM   22  C   UNL     1      -6.076  -0.882 -33.551  1.00  0.00     0.025 A 
HETATM   23  C   UNL     1      -4.812  -1.464 -33.766  1.00  0.00     0.078 A 
HETATM   24  C   UNL     1      -4.682  -2.724 -34.361  1.00  0.00     0.044 A 
HETATM   25  C   UNL     1      -5.818  -3.433 -34.766  1.00  0.00    -0.059 A 
HETATM   26  C   UNL     1      -5.694  -4.792 -35.388  1.00  0.00     0.048 C 
HETATM   27  C   UNL     1      -7.079  -2.876 -34.536  1.00  0.00     0.008 A 
HETATM   28  C   UNL     1      -7.205  -1.617 -33.941  1.00  0.00     0.017 A 
BRANCH  23  29
HETATM   29  O   UNL     1      -3.673  -0.791 -33.390  1.00  0.00    -0.360 OA
HETATM   30  H   UNL     1      -3.924   0.117 -33.146  1.00  0.00     0.217 HD
ENDBRANCH  23  29
ENDBRANCH   1  22
TORSDOF 4
ENDMDL
MODEL 10
REMARK VINA RESULT:      -7.8      4.620      9.618
REMARK  4 active torsions:
REMARK  status: ('A' for Active; 'I' for Inactive)
REMARK    1  A    between atoms: C_4  and  O_5 
REMARK    2  A    between atoms: C_6  and  C_7 
REMARK    3  A    between atoms: C_11  and  C_12 
REMARK       I    between atoms: C_12  and  N_13 
REMARK    4  A    between atoms: C_19  and  O_20 
ROOT
HETATM    1  C   UNL     1      -3.453   4.133 -32.529  1.00  0.00     0.065 A 
HETATM    2  N   UNL     1      -2.184   4.095 -32.018  1.00  0.00    -0.277 N 
HETATM    3  H   UNL     1      -1.725   3.275 -31.629  1.00  0.00     0.189 HD
HETATM    4  N   UNL     1      -1.499   5.247 -32.125  1.00  0.00    -0.169 NA
HETATM    5  C   UNL     1      -2.395   6.116 -32.642  1.00  0.00     0.148 A 
HETATM    6  C   UNL     1      -3.623   5.448 -32.916  1.00  0.00     0.071 A 
ENDROOT
BRANCH   5   7
HETATM    7  C   UNL     1      -2.095   7.533 -32.973  1.00  0.00     0.299 C 
HETATM    8  N   UNL     1      -2.479   8.486 -32.065  1.00  0.00    -0.189 NA
HETATM    9  C   UNL     1      -1.951   8.485 -30.894  1.00  0.00     0.154 C 
HETATM   10  S   UNL     1      -2.366   9.855 -29.810  1.00  0.00    -0.056 SA
HETATM   11  N   UNL     1      -1.106   7.599 -30.252  1.00  0.00    -0.236 NA
HETATM   12  C   UNL     1      -1.503   9.085 -28.461  1.00  0.00     0.032 A 
HETATM   13  C   UNL     1      -0.950   7.870 -28.880  1.00  0.00     0.032 A 
HETATM   14  C   UNL     1      -1.379   9.524 -27.155  1.00  0.00     0.057 A 
HETATM   15  C   UNL     1      -0.234   7.087 -27.989  1.00  0.00     0.028 A 
HETATM   16  C   UNL     1      -0.106   7.518 -26.662  1.00  0.00     0.038 A 
HETATM   17  C   UNL     1      -0.676   8.731 -26.242  1.00  0.00     0.069 A 
HETATM   18  H   UNL     1      -1.268   6.619 -30.475  1.00  0.00     0.136 HD
HETATM   19  O   UNL     1      -1.570   7.822 -34.044  1.00  0.00    -0.263 OA
BRANCH  17  20
HETATM   20  O   UNL     1      -0.610   9.248 -24.976  1.00  0.00    -0.356 OA
HETATM   21  C   UNL     1      -1.829   9.338 -24.250  1.00  0.00     0.210 C 
ENDBRANCH  17  20
ENDBRANCH   5   7
BRANCH   1  22
HETATM   22  C   UNL     1      -4.323   2.951 -32.603  1.00  0.00     0.025 A 
HETATM   23  C   UNL     1      -4.017   1.743 -31.948  1.00  0.00     0.078 A 
HETATM   24  C   UNL     1      -4.846   0.621 -32.064  1.00  0.00     0.044 A 
HETATM   25  C   UNL     1      -6.002   0.678 -32.849  1.00  0.00    -0.059 A 
HETATM   26  C   UNL     1      -6.909  -0.512 -32.968  1.00  0.00     0.048 C 
HETATM   27  C   UNL     1      -6.330   1.879 -33.484  1.00  0.00     0.008 A 
HETATM   28  C   UNL     1      -5.499   2.998 -33.365  1.00  0.00     0.017 A 
BRANCH  23  29
HETATM   29  O   UNL     1      -2.881   1.647 -31.178  1.00  0.00    -0.360 OA
HETATM   30  H   UNL     1      -2.801   2.464 -30.654  1.00  0.00     0.217 HD
ENDBRANCH  23  29
ENDBRANCH   1  22
TORSDOF 4
ENDMDL
