MODEL 1
REMARK VINA RESULT:      -8.7      0.000      0.000
REMARK  6 active torsions:
REMARK  status: ('A' for Active; 'I' for Inactive)
REMARK    1  A    between atoms: C_3  and  C_4 
REMARK    2  A    between atoms: C_9  and  N_10 
REMARK       I    between atoms: N_10  and  C_11 
REMARK       I    between atoms: C_11  and  N_12 
REMARK    3  A    between atoms: N_12  and  C_13 
REMARK    4  A    between atoms: C_13  and  C_14 
REMARK    5  A    between atoms: C_14  and  C_15 
REMARK    6  A    between atoms: C_18  and  N_19 
ROOT
HETATM    1  N   UNL     1      -2.097   5.091 -31.398  1.00  0.00    -0.309 N 
HETATM    2  C   UNL     1      -1.900   4.849 -32.729  1.00  0.00     0.320 C 
HETATM    3  N   UNL     1      -2.895   4.161 -33.360  1.00  0.00    -0.343 N 
HETATM    4  O   UNL     1      -0.938   5.205 -33.402  1.00  0.00    -0.247 OA
HETATM    5  H   UNL     1      -2.986   4.809 -31.020  1.00  0.00     0.170 HD
HETATM    6  H   UNL     1      -2.719   4.062 -34.353  1.00  0.00     0.164 HD
ENDROOT
BRANCH   3   7
HETATM    7  C   UNL     1      -4.159   3.649 -32.853  1.00  0.00     0.129 C 
BRANCH   7   8
HETATM    8  C   UNL     1      -4.003   2.457 -31.903  1.00  0.00     0.058 C 
BRANCH   8   9
HETATM    9  C   UNL     1      -4.397   1.137 -32.522  1.00  0.00    -0.057 A 
HETATM   10  C   UNL     1      -3.578   0.013 -32.374  1.00  0.00     0.009 A 
HETATM   11  C   UNL     1      -3.951  -1.214 -32.930  1.00  0.00     0.032 A 
HETATM   12  C   UNL     1      -5.147  -1.332 -33.653  1.00  0.00     0.058 A 
HETATM   13  C   UNL     1      -5.962  -0.205 -33.816  1.00  0.00     0.032 A 
HETATM   14  C   UNL     1      -5.587   1.019 -33.251  1.00  0.00     0.009 A 
BRANCH  12  15
HETATM   15  N   UNL     1      -5.513  -2.595 -34.197  1.00  0.00    -0.246 N 
HETATM   16  N   UNL     1      -4.612  -3.613 -34.270  1.00  0.00    -0.180 NA
HETATM   17  C   UNL     1      -5.288  -4.629 -34.806  1.00  0.00     0.140 A 
HETATM   18  C   UNL     1      -6.617  -4.296 -35.096  1.00  0.00     0.040 A 
HETATM   19  C   UNL     1      -6.739  -2.986 -34.698  1.00  0.00     0.120 A 
ENDBRANCH  12  15
ENDBRANCH   8   9
ENDBRANCH   7   8
ENDBRANCH   3   7
BRANCH   1  20
HETATM   20  C   UNL     1      -1.239   5.762 -30.505  1.00  0.00     0.036 A 
HETATM   21  C   UNL     1      -0.032   5.244 -30.043  1.00  0.00     0.030 A 
HETATM   22  C   UNL     1       0.755   5.972 -29.145  1.00  0.00     0.018 A 
HETATM   23  C   UNL     1       0.354   7.241 -28.703  1.00  0.00     0.015 A 
HETATM   24  C   UNL     1      -0.858   7.785 -29.169  1.00  0.00    -0.046 A 
HETATM   25  C   UNL     1      -1.351   9.144 -28.749  1.00  0.00     0.049 C 
HETATM   26  C   UNL     1      -1.648   7.026 -30.053  1.00  0.00     0.037 A 
BRANCH  23  27
HETATM   27  C   UNL     1       1.216   7.973 -27.727  1.00  0.00     0.156 C 
HETATM   28  C   UNL     1       1.150   7.576 -26.275  1.00  0.00     0.097 C 
HETATM   29  O   UNL     1       1.939   8.894 -28.099  1.00  0.00    -0.293 OA
ENDBRANCH  23  27
ENDBRANCH   1  20
TORSDOF 6
ENDMDL
MODEL 2
REMARK VINA RESULT:      -8.3      4.988      8.638
REMARK  6 active torsions:
REMARK  status: ('A' for Active; 'I' for Inactive)
REMARK    1  A    between atoms: C_3  and  C_4 
REMARK    2  A    between atoms: C_9  and  N_10 
REMARK       I    between atoms: N_10  and  C_11 
REMARK       I    between atoms: C_11  and  N_12 
REMARK    3  A    between atoms: N_12  and  C_13 
REMARK    4  A    between atoms: C_13  and  C_14 
REMARK    5  A    between atoms: C_14  and  C_15 
REMARK    6  A    between atoms: C_18  and  N_19 
ROOT
HETATM    1  N   UNL     1      -7.465   2.546 -32.212  1.00  0.00    -0.309 N 
HETATM    2  C   UNL     1      -7.120   2.851 -30.925  1.00  0.00     0.320 C 
HETATM    3  N   UNL     1      -5.796   3.096 -30.709  1.00  0.00    -0.343 N 
HETATM    4  O   UNL     1      -7.881   2.945 -29.967  1.00  0.00    -0.247 OA
HETATM    5  H   UNL     1      -6.729   2.603 -32.896  1.00  0.00     0.170 HD
HETATM    6  H   UNL     1      -5.611   3.370 -29.750  1.00  0.00     0.164 HD
ENDROOT
BRANCH   3   7
HETATM    7  C   UNL     1      -4.672   3.106 -31.633  1.00  0.00     0.129 C 
BRANCH   7   8
HETATM    8  C   UNL     1      -3.676   1.965 -31.400  1.00  0.00     0.058 C 
BRANCH   8   9
HETATM    9  C   UNL     1      -4.049   0.685 -32.110  1.00  0.00    -0.057 A 
HETATM   10  C   UNL     1      -3.464  -0.529 -31.735  1.00  0.00     0.009 A 
HETATM   11  C   UNL     1      -3.822  -1.717 -32.379  1.00  0.00     0.032 A 
HETATM   12  C   UNL     1      -4.768  -1.707 -33.415  1.00  0.00     0.058 A 
HETATM   13  C   UNL     1      -5.345  -0.491 -33.802  1.00  0.00     0.032 A 
HETATM   14  C   UNL     1      -4.987   0.694 -33.150  1.00  0.00     0.009 A 
BRANCH  12  15
HETATM   15  N   UNL     1      -5.128  -2.931 -34.044  1.00  0.00    -0.246 N 
HETATM   16  N   UNL     1      -4.322  -4.024 -33.961  1.00  0.00    -0.180 NA
HETATM   17  C   UNL     1      -4.965  -4.976 -34.638  1.00  0.00     0.140 A 
HETATM   18  C   UNL     1      -6.179  -4.525 -35.173  1.00  0.00     0.040 A 
HETATM   19  C   UNL     1      -6.262  -3.211 -34.781  1.00  0.00     0.120 A 
ENDBRANCH  12  15
ENDBRANCH   8   9
ENDBRANCH   7   8
ENDBRANCH   3   7
BRANCH   1  20
HETATM   20  C   UNL     1      -8.745   2.242 -32.716  1.00  0.00     0.036 A 
HETATM   21  C   UNL     1      -9.261   0.952 -32.806  1.00  0.00     0.030 A 
HETATM   22  C   UNL     1     -10.539   0.735 -33.332  1.00  0.00     0.018 A 
HETATM   23  C   UNL     1     -11.330   1.809 -33.764  1.00  0.00     0.015 A 
HETATM   24  C   UNL     1     -10.828   3.121 -33.669  1.00  0.00    -0.046 A 
HETATM   25  C   UNL     1     -11.620   4.326 -34.102  1.00  0.00     0.049 C 
HETATM   26  C   UNL     1      -9.530   3.316 -33.160  1.00  0.00     0.037 A 
BRANCH  23  27
HETATM   27  C   UNL     1     -12.680   1.529 -34.340  1.00  0.00     0.156 C 
HETATM   28  C   UNL     1     -13.825   1.277 -33.392  1.00  0.00     0.097 C 
HETATM   29  O   UNL     1     -12.842   1.478 -35.556  1.00  0.00    -0.293 OA
ENDBRANCH  23  27
ENDBRANCH   1  20
TORSDOF 6
ENDMDL
MODEL 3
REMARK VINA RESULT:      -8.3      3.337      9.902
REMARK  6 active torsions:
REMARK  status: ('A' for Active; 'I' for Inactive)
REMARK    1  A    between atoms: C_3  and  C_4 
REMARK    2  A    between atoms: C_9  and  N_10 
REMARK       I    between atoms: N_10  and  C_11 
REMARK       I    between atoms: C_11  and  N_12 
REMARK    3  A    between atoms: N_12  and  C_13 
REMARK    4  A    between atoms: C_13  and  C_14 
REMARK    5  A    between atoms: C_14  and  C_15 
REMARK    6  A    between atoms: C_18  and  N_19 
ROOT
HETATM    1  N   UNL     1      -6.347   1.996 -33.720  1.00  0.00    -0.309 N 
HETATM    2  C   UNL     1      -6.605   2.594 -32.518  1.00  0.00     0.320 C 
HETATM    3  N   UNL     1      -6.721   3.952 -32.545  1.00  0.00    -0.343 N 
HETATM    4  O   UNL     1      -6.759   2.029 -31.440  1.00  0.00    -0.247 OA
HETATM    5  H   UNL     1      -6.341   2.599 -34.525  1.00  0.00     0.170 HD
HETATM    6  H   UNL     1      -6.966   4.331 -31.637  1.00  0.00     0.164 HD
ENDROOT
BRANCH   3   7
HETATM    7  C   UNL     1      -6.635   4.887 -33.655  1.00  0.00     0.129 C 
BRANCH   7   8
HETATM    8  C   UNL     1      -5.238   4.973 -34.280  1.00  0.00     0.058 C 
BRANCH   8   9
HETATM    9  C   UNL     1      -4.133   5.138 -33.264  1.00  0.00    -0.057 A 
HETATM   10  C   UNL     1      -3.219   4.103 -33.037  1.00  0.00     0.009 A 
HETATM   11  C   UNL     1      -2.185   4.261 -32.111  1.00  0.00     0.032 A 
HETATM   12  C   UNL     1      -2.053   5.457 -31.390  1.00  0.00     0.058 A 
HETATM   13  C   UNL     1      -2.974   6.490 -31.603  1.00  0.00     0.032 A 
HETATM   14  C   UNL     1      -4.004   6.328 -32.537  1.00  0.00     0.009 A 
BRANCH  12  15
HETATM   15  N   UNL     1      -0.983   5.600 -30.464  1.00  0.00    -0.246 N 
HETATM   16  N   UNL     1      -0.039   4.628 -30.328  1.00  0.00    -0.180 NA
HETATM   17  C   UNL     1       0.802   5.094 -29.405  1.00  0.00     0.140 A 
HETATM   18  C   UNL     1       0.424   6.354 -28.922  1.00  0.00     0.040 A 
HETATM   19  C   UNL     1      -0.724   6.658 -29.614  1.00  0.00     0.120 A 
ENDBRANCH  12  15
ENDBRANCH   8   9
ENDBRANCH   7   8
ENDBRANCH   3   7
BRANCH   1  20
HETATM   20  C   UNL     1      -6.170   0.623 -33.984  1.00  0.00     0.036 A 
HETATM   21  C   UNL     1      -6.940  -0.104 -34.888  1.00  0.00     0.030 A 
HETATM   22  C   UNL     1      -6.706  -1.469 -35.081  1.00  0.00     0.018 A 
HETATM   23  C   UNL     1      -5.686  -2.130 -34.380  1.00  0.00     0.015 A 
HETATM   24  C   UNL     1      -4.891  -1.407 -33.471  1.00  0.00    -0.046 A 
HETATM   25  C   UNL     1      -3.771  -2.042 -32.689  1.00  0.00     0.049 C 
HETATM   26  C   UNL     1      -5.158  -0.039 -33.273  1.00  0.00     0.037 A 
BRANCH  23  27
HETATM   27  C   UNL     1      -5.487  -3.594 -34.602  1.00  0.00     0.156 C 
HETATM   28  C   UNL     1      -6.669  -4.420 -35.040  1.00  0.00     0.097 C 
HETATM   29  O   UNL     1      -4.391  -4.112 -34.404  1.00  0.00    -0.293 OA
ENDBRANCH  23  27
ENDBRANCH   1  20
TORSDOF 6
ENDMDL
MODEL 4
REMARK VINA RESULT:      -8.3      3.043     10.929
REMARK  6 active torsions:
REMARK  status: ('A' for Active; 'I' for Inactive)
REMARK    1  A    between atoms: C_3  and  C_4 
REMARK    2  A    between atoms: C_9  and  N_10 
REMARK       I    between atoms: N_10  and  C_11 
REMARK       I    between atoms: C_11  and  N_12 
REMARK    3  A    between atoms: N_12  and  C_13 
REMARK    4  A    between atoms: C_13  and  C_14 
REMARK    5  A    between atoms: C_14  and  C_15 
REMARK    6  A    between atoms: C_18  and  N_19 
ROOT
HETATM    1  N   UNL     1      -4.416   2.169 -32.382  1.00  0.00    -0.309 N 
HETATM    2  C   UNL     1      -4.545   2.653 -31.110  1.00  0.00     0.320 C 
HETATM    3  N   UNL     1      -4.046   3.904 -30.898  1.00  0.00    -0.343 N 
HETATM    4  O   UNL     1      -5.079   2.084 -30.163  1.00  0.00    -0.247 OA
HETATM    5  H   UNL     1      -4.034   2.803 -33.063  1.00  0.00     0.170 HD
HETATM    6  H   UNL     1      -4.220   4.229 -29.954  1.00  0.00     0.164 HD
ENDROOT
BRANCH   3   7
HETATM    7  C   UNL     1      -3.404   4.834 -31.814  1.00  0.00     0.129 C 
BRANCH   7   8
HETATM    8  C   UNL     1      -1.878   4.698 -31.860  1.00  0.00     0.058 C 
BRANCH   8   9
HETATM    9  C   UNL     1      -1.174   5.434 -30.745  1.00  0.00    -0.057 A 
HETATM   10  C   UNL     1      -0.025   4.896 -30.156  1.00  0.00     0.009 A 
HETATM   11  C   UNL     1       0.638   5.585 -29.137  1.00  0.00     0.032 A 
HETATM   12  C   UNL     1       0.156   6.822 -28.685  1.00  0.00     0.058 A 
HETATM   13  C   UNL     1      -1.002   7.358 -29.263  1.00  0.00     0.032 A 
HETATM   14  C   UNL     1      -1.658   6.666 -30.287  1.00  0.00     0.009 A 
BRANCH  12  15
HETATM   15  N   UNL     1       0.858   7.512 -27.658  1.00  0.00    -0.246 N 
HETATM   16  N   UNL     1       1.623   8.601 -27.942  1.00  0.00    -0.180 NA
HETATM   17  C   UNL     1       2.108   8.995 -26.765  1.00  0.00     0.140 A 
HETATM   18  C   UNL     1       1.683   8.179 -25.709  1.00  0.00     0.040 A 
HETATM   19  C   UNL     1       0.883   7.234 -26.305  1.00  0.00     0.120 A 
ENDBRANCH  12  15
ENDBRANCH   8   9
ENDBRANCH   7   8
ENDBRANCH   3   7
BRANCH   1  20
HETATM   20  C   UNL     1      -4.828   0.917 -32.878  1.00  0.00     0.036 A 
HETATM   21  C   UNL     1      -4.209  -0.290 -32.562  1.00  0.00     0.030 A 
HETATM   22  C   UNL     1      -4.674  -1.490 -33.109  1.00  0.00     0.018 A 
HETATM   23  C   UNL     1      -5.779  -1.506 -33.972  1.00  0.00     0.015 A 
HETATM   24  C   UNL     1      -6.424  -0.297 -34.293  1.00  0.00    -0.046 A 
HETATM   25  C   UNL     1      -7.622  -0.233 -35.203  1.00  0.00     0.049 C 
HETATM   26  C   UNL     1      -5.925   0.903 -33.751  1.00  0.00     0.037 A 
BRANCH  23  27
HETATM   27  C   UNL     1      -6.227  -2.809 -34.550  1.00  0.00     0.156 C 
HETATM   28  C   UNL     1      -5.386  -3.442 -35.628  1.00  0.00     0.097 C 
HETATM   29  O   UNL     1      -7.271  -3.334 -34.172  1.00  0.00    -0.293 OA
ENDBRANCH  23  27
ENDBRANCH   1  20
TORSDOF 6
ENDMDL
MODEL 5
REMARK VINA RESULT:      -8.2      2.701      4.287
REMARK  6 active torsions:
REMARK  status: ('A' for Active; 'I' for Inactive)
REMARK    1  A    between atoms: C_3  and  C_4 
REMARK    2  A    between atoms: C_9  and  N_10 
REMARK       I    between atoms: N_10  and  C_11 
REMARK       I    between atoms: C_11  and  N_12 
REMARK    3  A    between atoms: N_12  and  C_13 
REMARK    4  A    between atoms: C_13  and  C_14 
REMARK    5  A    between atoms: C_14  and  C_15 
REMARK    6  A    between atoms: C_18  and  N_19 
ROOT
HETATM    1  N   UNL     1      -5.893   3.793 -32.743  1.00  0.00    -0.309 N 
HETATM    2  C   UNL     1      -7.000   4.557 -32.992  1.00  0.00     0.320 C 
HETATM    3  N   UNL     1      -8.147   3.868 -33.255  1.00  0.00    -0.343 N 
HETATM    4  O   UNL     1      -7.060   5.782 -32.979  1.00  0.00    -0.247 OA
HETATM    5  H   UNL     1      -6.038   2.799 -32.702  1.00  0.00     0.170 HD
HETATM    6  H   UNL     1      -8.942   4.485 -33.376  1.00  0.00     0.164 HD
ENDROOT
BRANCH   3   7
HETATM    7  C   UNL     1      -8.403   2.436 -33.299  1.00  0.00     0.129 C 
BRANCH   7   8
HETATM    8  C   UNL     1      -7.971   1.775 -34.613  1.00  0.00     0.058 C 
BRANCH   8   9
HETATM    9  C   UNL     1      -7.180   0.505 -34.417  1.00  0.00    -0.057 A 
HETATM   10  C   UNL     1      -7.630  -0.702 -34.964  1.00  0.00     0.009 A 
HETATM   11  C   UNL     1      -6.888  -1.875 -34.799  1.00  0.00     0.032 A 
HETATM   12  C   UNL     1      -5.687  -1.860 -34.076  1.00  0.00     0.058 A 
HETATM   13  C   UNL     1      -5.240  -0.658 -33.514  1.00  0.00     0.032 A 
HETATM   14  C   UNL     1      -5.984   0.515 -33.688  1.00  0.00     0.009 A 
BRANCH  12  15
HETATM   15  N   UNL     1      -4.941  -3.064 -33.935  1.00  0.00    -0.246 N 
HETATM   16  N   UNL     1      -5.346  -4.213 -34.541  1.00  0.00    -0.180 NA
HETATM   17  C   UNL     1      -4.422  -5.117 -34.214  1.00  0.00     0.140 A 
HETATM   18  C   UNL     1      -3.419  -4.585 -33.394  1.00  0.00     0.040 A 
HETATM   19  C   UNL     1      -3.773  -3.267 -33.226  1.00  0.00     0.120 A 
ENDBRANCH  12  15
ENDBRANCH   8   9
ENDBRANCH   7   8
ENDBRANCH   3   7
BRANCH   1  20
HETATM   20  C   UNL     1      -4.586   4.233 -32.454  1.00  0.00     0.036 A 
HETATM   21  C   UNL     1      -4.110   4.475 -31.168  1.00  0.00     0.030 A 
HETATM   22  C   UNL     1      -2.800   4.923 -30.970  1.00  0.00     0.018 A 
HETATM   23  C   UNL     1      -1.937   5.124 -32.057  1.00  0.00     0.015 A 
HETATM   24  C   UNL     1      -2.398   4.873 -33.363  1.00  0.00    -0.046 A 
HETATM   25  C   UNL     1      -1.530   5.056 -34.580  1.00  0.00     0.049 C 
HETATM   26  C   UNL     1      -3.728   4.446 -33.543  1.00  0.00     0.037 A 
BRANCH  23  27
HETATM   27  C   UNL     1      -0.553   5.625 -31.800  1.00  0.00     0.156 C 
HETATM   28  C   UNL     1      -0.310   7.112 -31.844  1.00  0.00     0.097 C 
HETATM   29  O   UNL     1       0.366   4.840 -31.584  1.00  0.00    -0.293 OA
ENDBRANCH  23  27
ENDBRANCH   1  20
TORSDOF 6
ENDMDL
MODEL 6
REMARK VINA RESULT:      -8.1      4.539      8.718
REMARK  6 active torsions:
REMARK  status: ('A' for Active; 'I' for Inactive)
REMARK    1  A    between atoms: C_3  and  C_4 
REMARK    2  A    between atoms: C_9  and  N_10 
REMARK       I    between atoms: N_10  and  C_11 
REMARK       I    between atoms: C_11  and  N_12 
REMARK    3  A    between atoms: N_12  and  C_13 
REMARK    4  A    between atoms: C_13  and  C_14 
REMARK    5  A    between atoms: C_14  and  C_15 
REMARK    6  A    between atoms: C_18  and  N_19 
ROOT
HETATM    1  N   UNL     1      -5.206   1.906 -31.348  1.00  0.00    -0.309 N 
HETATM    2  C   UNL     1      -4.129   2.735 -31.197  1.00  0.00     0.320 C 
HETATM    3  N   UNL     1      -4.321   3.813 -30.383  1.00  0.00    -0.343 N 
HETATM    4  O   UNL     1      -3.020   2.590 -31.700  1.00  0.00    -0.247 OA
HETATM    5  H   UNL     1      -6.016   2.121 -30.791  1.00  0.00     0.170 HD
HETATM    6  H   UNL     1      -3.474   4.357 -30.267  1.00  0.00     0.164 HD
ENDROOT
BRANCH   3   7
HETATM    7  C   UNL     1      -5.489   4.227 -29.622  1.00  0.00     0.129 C 
BRANCH   7   8
HETATM    8  C   UNL     1      -6.432   5.153 -30.399  1.00  0.00     0.058 C 
BRANCH   8   9
HETATM    9  C   UNL     1      -7.583   4.429 -31.055  1.00  0.00    -0.057 A 
HETATM   10  C   UNL     1      -8.679   4.006 -30.294  1.00  0.00     0.009 A 
HETATM   11  C   UNL     1      -9.753   3.352 -30.903  1.00  0.00     0.032 A 
HETATM   12  C   UNL     1      -9.744   3.103 -32.283  1.00  0.00     0.058 A 
HETATM   13  C   UNL     1      -8.643   3.512 -33.045  1.00  0.00     0.032 A 
HETATM   14  C   UNL     1      -7.572   4.172 -32.431  1.00  0.00     0.009 A 
BRANCH  12  15
HETATM   15  N   UNL     1     -10.857   2.450 -32.883  1.00  0.00    -0.246 N 
HETATM   16  N   UNL     1     -12.107   2.981 -32.804  1.00  0.00    -0.180 NA
HETATM   17  C   UNL     1     -12.884   2.131 -33.476  1.00  0.00     0.140 A 
HETATM   18  C   UNL     1     -12.168   1.043 -33.990  1.00  0.00     0.040 A 
HETATM   19  C   UNL     1     -10.870   1.267 -33.596  1.00  0.00     0.120 A 
ENDBRANCH  12  15
ENDBRANCH   8   9
ENDBRANCH   7   8
ENDBRANCH   3   7
BRANCH   1  20
HETATM   20  C   UNL     1      -5.295   0.737 -32.129  1.00  0.00     0.036 A 
HETATM   21  C   UNL     1      -4.614  -0.444 -31.847  1.00  0.00     0.030 A 
HETATM   22  C   UNL     1      -4.748  -1.557 -32.683  1.00  0.00     0.018 A 
HETATM   23  C   UNL     1      -5.578  -1.512 -33.812  1.00  0.00     0.015 A 
HETATM   24  C   UNL     1      -6.283  -0.330 -34.106  1.00  0.00    -0.046 A 
HETATM   25  C   UNL     1      -7.201  -0.206 -35.293  1.00  0.00     0.049 C 
HETATM   26  C   UNL     1      -6.116   0.788 -33.266  1.00  0.00     0.037 A 
BRANCH  23  27
HETATM   27  C   UNL     1      -5.673  -2.718 -34.689  1.00  0.00     0.156 C 
HETATM   28  C   UNL     1      -6.874  -3.617 -34.545  1.00  0.00     0.097 C 
HETATM   29  O   UNL     1      -4.778  -2.981 -35.488  1.00  0.00    -0.293 OA
ENDBRANCH  23  27
ENDBRANCH   1  20
TORSDOF 6
ENDMDL
MODEL 7
REMARK VINA RESULT:      -8.1      1.364      2.127
REMARK  6 active torsions:
REMARK  status: ('A' for Active; 'I' for Inactive)
REMARK    1  A    between atoms: C_3  and  C_4 
REMARK    2  A    between atoms: C_9  and  N_10 
REMARK       I    between atoms: N_10  and  C_11 
REMARK       I    between atoms: C_11  and  N_12 
REMARK    3  A    between atoms: N_12  and  C_13 
REMARK    4  A    between atoms: C_13  and  C_14 
REMARK    5  A    between atoms: C_14  and  C_15 
REMARK    6  A    between atoms: C_18  and  N_19 
ROOT
HETATM    1  N   UNL     1      -3.892   5.212 -32.508  1.00  0.00    -0.309 N 
HETATM    2  C   UNL     1      -3.938   5.491 -33.846  1.00  0.00     0.320 C 
HETATM    3  N   UNL     1      -4.948   4.893 -34.541  1.00  0.00    -0.343 N 
HETATM    4  O   UNL     1      -3.182   6.234 -34.463  1.00  0.00    -0.247 OA
HETATM    5  H   UNL     1      -4.645   4.654 -32.143  1.00  0.00     0.170 HD
HETATM    6  H   UNL     1      -4.964   5.182 -35.513  1.00  0.00     0.164 HD
ENDROOT
BRANCH   3   7
HETATM    7  C   UNL     1      -6.012   4.009 -34.092  1.00  0.00     0.129 C 
BRANCH   7   8
HETATM    8  C   UNL     1      -5.596   3.080 -32.946  1.00  0.00     0.058 C 
BRANCH   8   9
HETATM    9  C   UNL     1      -5.612   1.617 -33.320  1.00  0.00    -0.057 A 
HETATM   10  C   UNL     1      -4.670   0.737 -32.777  1.00  0.00     0.009 A 
HETATM   11  C   UNL     1      -4.695  -0.621 -33.108  1.00  0.00     0.032 A 
HETATM   12  C   UNL     1      -5.660  -1.118 -33.996  1.00  0.00     0.058 A 
HETATM   13  C   UNL     1      -6.596  -0.237 -34.553  1.00  0.00     0.032 A 
HETATM   14  C   UNL     1      -6.570   1.120 -34.213  1.00  0.00     0.009 A 
BRANCH  12  15
HETATM   15  N   UNL     1      -5.676  -2.506 -34.305  1.00  0.00    -0.246 N 
HETATM   16  N   UNL     1      -4.553  -3.265 -34.176  1.00  0.00    -0.180 NA
HETATM   17  C   UNL     1      -4.929  -4.495 -34.528  1.00  0.00     0.140 A 
HETATM   18  C   UNL     1      -6.279  -4.558 -34.897  1.00  0.00     0.040 A 
HETATM   19  C   UNL     1      -6.737  -3.271 -34.748  1.00  0.00     0.120 A 
ENDBRANCH  12  15
ENDBRANCH   8   9
ENDBRANCH   7   8
ENDBRANCH   3   7
BRANCH   1  20
HETATM   20  C   UNL     1      -2.961   5.677 -31.559  1.00  0.00     0.036 A 
HETATM   21  C   UNL     1      -3.267   6.578 -30.542  1.00  0.00     0.030 A 
HETATM   22  C   UNL     1      -2.278   7.000 -29.648  1.00  0.00     0.018 A 
HETATM   23  C   UNL     1      -0.965   6.517 -29.747  1.00  0.00     0.015 A 
HETATM   24  C   UNL     1      -0.641   5.597 -30.762  1.00  0.00    -0.046 A 
HETATM   25  C   UNL     1       0.741   5.024 -30.927  1.00  0.00     0.049 C 
HETATM   26  C   UNL     1      -1.645   5.203 -31.667  1.00  0.00     0.037 A 
BRANCH  23  27
HETATM   27  C   UNL     1       0.063   7.012 -28.783  1.00  0.00     0.156 C 
HETATM   28  C   UNL     1       0.168   6.341 -27.438  1.00  0.00     0.097 C 
HETATM   29  O   UNL     1       0.786   7.962 -29.075  1.00  0.00    -0.293 OA
ENDBRANCH  23  27
ENDBRANCH   1  20
TORSDOF 6
ENDMDL
MODEL 8
REMARK VINA RESULT:      -8.0      3.379      5.557
REMARK  6 active torsions:
REMARK  status: ('A' for Active; 'I' for Inactive)
REMARK    1  A    between atoms: C_3  and  C_4 
REMARK    2  A    between atoms: C_9  and  N_10 
REMARK       I    between atoms: N_10  and  C_11 
REMARK       I    between atoms: C_11  and  N_12 
REMARK    3  A    between atoms: N_12  and  C_13 
REMARK    4  A    between atoms: C_13  and  C_14 
REMARK    5  A    between atoms: C_14  and  C_15 
REMARK    6  A    between atoms: C_18  and  N_19 
ROOT
HETATM    1  N   UNL     1      -3.712   1.359 -32.520  1.00  0.00    -0.309 N 
HETATM    2  C   UNL     1      -3.168   0.270 -31.897  1.00  0.00     0.320 C 
HETATM    3  N   UNL     1      -3.318  -0.919 -32.547  1.00  0.00    -0.343 N 
HETATM    4  O   UNL     1      -2.549   0.269 -30.838  1.00  0.00    -0.247 OA
HETATM    5  H   UNL     1      -4.107   1.200 -33.431  1.00  0.00     0.170 HD
HETATM    6  H   UNL     1      -2.847  -1.677 -32.065  1.00  0.00     0.164 HD
ENDROOT
BRANCH   3   7
HETATM    7  C   UNL     1      -3.953  -1.230 -33.818  1.00  0.00     0.129 C 
BRANCH   7   8
HETATM    8  C   UNL     1      -5.309  -1.930 -33.673  1.00  0.00     0.058 C 
BRANCH   8   9
HETATM    9  C   UNL     1      -6.485  -0.985 -33.750  1.00  0.00    -0.057 A 
HETATM   10  C   UNL     1      -7.041  -0.647 -34.988  1.00  0.00     0.009 A 
HETATM   11  C   UNL     1      -8.142   0.212 -35.059  1.00  0.00     0.032 A 
HETATM   12  C   UNL     1      -8.698   0.753 -33.891  1.00  0.00     0.058 A 
HETATM   13  C   UNL     1      -8.134   0.428 -32.651  1.00  0.00     0.032 A 
HETATM   14  C   UNL     1      -7.037  -0.438 -32.585  1.00  0.00     0.009 A 
BRANCH  12  15
HETATM   15  N   UNL     1      -9.827   1.612 -33.987  1.00  0.00    -0.246 N 
HETATM   16  N   UNL     1     -11.071   1.175 -33.647  1.00  0.00    -0.180 NA
HETATM   17  C   UNL     1     -11.868   2.226 -33.842  1.00  0.00     0.140 A 
HETATM   18  C   UNL     1     -11.172   3.347 -34.313  1.00  0.00     0.040 A 
HETATM   19  C   UNL     1      -9.866   2.929 -34.400  1.00  0.00     0.120 A 
ENDBRANCH  12  15
ENDBRANCH   8   9
ENDBRANCH   7   8
ENDBRANCH   3   7
BRANCH   1  20
HETATM   20  C   UNL     1      -3.717   2.696 -32.077  1.00  0.00     0.036 A 
HETATM   21  C   UNL     1      -4.637   3.216 -31.171  1.00  0.00     0.030 A 
HETATM   22  C   UNL     1      -4.579   4.561 -30.794  1.00  0.00     0.018 A 
HETATM   23  C   UNL     1      -3.587   5.410 -31.307  1.00  0.00     0.015 A 
HETATM   24  C   UNL     1      -2.641   4.898 -32.216  1.00  0.00    -0.046 A 
HETATM   25  C   UNL     1      -1.541   5.742 -32.803  1.00  0.00     0.049 C 
HETATM   26  C   UNL     1      -2.732   3.547 -32.602  1.00  0.00     0.037 A 
BRANCH  23  27
HETATM   27  C   UNL     1      -3.577   6.845 -30.893  1.00  0.00     0.156 C 
HETATM   28  C   UNL     1      -2.826   7.225 -29.643  1.00  0.00     0.097 C 
HETATM   29  O   UNL     1      -4.190   7.687 -31.543  1.00  0.00    -0.293 OA
ENDBRANCH  23  27
ENDBRANCH   1  20
TORSDOF 6
ENDMDL
MODEL 9
REMARK VINA RESULT:      -7.9      6.392      9.831
REMARK  6 active torsions:
REMARK  status: ('A' for Active; 'I' for Inactive)
REMARK    1  A    between atoms: C_3  and  C_4 
REMARK    2  A    between atoms: C_9  and  N_10 
REMARK       I    between atoms: N_10  and  C_11 
REMARK       I    between atoms: C_11  and  N_12 
REMARK    3  A    between atoms: N_12  and  C_13 
REMARK    4  A    between atoms: C_13  and  C_14 
REMARK    5  A    between atoms: C_14  and  C_15 
REMARK    6  A    between atoms: C_18  and  N_19 
ROOT
HETATM    1  N   UNL     1      -6.814   1.967 -33.636  1.00  0.00    -0.309 N 
HETATM    2  C   UNL     1      -7.172   2.492 -32.425  1.00  0.00     0.320 C 
HETATM    3  N   UNL     1      -7.403   3.836 -32.407  1.00  0.00    -0.343 N 
HETATM    4  O   UNL     1      -7.322   1.873 -31.377  1.00  0.00    -0.247 OA
HETATM    5  H   UNL     1      -6.826   2.600 -34.417  1.00  0.00     0.170 HD
HETATM    6  H   UNL     1      -7.717   4.156 -31.498  1.00  0.00     0.164 HD
ENDROOT
BRANCH   3   7
HETATM    7  C   UNL     1      -7.350   4.819 -33.478  1.00  0.00     0.129 C 
BRANCH   7   8
HETATM    8  C   UNL     1      -8.671   5.566 -33.692  1.00  0.00     0.058 C 
BRANCH   8   9
HETATM    9  C   UNL     1      -9.880   4.662 -33.703  1.00  0.00    -0.057 A 
HETATM   10  C   UNL     1     -10.803   4.701 -32.653  1.00  0.00     0.009 A 
HETATM   11  C   UNL     1     -11.932   3.877 -32.671  1.00  0.00     0.032 A 
HETATM   12  C   UNL     1     -12.151   2.995 -33.739  1.00  0.00     0.058 A 
HETATM   13  C   UNL     1     -11.222   2.943 -34.785  1.00  0.00     0.032 A 
HETATM   14  C   UNL     1     -10.096   3.774 -34.765  1.00  0.00     0.009 A 
BRANCH  12  15
HETATM   15  N   UNL     1     -13.316   2.178 -33.743  1.00  0.00    -0.246 N 
HETATM   16  N   UNL     1     -14.348   2.426 -32.890  1.00  0.00    -0.180 NA
HETATM   17  C   UNL     1     -15.258   1.495 -33.175  1.00  0.00     0.140 A 
HETATM   18  C   UNL     1     -14.841   0.632 -34.196  1.00  0.00     0.040 A 
HETATM   19  C   UNL     1     -13.592   1.088 -34.544  1.00  0.00     0.120 A 
ENDBRANCH  12  15
ENDBRANCH   8   9
ENDBRANCH   7   8
ENDBRANCH   3   7
BRANCH   1  20
HETATM   20  C   UNL     1      -6.509   0.626 -33.941  1.00  0.00     0.036 A 
HETATM   21  C   UNL     1      -7.226  -0.151 -34.848  1.00  0.00     0.030 A 
HETATM   22  C   UNL     1      -6.864  -1.481 -35.083  1.00  0.00     0.018 A 
HETATM   23  C   UNL     1      -5.767  -2.055 -34.425  1.00  0.00     0.015 A 
HETATM   24  C   UNL     1      -5.024  -1.281 -33.514  1.00  0.00    -0.046 A 
HETATM   25  C   UNL     1      -3.828  -1.821 -32.776  1.00  0.00     0.049 C 
HETATM   26  C   UNL     1      -5.420   0.049 -33.272  1.00  0.00     0.037 A 
BRANCH  23  27
HETATM   27  C   UNL     1      -5.430  -3.486 -34.691  1.00  0.00     0.156 C 
HETATM   28  C   UNL     1      -6.550  -4.433 -35.039  1.00  0.00     0.097 C 
HETATM   29  O   UNL     1      -4.271  -3.883 -34.601  1.00  0.00    -0.293 OA
ENDBRANCH  23  27
ENDBRANCH   1  20
TORSDOF 6
ENDMDL
MODEL 10
REMARK VINA RESULT:      -7.8      3.135     11.291
REMARK  6 active torsions:
REMARK  status: ('A' for Active; 'I' for Inactive)
REMARK    1  A    between atoms: C_3  and  C_4 
REMARK    2  A    between atoms: C_9  and  N_10 
REMARK       I    between atoms: N_10  and  C_11 
REMARK       I    between atoms: C_11  and  N_12 
REMARK    3  A    between atoms: N_12  and  C_13 
REMARK    4  A    between atoms: C_13  and  C_14 
REMARK    5  A    between atoms: C_14  and  C_15 
REMARK    6  A    between atoms: C_18  and  N_19 
ROOT
HETATM    1  N   UNL     1      -2.706   3.835 -31.907  1.00  0.00    -0.309 N 
HETATM    2  C   UNL     1      -1.841   4.566 -32.673  1.00  0.00     0.320 C 
HETATM    3  N   UNL     1      -0.924   5.307 -31.986  1.00  0.00    -0.343 N 
HETATM    4  O   UNL     1      -1.799   4.600 -33.898  1.00  0.00    -0.247 OA
HETATM    5  H   UNL     1      -2.544   3.849 -30.915  1.00  0.00     0.170 HD
HETATM    6  H   UNL     1      -0.277   5.781 -32.606  1.00  0.00     0.164 HD
ENDROOT
BRANCH   3   7
HETATM    7  C   UNL     1      -0.695   5.440 -30.556  1.00  0.00     0.129 C 
BRANCH   7   8
HETATM    8  C   UNL     1      -1.432   6.625 -29.923  1.00  0.00     0.058 C 
BRANCH   8   9
HETATM    9  C   UNL     1      -0.702   7.232 -28.750  1.00  0.00    -0.057 A 
HETATM   10  C   UNL     1      -1.314   7.301 -27.493  1.00  0.00     0.009 A 
HETATM   11  C   UNL     1      -0.631   7.846 -26.402  1.00  0.00     0.032 A 
HETATM   12  C   UNL     1       0.673   8.338 -26.553  1.00  0.00     0.058 A 
HETATM   13  C   UNL     1       1.283   8.285 -27.812  1.00  0.00     0.032 A 
HETATM   14  C   UNL     1       0.598   7.732 -28.900  1.00  0.00     0.009 A 
BRANCH  12  15
HETATM   15  N   UNL     1       1.353   8.874 -25.424  1.00  0.00    -0.246 N 
HETATM   16  N   UNL     1       2.675   8.623 -25.218  1.00  0.00    -0.180 NA
HETATM   17  C   UNL     1       2.978   9.281 -24.100  1.00  0.00     0.140 A 
HETATM   18  C   UNL     1       1.876   9.955 -23.558  1.00  0.00     0.040 A 
HETATM   19  C   UNL     1       0.845   9.679 -24.423  1.00  0.00     0.120 A 
ENDBRANCH  12  15
ENDBRANCH   8   9
ENDBRANCH   7   8
ENDBRANCH   3   7
BRANCH   1  20
HETATM   20  C   UNL     1      -3.751   2.997 -32.344  1.00  0.00     0.036 A 
HETATM   21  C   UNL     1      -4.959   3.459 -32.859  1.00  0.00     0.030 A 
HETATM   22  C   UNL     1      -5.951   2.558 -33.258  1.00  0.00     0.018 A 
HETATM   23  C   UNL     1      -5.745   1.174 -33.162  1.00  0.00     0.015 A 
HETATM   24  C   UNL     1      -4.525   0.689 -32.655  1.00  0.00    -0.046 A 
HETATM   25  C   UNL     1      -4.224  -0.781 -32.530  1.00  0.00     0.049 C 
HETATM   26  C   UNL     1      -3.549   1.614 -32.235  1.00  0.00     0.037 A 
BRANCH  23  27
HETATM   27  C   UNL     1      -6.841   0.248 -33.580  1.00  0.00     0.156 C 
HETATM   28  C   UNL     1      -6.909  -0.177 -35.024  1.00  0.00     0.097 C 
HETATM   29  O   UNL     1      -7.680  -0.132 -32.768  1.00  0.00    -0.293 OA
ENDBRANCH  23  27
ENDBRANCH   1  20
TORSDOF 6
ENDMDL
