MODEL 1
REMARK VINA RESULT:      -8.3      0.000      0.000
REMARK  1 active torsions:
REMARK  status: ('A' for Active; 'I' for Inactive)
REMARK    1  A    between atoms: C_8  and  C_9 
ROOT
HETATM    1  C   UNL     1      -6.534   0.266 -30.244  1.00  0.00     0.073 C 
HETATM    2  C   UNL     1      -6.338   1.741 -30.263  1.00  0.00     0.062 A 
HETATM    3  N   UNL     1      -6.937   2.492 -29.336  1.00  0.00    -0.178 NA
HETATM    4  N   UNL     1      -6.519   3.728 -29.608  1.00  0.00    -0.262 N 
HETATM    5  H   UNL     1      -6.836   4.478 -29.004  1.00  0.00     0.191 HD
HETATM    6  C   UNL     1      -5.718   3.827 -30.716  1.00  0.00     0.134 A 
HETATM    7  C   UNL     1      -5.551   2.530 -31.177  1.00  0.00     0.032 A 
HETATM    8  C   UNL     1      -4.684   1.953 -32.259  1.00  0.00     0.120 C 
HETATM    9  S   UNL     1      -3.475   3.063 -33.018  1.00  0.00    -0.141 SA
HETATM   10  C   UNL     1      -4.536   4.480 -33.418  1.00  0.00     0.136 C 
HETATM   11  C   UNL     1      -3.947   5.178 -34.646  1.00  0.00     0.031 C 
HETATM   12  C   UNL     1      -4.619   5.438 -32.237  1.00  0.00     0.236 C 
HETATM   13  O   UNL     1      -4.218   6.605 -32.305  1.00  0.00    -0.272 OA
HETATM   14  N   UNL     1      -5.248   5.068 -31.083  1.00  0.00    -0.311 N 
HETATM   15  H   UNL     1      -5.354   5.848 -30.442  1.00  0.00     0.170 HD
ENDROOT
BRANCH   8  16
HETATM   16  C   UNL     1      -5.556   1.205 -33.274  1.00  0.00    -0.029 A 
HETATM   17  C   UNL     1      -5.299  -0.173 -33.592  1.00  0.00    -0.018 A 
HETATM   18  C   UNL     1      -6.168  -0.843 -34.495  1.00  0.00    -0.025 A 
HETATM   19  C   UNL     1      -4.230  -0.940 -33.059  1.00  0.00     0.013 A 
HETATM   20  C   UNL     1      -5.976  -2.201 -34.799  1.00  0.00     0.012 A 
HETATM   21  C   UNL     1      -7.231  -0.155 -35.092  1.00  0.00     0.012 A 
HETATM   22  C   UNL     1      -4.930  -2.924 -34.236  1.00  0.00     0.001 A 
HETATM   23  C   UNL     1      -4.052  -2.292 -33.370  1.00  0.00     0.001 A 
HETATM   24  C   UNL     1      -7.462   1.184 -34.810  1.00  0.00     0.002 A 
HETATM   25  C   UNL     1      -6.638   1.853 -33.911  1.00  0.00     0.009 A 
ENDBRANCH   8  16
TORSDOF 1
ENDMDL
MODEL 2
REMARK VINA RESULT:      -8.0      2.223      3.121
REMARK  1 active torsions:
REMARK  status: ('A' for Active; 'I' for Inactive)
REMARK    1  A    between atoms: C_8  and  C_9 
ROOT
HETATM    1  C   UNL     1      -6.028   4.331 -29.639  1.00  0.00     0.073 C 
HETATM    2  C   UNL     1      -5.351   5.488 -30.284  1.00  0.00     0.062 A 
HETATM    3  N   UNL     1      -5.775   6.726 -30.018  1.00  0.00    -0.178 NA
HETATM    4  N   UNL     1      -4.937   7.504 -30.705  1.00  0.00    -0.262 N 
HETATM    5  H   UNL     1      -5.058   8.508 -30.632  1.00  0.00     0.191 HD
HETATM    6  C   UNL     1      -4.018   6.824 -31.460  1.00  0.00     0.134 A 
HETATM    7  C   UNL     1      -4.238   5.480 -31.200  1.00  0.00     0.032 A 
HETATM    8  C   UNL     1      -3.486   4.243 -31.602  1.00  0.00     0.120 C 
HETATM    9  S   UNL     1      -1.891   4.486 -32.419  1.00  0.00    -0.141 SA
HETATM   10  C   UNL     1      -2.359   5.675 -33.708  1.00  0.00     0.136 C 
HETATM   11  C   UNL     1      -1.423   5.471 -34.901  1.00  0.00     0.031 C 
HETATM   12  C   UNL     1      -2.264   7.101 -33.181  1.00  0.00     0.236 C 
HETATM   13  O   UNL     1      -1.491   7.934 -33.668  1.00  0.00    -0.272 OA
HETATM   14  N   UNL     1      -3.119   7.545 -32.213  1.00  0.00    -0.311 N 
HETATM   15  H   UNL     1      -3.038   8.545 -32.065  1.00  0.00     0.170 HD
ENDROOT
BRANCH   8  16
HETATM   16  C   UNL     1      -4.424   3.291 -32.351  1.00  0.00    -0.029 A 
HETATM   17  C   UNL     1      -4.323   1.867 -32.175  1.00  0.00    -0.018 A 
HETATM   18  C   UNL     1      -5.251   1.026 -32.845  1.00  0.00    -0.025 A 
HETATM   19  C   UNL     1      -3.358   1.220 -31.359  1.00  0.00     0.013 A 
HETATM   20  C   UNL     1      -5.213  -0.367 -32.666  1.00  0.00     0.012 A 
HETATM   21  C   UNL     1      -6.219   1.576 -33.693  1.00  0.00     0.012 A 
HETATM   22  C   UNL     1      -4.265  -0.961 -31.838  1.00  0.00     0.001 A 
HETATM   23  C   UNL     1      -3.333  -0.167 -31.190  1.00  0.00     0.001 A 
HETATM   24  C   UNL     1      -6.297   2.948 -33.889  1.00  0.00     0.002 A 
HETATM   25  C   UNL     1      -5.414   3.792 -33.225  1.00  0.00     0.009 A 
ENDBRANCH   8  16
TORSDOF 1
ENDMDL
MODEL 3
REMARK VINA RESULT:      -7.9      3.108      5.530
REMARK  1 active torsions:
REMARK  status: ('A' for Active; 'I' for Inactive)
REMARK    1  A    between atoms: C_8  and  C_9 
ROOT
HETATM    1  C   UNL     1      -7.041   5.734 -31.091  1.00  0.00     0.073 C 
HETATM    2  C   UNL     1      -7.993   4.594 -31.006  1.00  0.00     0.062 A 
HETATM    3  N   UNL     1      -8.944   4.605 -30.069  1.00  0.00    -0.178 NA
HETATM    4  N   UNL     1      -9.634   3.488 -30.302  1.00  0.00    -0.262 N 
HETATM    5  H   UNL     1     -10.436   3.297 -29.713  1.00  0.00     0.191 HD
HETATM    6  C   UNL     1      -9.135   2.712 -31.316  1.00  0.00     0.134 A 
HETATM    7  C   UNL     1      -8.055   3.413 -31.830  1.00  0.00     0.032 A 
HETATM    8  C   UNL     1      -7.180   3.173 -33.026  1.00  0.00     0.120 C 
HETATM    9  S   UNL     1      -7.681   1.851 -34.154  1.00  0.00    -0.141 SA
HETATM   10  C   UNL     1      -7.934   0.493 -32.976  1.00  0.00     0.136 C 
HETATM   11  C   UNL     1      -7.651  -0.822 -33.705  1.00  0.00     0.031 C 
HETATM   12  C   UNL     1      -9.356   0.516 -32.430  1.00  0.00     0.236 C 
HETATM   13  O   UNL     1     -10.146  -0.418 -32.609  1.00  0.00    -0.272 OA
HETATM   14  N   UNL     1      -9.774   1.531 -31.619  1.00  0.00    -0.311 N 
HETATM   15  H   UNL     1     -10.686   1.343 -31.216  1.00  0.00     0.170 HD
ENDROOT
BRANCH   8  16
HETATM   16  C   UNL     1      -5.715   3.083 -32.584  1.00  0.00    -0.029 A 
HETATM   17  C   UNL     1      -4.685   3.787 -33.299  1.00  0.00    -0.018 A 
HETATM   18  C   UNL     1      -3.349   3.722 -32.819  1.00  0.00    -0.025 A 
HETATM   19  C   UNL     1      -4.900   4.568 -34.465  1.00  0.00     0.013 A 
HETATM   20  C   UNL     1      -2.321   4.430 -33.464  1.00  0.00     0.012 A 
HETATM   21  C   UNL     1      -3.041   2.951 -31.692  1.00  0.00     0.012 A 
HETATM   22  C   UNL     1      -2.578   5.204 -34.591  1.00  0.00     0.001 A 
HETATM   23  C   UNL     1      -3.867   5.268 -35.096  1.00  0.00     0.001 A 
HETATM   24  C   UNL     1      -4.030   2.245 -31.020  1.00  0.00     0.002 A 
HETATM   25  C   UNL     1      -5.347   2.314 -31.458  1.00  0.00     0.009 A 
ENDBRANCH   8  16
TORSDOF 1
ENDMDL
MODEL 4
REMARK VINA RESULT:      -7.6     16.319     17.530
REMARK  1 active torsions:
REMARK  status: ('A' for Active; 'I' for Inactive)
REMARK    1  A    between atoms: C_8  and  C_9 
ROOT
HETATM    1  C   UNL     1      -5.231 -13.521 -39.460  1.00  0.00     0.073 C 
HETATM    2  C   UNL     1      -4.632 -13.915 -38.156  1.00  0.00     0.062 A 
HETATM    3  N   UNL     1      -3.333 -14.217 -38.098  1.00  0.00    -0.178 NA
HETATM    4  N   UNL     1      -3.122 -14.469 -36.806  1.00  0.00    -0.262 N 
HETATM    5  H   UNL     1      -2.179 -14.703 -36.518  1.00  0.00     0.191 HD
HETATM    6  C   UNL     1      -4.245 -14.404 -36.022  1.00  0.00     0.134 A 
HETATM    7  C   UNL     1      -5.273 -14.020 -36.869  1.00  0.00     0.032 A 
HETATM    8  C   UNL     1      -6.703 -13.643 -36.606  1.00  0.00     0.120 C 
HETATM    9  S   UNL     1      -7.194 -13.455 -34.876  1.00  0.00    -0.141 SA
HETATM   10  C   UNL     1      -6.565 -15.012 -34.185  1.00  0.00     0.136 C 
HETATM   11  C   UNL     1      -7.451 -15.393 -32.998  1.00  0.00     0.031 C 
HETATM   12  C   UNL     1      -5.113 -14.856 -33.751  1.00  0.00     0.236 C 
HETATM   13  O   UNL     1      -4.757 -14.998 -32.576  1.00  0.00    -0.272 OA
HETATM   14  N   UNL     1      -4.127 -14.663 -34.675  1.00  0.00    -0.311 N 
HETATM   15  H   UNL     1      -3.202 -14.723 -34.262  1.00  0.00     0.170 HD
ENDROOT
BRANCH   8  16
HETATM   16  C   UNL     1      -7.633 -14.553 -37.416  1.00  0.00    -0.029 A 
HETATM   17  C   UNL     1      -8.531 -14.005 -38.396  1.00  0.00    -0.018 A 
HETATM   18  C   UNL     1      -9.334 -14.891 -39.163  1.00  0.00    -0.025 A 
HETATM   19  C   UNL     1      -8.677 -12.620 -38.673  1.00  0.00     0.013 A 
HETATM   20  C   UNL     1     -10.192 -14.398 -40.160  1.00  0.00     0.012 A 
HETATM   21  C   UNL     1      -9.276 -16.271 -38.936  1.00  0.00     0.012 A 
HETATM   22  C   UNL     1     -10.288 -13.034 -40.417  1.00  0.00     0.001 A 
HETATM   23  C   UNL     1      -9.536 -12.144 -39.669  1.00  0.00     0.001 A 
HETATM   24  C   UNL     1      -8.432 -16.799 -37.968  1.00  0.00     0.002 A 
HETATM   25  C   UNL     1      -7.621 -15.953 -37.222  1.00  0.00     0.009 A 
ENDBRANCH   8  16
TORSDOF 1
ENDMDL
MODEL 5
REMARK VINA RESULT:      -7.5      5.223      8.077
REMARK  1 active torsions:
REMARK  status: ('A' for Active; 'I' for Inactive)
REMARK    1  A    between atoms: C_8  and  C_9 
ROOT
HETATM    1  C   UNL     1      -3.796   7.049 -28.491  1.00  0.00     0.073 C 
HETATM    2  C   UNL     1      -4.263   6.500 -29.792  1.00  0.00     0.062 A 
HETATM    3  N   UNL     1      -5.446   5.885 -29.855  1.00  0.00    -0.178 NA
HETATM    4  N   UNL     1      -5.572   5.568 -31.144  1.00  0.00    -0.262 N 
HETATM    5  H   UNL     1      -6.425   5.104 -31.435  1.00  0.00     0.191 HD
HETATM    6  C   UNL     1      -4.491   5.897 -31.920  1.00  0.00     0.134 A 
HETATM    7  C   UNL     1      -3.600   6.537 -31.071  1.00  0.00     0.032 A 
HETATM    8  C   UNL     1      -2.305   7.252 -31.330  1.00  0.00     0.120 C 
HETATM    9  S   UNL     1      -1.855   7.529 -33.059  1.00  0.00    -0.141 SA
HETATM   10  C   UNL     1      -2.071   5.855 -33.728  1.00  0.00     0.136 C 
HETATM   11  C   UNL     1      -1.103   5.687 -34.901  1.00  0.00     0.031 C 
HETATM   12  C   UNL     1      -3.511   5.639 -34.175  1.00  0.00     0.236 C 
HETATM   13  O   UNL     1      -3.806   5.396 -35.351  1.00  0.00    -0.272 OA
HETATM   14  N   UNL     1      -4.525   5.597 -33.263  1.00  0.00    -0.311 N 
HETATM   15  H   UNL     1      -5.401   5.303 -33.683  1.00  0.00     0.170 HD
ENDROOT
BRANCH   8  16
HETATM   16  C   UNL     1      -1.188   6.613 -30.497  1.00  0.00    -0.029 A 
HETATM   17  C   UNL     1      -0.581   7.327 -29.407  1.00  0.00    -0.018 A 
HETATM   18  C   UNL     1       0.410   6.674 -28.626  1.00  0.00    -0.025 A 
HETATM   19  C   UNL     1      -0.906   8.657 -29.031  1.00  0.00     0.013 A 
HETATM   20  C   UNL     1       0.996   7.321 -27.526  1.00  0.00     0.012 A 
HETATM   21  C   UNL     1       0.813   5.371 -28.943  1.00  0.00     0.012 A 
HETATM   22  C   UNL     1       0.633   8.618 -27.176  1.00  0.00     0.001 A 
HETATM   23  C   UNL     1      -0.314   9.289 -27.934  1.00  0.00     0.001 A 
HETATM   24  C   UNL     1       0.250   4.692 -30.015  1.00  0.00     0.002 A 
HETATM   25  C   UNL     1      -0.738   5.303 -30.778  1.00  0.00     0.009 A 
ENDBRANCH   8  16
TORSDOF 1
ENDMDL
MODEL 6
REMARK VINA RESULT:      -7.5      3.037      5.360
REMARK  1 active torsions:
REMARK  status: ('A' for Active; 'I' for Inactive)
REMARK    1  A    between atoms: C_8  and  C_9 
ROOT
HETATM    1  C   UNL     1      -3.391   0.861 -32.374  1.00  0.00     0.073 C 
HETATM    2  C   UNL     1      -4.838   0.823 -32.034  1.00  0.00     0.062 A 
HETATM    3  N   UNL     1      -5.518  -0.315 -32.197  1.00  0.00    -0.178 NA
HETATM    4  N   UNL     1      -6.743  -0.019 -31.761  1.00  0.00    -0.262 N 
HETATM    5  H   UNL     1      -7.439  -0.756 -31.770  1.00  0.00     0.191 HD
HETATM    6  C   UNL     1      -6.911   1.286 -31.375  1.00  0.00     0.134 A 
HETATM    7  C   UNL     1      -5.668   1.883 -31.518  1.00  0.00     0.032 A 
HETATM    8  C   UNL     1      -5.158   3.243 -31.138  1.00  0.00     0.120 C 
HETATM    9  S   UNL     1      -6.255   4.278 -30.140  1.00  0.00    -0.141 SA
HETATM   10  C   UNL     1      -7.786   4.165 -31.110  1.00  0.00     0.136 C 
HETATM   11  C   UNL     1      -8.576   5.457 -30.897  1.00  0.00     0.031 C 
HETATM   12  C   UNL     1      -8.602   2.952 -30.682  1.00  0.00     0.236 C 
HETATM   13  O   UNL     1      -9.735   3.057 -30.201  1.00  0.00    -0.272 OA
HETATM   14  N   UNL     1      -8.147   1.687 -30.922  1.00  0.00    -0.311 N 
HETATM   15  H   UNL     1      -8.852   0.986 -30.719  1.00  0.00     0.170 HD
ENDROOT
BRANCH   8  16
HETATM   16  C   UNL     1      -4.602   3.951 -32.378  1.00  0.00    -0.029 A 
HETATM   17  C   UNL     1      -3.275   4.504 -32.379  1.00  0.00    -0.018 A 
HETATM   18  C   UNL     1      -2.780   5.100 -33.569  1.00  0.00    -0.025 A 
HETATM   19  C   UNL     1      -2.395   4.494 -31.265  1.00  0.00     0.013 A 
HETATM   20  C   UNL     1      -1.473   5.614 -33.624  1.00  0.00     0.012 A 
HETATM   21  C   UNL     1      -3.590   5.180 -34.708  1.00  0.00     0.012 A 
HETATM   22  C   UNL     1      -0.633   5.562 -32.516  1.00  0.00     0.001 A 
HETATM   23  C   UNL     1      -1.096   5.008 -31.334  1.00  0.00     0.001 A 
HETATM   24  C   UNL     1      -4.883   4.675 -34.699  1.00  0.00     0.002 A 
HETATM   25  C   UNL     1      -5.380   4.067 -33.552  1.00  0.00     0.009 A 
ENDBRANCH   8  16
TORSDOF 1
ENDMDL
MODEL 7
REMARK VINA RESULT:      -7.5      2.285      3.785
REMARK  1 active torsions:
REMARK  status: ('A' for Active; 'I' for Inactive)
REMARK    1  A    between atoms: C_8  and  C_9 
ROOT
HETATM    1  C   UNL     1      -3.020   2.926 -32.703  1.00  0.00     0.073 C 
HETATM    2  C   UNL     1      -3.543   4.028 -31.851  1.00  0.00     0.062 A 
HETATM    3  N   UNL     1      -2.684   4.806 -31.188  1.00  0.00    -0.178 NA
HETATM    4  N   UNL     1      -3.466   5.699 -30.580  1.00  0.00    -0.262 N 
HETATM    5  H   UNL     1      -3.019   6.419 -30.026  1.00  0.00     0.191 HD
HETATM    6  C   UNL     1      -4.810   5.500 -30.769  1.00  0.00     0.134 A 
HETATM    7  C   UNL     1      -4.913   4.413 -31.623  1.00  0.00     0.032 A 
HETATM    8  C   UNL     1      -6.091   3.788 -32.314  1.00  0.00     0.120 C 
HETATM    9  S   UNL     1      -7.665   4.671 -32.207  1.00  0.00    -0.141 SA
HETATM   10  C   UNL     1      -7.761   4.958 -30.417  1.00  0.00     0.136 C 
HETATM   11  C   UNL     1      -9.239   5.013 -30.027  1.00  0.00     0.031 C 
HETATM   12  C   UNL     1      -7.051   6.253 -30.044  1.00  0.00     0.236 C 
HETATM   13  O   UNL     1      -7.646   7.205 -29.526  1.00  0.00    -0.272 OA
HETATM   14  N   UNL     1      -5.696   6.365 -30.168  1.00  0.00    -0.311 N 
HETATM   15  H   UNL     1      -5.347   7.221 -29.749  1.00  0.00     0.170 HD
ENDROOT
BRANCH   8  16
HETATM   16  C   UNL     1      -6.188   2.307 -31.931  1.00  0.00    -0.029 A 
HETATM   17  C   UNL     1      -6.490   1.308 -32.919  1.00  0.00    -0.018 A 
HETATM   18  C   UNL     1      -6.513  -0.058 -32.529  1.00  0.00    -0.025 A 
HETATM   19  C   UNL     1      -6.765   1.580 -34.285  1.00  0.00     0.013 A 
HETATM   20  C   UNL     1      -6.763  -1.068 -33.474  1.00  0.00     0.012 A 
HETATM   21  C   UNL     1      -6.283  -0.415 -31.196  1.00  0.00     0.012 A 
HETATM   22  C   UNL     1      -7.003  -0.761 -34.809  1.00  0.00     0.001 A 
HETATM   23  C   UNL     1      -7.011   0.564 -35.214  1.00  0.00     0.001 A 
HETATM   24  C   UNL     1      -6.022   0.551 -30.234  1.00  0.00     0.002 A 
HETATM   25  C   UNL     1      -5.971   1.892 -30.598  1.00  0.00     0.009 A 
ENDBRANCH   8  16
TORSDOF 1
ENDMDL
MODEL 8
REMARK VINA RESULT:      -7.4     16.480     17.946
REMARK  1 active torsions:
REMARK  status: ('A' for Active; 'I' for Inactive)
REMARK    1  A    between atoms: C_8  and  C_9 
ROOT
HETATM    1  C   UNL     1      -5.472 -13.911 -42.698  1.00  0.00     0.073 C 
HETATM    2  C   UNL     1      -4.256 -13.984 -41.844  1.00  0.00     0.062 A 
HETATM    3  N   UNL     1      -3.092 -14.339 -42.393  1.00  0.00    -0.178 NA
HETATM    4  N   UNL     1      -2.224 -14.255 -41.383  1.00  0.00    -0.262 N 
HETATM    5  H   UNL     1      -1.252 -14.463 -41.578  1.00  0.00     0.191 HD
HETATM    6  C   UNL     1      -2.785 -13.917 -40.178  1.00  0.00     0.134 A 
HETATM    7  C   UNL     1      -4.131 -13.707 -40.435  1.00  0.00     0.032 A 
HETATM    8  C   UNL     1      -5.247 -13.186 -39.576  1.00  0.00     0.120 C 
HETATM    9  S   UNL     1      -4.791 -12.520 -37.958  1.00  0.00    -0.141 SA
HETATM   10  C   UNL     1      -3.764 -13.875 -37.321  1.00  0.00     0.136 C 
HETATM   11  C   UNL     1      -3.876 -13.875 -35.795  1.00  0.00     0.031 C 
HETATM   12  C   UNL     1      -2.316 -13.701 -37.760  1.00  0.00     0.236 C 
HETATM   13  O   UNL     1      -1.395 -13.551 -36.949  1.00  0.00    -0.272 OA
HETATM   14  N   UNL     1      -1.968 -13.819 -39.075  1.00  0.00    -0.311 N 
HETATM   15  H   UNL     1      -0.961 -13.825 -39.201  1.00  0.00     0.170 HD
ENDROOT
BRANCH   8  16
HETATM   16  C   UNL     1      -6.379 -14.218 -39.520  1.00  0.00    -0.029 A 
HETATM   17  C   UNL     1      -7.749 -13.820 -39.697  1.00  0.00    -0.018 A 
HETATM   18  C   UNL     1      -8.760 -14.818 -39.696  1.00  0.00    -0.025 A 
HETATM   19  C   UNL     1      -8.183 -12.481 -39.888  1.00  0.00     0.013 A 
HETATM   20  C   UNL     1     -10.106 -14.475 -39.908  1.00  0.00     0.012 A 
HETATM   21  C   UNL     1      -8.425 -16.161 -39.485  1.00  0.00     0.012 A 
HETATM   22  C   UNL     1     -10.487 -13.153 -40.116  1.00  0.00     0.001 A 
HETATM   23  C   UNL     1      -9.526 -12.155 -40.098  1.00  0.00     0.001 A 
HETATM   24  C   UNL     1      -7.106 -16.543 -39.283  1.00  0.00     0.002 A 
HETATM   25  C   UNL     1      -6.098 -15.586 -39.304  1.00  0.00     0.009 A 
ENDBRANCH   8  16
TORSDOF 1
ENDMDL
MODEL 9
REMARK VINA RESULT:      -7.4      3.482      5.444
REMARK  1 active torsions:
REMARK  status: ('A' for Active; 'I' for Inactive)
REMARK    1  A    between atoms: C_8  and  C_9 
ROOT
HETATM    1  C   UNL     1      -7.093  -0.027 -35.455  1.00  0.00     0.073 C 
HETATM    2  C   UNL     1      -6.354   0.372 -34.227  1.00  0.00     0.062 A 
HETATM    3  N   UNL     1      -5.254  -0.299 -33.878  1.00  0.00    -0.178 NA
HETATM    4  N   UNL     1      -4.825   0.335 -32.787  1.00  0.00    -0.262 N 
HETATM    5  H   UNL     1      -3.971   0.005 -32.353  1.00  0.00     0.191 HD
HETATM    6  C   UNL     1      -5.635   1.359 -32.369  1.00  0.00     0.134 A 
HETATM    7  C   UNL     1      -6.656   1.438 -33.304  1.00  0.00     0.032 A 
HETATM    8  C   UNL     1      -7.772   2.425 -33.493  1.00  0.00     0.120 C 
HETATM    9  S   UNL     1      -7.731   3.911 -32.463  1.00  0.00    -0.141 SA
HETATM   10  C   UNL     1      -7.497   3.168 -30.823  1.00  0.00     0.136 C 
HETATM   11  C   UNL     1      -8.137   4.096 -29.789  1.00  0.00     0.031 C 
HETATM   12  C   UNL     1      -6.015   2.970 -30.532  1.00  0.00     0.236 C 
HETATM   13  O   UNL     1      -5.447   3.535 -29.590  1.00  0.00    -0.272 OA
HETATM   14  N   UNL     1      -5.280   2.065 -31.242  1.00  0.00    -0.311 N 
HETATM   15  H   UNL     1      -4.354   1.934 -30.847  1.00  0.00     0.170 HD
ENDROOT
BRANCH   8  16
HETATM   16  C   UNL     1      -9.118   1.693 -33.466  1.00  0.00    -0.029 A 
HETATM   17  C   UNL     1     -10.254   2.214 -34.177  1.00  0.00    -0.018 A 
HETATM   18  C   UNL     1     -11.466   1.473 -34.172  1.00  0.00    -0.025 A 
HETATM   19  C   UNL     1     -10.261   3.431 -34.909  1.00  0.00     0.013 A 
HETATM   20  C   UNL     1     -12.586   1.926 -34.889  1.00  0.00     0.012 A 
HETATM   21  C   UNL     1     -11.557   0.275 -33.452  1.00  0.00     0.012 A 
HETATM   22  C   UNL     1     -12.544   3.112 -35.614  1.00  0.00     0.001 A 
HETATM   23  C   UNL     1     -11.384   3.869 -35.618  1.00  0.00     0.001 A 
HETATM   24  C   UNL     1     -10.471  -0.212 -32.739  1.00  0.00     0.002 A 
HETATM   25  C   UNL     1      -9.268   0.485 -32.750  1.00  0.00     0.009 A 
ENDBRANCH   8  16
TORSDOF 1
ENDMDL
MODEL 10
REMARK VINA RESULT:      -7.3     15.862     17.349
REMARK  1 active torsions:
REMARK  status: ('A' for Active; 'I' for Inactive)
REMARK    1  A    between atoms: C_8  and  C_9 
ROOT
HETATM    1  C   UNL     1      -5.528 -13.410 -41.083  1.00  0.00     0.073 C 
HETATM    2  C   UNL     1      -6.317 -13.133 -39.853  1.00  0.00     0.062 A 
HETATM    3  N   UNL     1      -7.375 -12.322 -39.923  1.00  0.00    -0.178 NA
HETATM    4  N   UNL     1      -7.868 -12.332 -38.684  1.00  0.00    -0.262 N 
HETATM    5  H   UNL     1      -8.706 -11.791 -38.505  1.00  0.00     0.191 HD
HETATM    6  C   UNL     1      -7.139 -13.070 -37.788  1.00  0.00     0.134 A 
HETATM    7  C   UNL     1      -6.108 -13.639 -38.520  1.00  0.00     0.032 A 
HETATM    8  C   UNL     1      -5.059 -14.652 -38.157  1.00  0.00     0.120 C 
HETATM    9  S   UNL     1      -5.223 -15.457 -36.546  1.00  0.00    -0.141 SA
HETATM   10  C   UNL     1      -5.438 -14.007 -35.474  1.00  0.00     0.136 C 
HETATM   11  C   UNL     1      -4.884 -14.356 -34.091  1.00  0.00     0.031 C 
HETATM   12  C   UNL     1      -6.908 -13.619 -35.388  1.00  0.00     0.236 C 
HETATM   13  O   UNL     1      -7.533 -13.633 -34.321  1.00  0.00    -0.272 OA
HETATM   14  N   UNL     1      -7.565 -13.129 -36.480  1.00  0.00    -0.311 N 
HETATM   15  H   UNL     1      -8.487 -12.778 -36.243  1.00  0.00     0.170 HD
ENDROOT
BRANCH   8  16
HETATM   16  C   UNL     1      -3.666 -14.066 -38.415  1.00  0.00    -0.029 A 
HETATM   17  C   UNL     1      -2.702 -14.782 -39.205  1.00  0.00    -0.018 A 
HETATM   18  C   UNL     1      -1.444 -14.175 -39.467  1.00  0.00    -0.025 A 
HETATM   19  C   UNL     1      -2.911 -16.069 -39.767  1.00  0.00     0.013 A 
HETATM   20  C   UNL     1      -0.490 -14.823 -40.270  1.00  0.00     0.012 A 
HETATM   21  C   UNL     1      -1.140 -12.920 -38.928  1.00  0.00     0.012 A 
HETATM   22  C   UNL     1      -0.744 -16.074 -40.822  1.00  0.00     0.001 A 
HETATM   23  C   UNL     1      -1.953 -16.700 -40.565  1.00  0.00     0.001 A 
HETATM   24  C   UNL     1      -2.059 -12.242 -38.138  1.00  0.00     0.002 A 
HETATM   25  C   UNL     1      -3.305 -12.806 -37.889  1.00  0.00     0.009 A 
ENDBRANCH   8  16
TORSDOF 1
ENDMDL
