MODEL 1
REMARK VINA RESULT:      -8.0      0.000      0.000
REMARK  11 active torsions:
REMARK  status: ('A' for Active; 'I' for Inactive)
REMARK    1  A    between atoms: C_2  and  N_3 
REMARK    2  A    between atoms: N_3  and  C_5 
REMARK    3  A    between atoms: N_3  and  C_34 
REMARK    4  A    between atoms: C_5  and  C_6 
REMARK    5  A    between atoms: C_6  and  C_7 
REMARK    6  A    between atoms: C_7  and  N_8 
REMARK       I    between atoms: N_8  and  C_9 
REMARK    7  A    between atoms: C_9  and  C_10 
REMARK    8  A    between atoms: C_10  and  O_11 
REMARK    9  A    between atoms: N_12  and  C_13 
REMARK   10  A    between atoms: C_14  and  O_15 
REMARK   11  A    between atoms: C_18  and  O_19 
ROOT
HETATM    1  C   UNL     1      -6.644   0.964 -33.484  1.00  0.00     0.256 C 
HETATM    2  N   UNL     1      -6.000   1.857 -32.496  1.00  0.00    -0.251 N 
HETATM    3  C   UNL     1      -4.645   1.734 -32.216  1.00  0.00     0.330 C 
HETATM    4  O   UNL     1      -3.973   2.562 -31.602  1.00  0.00    -0.246 OA
HETATM    5  N   UNL     1      -4.025   0.578 -32.572  1.00  0.00    -0.308 N 
HETATM    6  C   UNL     1      -4.628  -0.506 -33.182  1.00  0.00     0.048 A 
HETATM    7  C   UNL     1      -5.941  -0.386 -33.617  1.00  0.00     0.035 A 
HETATM    8  C   UNL     1      -3.904  -1.689 -33.356  1.00  0.00     0.031 A 
HETATM    9  C   UNL     1      -4.506  -2.787 -33.967  1.00  0.00     0.021 A 
HETATM   10  C   UNL     1      -5.816  -2.683 -34.421  1.00  0.00     0.011 A 
HETATM   11 BR   UNL     1      -6.644  -4.166 -35.249  1.00  0.00    -0.051 Br
HETATM   12  C   UNL     1      -6.525  -1.490 -34.271  1.00  0.00     0.034 A 
HETATM   13  H   UNL     1      -3.044   0.540 -32.320  1.00  0.00     0.170 HD
ENDROOT
BRANCH   1  14
HETATM   14  C   UNL     1      -8.163   0.639 -33.063  1.00  0.00     0.279 C 
HETATM   15  N   UNL     1      -9.149   1.219 -33.865  1.00  0.00    -0.356 N 
HETATM   16  H   UNL     1      -8.853   1.451 -34.807  1.00  0.00     0.162 HD
HETATM   17  O   UNL     1      -8.463   0.054 -32.021  1.00  0.00    -0.268 OA
BRANCH  15  18
HETATM   18  C   UNL     1     -10.545   0.940 -33.610  1.00  0.00     0.124 C 
BRANCH  18  19
HETATM   19  C   UNL     1     -11.440   2.137 -33.930  1.00  0.00     0.047 C 
BRANCH  19  20
HETATM   20  C   UNL     1     -12.610   1.828 -34.865  1.00  0.00     0.236 C 
BRANCH  20  21
HETATM   21  N   UNL     1     -13.971   2.010 -34.207  1.00  0.00    -0.072 N 
HETATM   22  H   UNL     1     -14.540   2.571 -34.851  1.00  0.00     0.279 HD
BRANCH  21  23
HETATM   23  C   UNL     1     -13.894   2.841 -32.933  1.00  0.00     0.230 C 
HETATM   24  C   UNL     1     -15.057   2.510 -32.012  1.00  0.00     0.034 C 
ENDBRANCH  21  23
BRANCH  21  25
HETATM   25  C   UNL     1     -14.765   0.729 -34.005  1.00  0.00     0.230 C 
HETATM   26  C   UNL     1     -13.885  -0.469 -33.707  1.00  0.00     0.034 C 
ENDBRANCH  21  25
ENDBRANCH  20  21
ENDBRANCH  19  20
ENDBRANCH  18  19
ENDBRANCH  15  18
ENDBRANCH   1  14
BRANCH   1  27
HETATM   27  O   UNL     1      -6.505   1.533 -34.771  1.00  0.00    -0.359 OA
HETATM   28  H   UNL     1      -7.417   1.605 -35.106  1.00  0.00     0.213 HD
ENDBRANCH   1  27
BRANCH   2  29
HETATM   29  C   UNL     1      -6.720   2.967 -31.906  1.00  0.00     0.076 A 
HETATM   30  C   UNL     1      -7.134   4.116 -32.604  1.00  0.00     0.098 A 
HETATM   31  C   UNL     1      -7.983   5.062 -32.004  1.00  0.00     0.075 A 
HETATM   32  C   UNL     1      -8.381   4.910 -30.679  1.00  0.00     0.070 A 
HETATM   33  C   UNL     1      -7.951   3.801 -29.961  1.00  0.00     0.039 A 
HETATM   34  C   UNL     1      -7.124   2.849 -30.562  1.00  0.00     0.035 A 
BRANCH  30  35
HETATM   35  O   UNL     1      -6.715   4.317 -33.896  1.00  0.00    -0.354 OA
HETATM   36  C   UNL     1      -5.507   5.092 -33.945  1.00  0.00     0.210 C 
ENDBRANCH  30  35
BRANCH  32  37
HETATM   37  O   UNL     1      -9.217   5.752 -30.002  1.00  0.00    -0.356 OA
HETATM   38  C   UNL     1      -8.661   6.370 -28.845  1.00  0.00     0.210 C 
ENDBRANCH  32  37
ENDBRANCH   2  29
TORSDOF 11
ENDMDL
MODEL 2
REMARK VINA RESULT:      -7.7      2.615      6.752
REMARK  11 active torsions:
REMARK  status: ('A' for Active; 'I' for Inactive)
REMARK    1  A    between atoms: C_2  and  N_3 
REMARK    2  A    between atoms: N_3  and  C_5 
REMARK    3  A    between atoms: N_3  and  C_34 
REMARK    4  A    between atoms: C_5  and  C_6 
REMARK    5  A    between atoms: C_6  and  C_7 
REMARK    6  A    between atoms: C_7  and  N_8 
REMARK       I    between atoms: N_8  and  C_9 
REMARK    7  A    between atoms: C_9  and  C_10 
REMARK    8  A    between atoms: C_10  and  O_11 
REMARK    9  A    between atoms: N_12  and  C_13 
REMARK   10  A    between atoms: C_14  and  O_15 
REMARK   11  A    between atoms: C_18  and  O_19 
ROOT
HETATM    1  C   UNL     1      -9.250   2.547 -32.563  1.00  0.00     0.256 C 
HETATM    2  N   UNL     1      -8.071   3.325 -33.005  1.00  0.00    -0.251 N 
HETATM    3  C   UNL     1      -8.227   4.420 -33.844  1.00  0.00     0.330 C 
HETATM    4  O   UNL     1      -7.359   5.262 -34.075  1.00  0.00    -0.246 OA
HETATM    5  N   UNL     1      -9.396   4.536 -34.529  1.00  0.00    -0.308 N 
HETATM    6  C   UNL     1     -10.452   3.645 -34.479  1.00  0.00     0.048 A 
HETATM    7  C   UNL     1     -10.413   2.612 -33.551  1.00  0.00     0.035 A 
HETATM    8  C   UNL     1     -11.532   3.808 -35.349  1.00  0.00     0.031 A 
HETATM    9  C   UNL     1     -12.598   2.911 -35.307  1.00  0.00     0.021 A 
HETATM   10  C   UNL     1     -12.585   1.878 -34.376  1.00  0.00     0.011 A 
HETATM   11 BR   UNL     1     -14.025   0.655 -34.311  1.00  0.00    -0.051 Br
HETATM   12  C   UNL     1     -11.517   1.737 -33.489  1.00  0.00     0.034 A 
HETATM   13  H   UNL     1      -9.438   5.342 -35.141  1.00  0.00     0.170 HD
ENDROOT
BRANCH   1  14
HETATM   14  C   UNL     1      -8.885   0.988 -32.403  1.00  0.00     0.279 C 
HETATM   15  N   UNL     1      -8.486   0.337 -33.572  1.00  0.00    -0.356 N 
HETATM   16  H   UNL     1      -8.104   0.944 -34.291  1.00  0.00     0.162 HD
HETATM   17  O   UNL     1      -9.086   0.352 -31.366  1.00  0.00    -0.268 OA
BRANCH  15  18
HETATM   18  C   UNL     1      -8.077  -1.049 -33.526  1.00  0.00     0.124 C 
BRANCH  18  19
HETATM   19  C   UNL     1      -6.560  -1.207 -33.637  1.00  0.00     0.047 C 
BRANCH  19  20
HETATM   20  C   UNL     1      -6.086  -1.965 -34.877  1.00  0.00     0.236 C 
BRANCH  20  21
HETATM   21  N   UNL     1      -4.876  -2.852 -34.614  1.00  0.00    -0.072 N 
HETATM   22  H   UNL     1      -4.223  -2.701 -35.391  1.00  0.00     0.279 HD
BRANCH  21  23
HETATM   23  C   UNL     1      -5.218  -4.335 -34.677  1.00  0.00     0.230 C 
HETATM   24  C   UNL     1      -6.607  -4.535 -35.262  1.00  0.00     0.034 C 
ENDBRANCH  21  23
BRANCH  21  25
HETATM   25  C   UNL     1      -4.081  -2.502 -33.366  1.00  0.00     0.230 C 
HETATM   26  C   UNL     1      -3.446  -3.714 -32.713  1.00  0.00     0.034 C 
ENDBRANCH  21  25
ENDBRANCH  20  21
ENDBRANCH  19  20
ENDBRANCH  18  19
ENDBRANCH  15  18
ENDBRANCH   1  14
BRANCH   1  27
HETATM   27  O   UNL     1      -9.778   3.144 -31.396  1.00  0.00    -0.359 OA
HETATM   28  H   UNL     1      -9.279   2.738 -30.665  1.00  0.00     0.213 HD
ENDBRANCH   1  27
BRANCH   2  29
HETATM   29  C   UNL     1      -6.752   3.060 -32.468  1.00  0.00     0.076 A 
HETATM   30  C   UNL     1      -6.349   3.355 -31.152  1.00  0.00     0.098 A 
HETATM   31  C   UNL     1      -5.114   2.903 -30.655  1.00  0.00     0.075 A 
HETATM   32  C   UNL     1      -4.236   2.204 -31.479  1.00  0.00     0.070 A 
HETATM   33  C   UNL     1      -4.602   1.937 -32.793  1.00  0.00     0.039 A 
HETATM   34  C   UNL     1      -5.836   2.367 -33.283  1.00  0.00     0.035 A 
BRANCH  30  35
HETATM   35  O   UNL     1      -7.173   4.086 -30.333  1.00  0.00    -0.354 OA
HETATM   36  C   UNL     1      -6.453   5.126 -29.653  1.00  0.00     0.210 C 
ENDBRANCH  30  35
BRANCH  32  37
HETATM   37  O   UNL     1      -3.024   1.702 -31.099  1.00  0.00    -0.356 OA
HETATM   38  C   UNL     1      -2.920   0.282 -31.099  1.00  0.00     0.210 C 
ENDBRANCH  32  37
ENDBRANCH   2  29
TORSDOF 11
ENDMDL
MODEL 3
REMARK VINA RESULT:      -7.7      3.697      8.650
REMARK  11 active torsions:
REMARK  status: ('A' for Active; 'I' for Inactive)
REMARK    1  A    between atoms: C_2  and  N_3 
REMARK    2  A    between atoms: N_3  and  C_5 
REMARK    3  A    between atoms: N_3  and  C_34 
REMARK    4  A    between atoms: C_5  and  C_6 
REMARK    5  A    between atoms: C_6  and  C_7 
REMARK    6  A    between atoms: C_7  and  N_8 
REMARK       I    between atoms: N_8  and  C_9 
REMARK    7  A    between atoms: C_9  and  C_10 
REMARK    8  A    between atoms: C_10  and  O_11 
REMARK    9  A    between atoms: N_12  and  C_13 
REMARK   10  A    between atoms: C_14  and  O_15 
REMARK   11  A    between atoms: C_18  and  O_19 
ROOT
HETATM    1  C   UNL     1      -7.644   2.855 -33.027  1.00  0.00     0.256 C 
HETATM    2  N   UNL     1      -7.840   1.450 -32.608  1.00  0.00    -0.251 N 
HETATM    3  C   UNL     1      -8.844   1.118 -31.708  1.00  0.00     0.330 C 
HETATM    4  O   UNL     1      -9.239  -0.026 -31.481  1.00  0.00    -0.246 OA
HETATM    5  N   UNL     1      -9.380   2.116 -30.957  1.00  0.00    -0.308 N 
HETATM    6  C   UNL     1      -9.004   3.446 -30.996  1.00  0.00     0.048 A 
HETATM    7  C   UNL     1      -8.112   3.861 -31.977  1.00  0.00     0.035 A 
HETATM    8  C   UNL     1      -9.534   4.340 -30.062  1.00  0.00     0.031 A 
HETATM    9  C   UNL     1      -9.157   5.681 -30.094  1.00  0.00     0.021 A 
HETATM   10  C   UNL     1      -8.275   6.120 -31.075  1.00  0.00     0.011 A 
HETATM   11 BR   UNL     1      -7.755   7.936 -31.127  1.00  0.00    -0.051 Br
HETATM   12  C   UNL     1      -7.771   5.229 -32.024  1.00  0.00     0.034 A 
HETATM   13  H   UNL     1     -10.089   1.807 -30.303  1.00  0.00     0.170 HD
ENDROOT
BRANCH   1  14
HETATM   14  C   UNL     1      -6.087   3.168 -33.286  1.00  0.00     0.279 C 
HETATM   15  N   UNL     1      -5.254   3.049 -32.172  1.00  0.00    -0.356 N 
HETATM   16  H   UNL     1      -5.601   2.436 -31.441  1.00  0.00     0.162 HD
HETATM   17  O   UNL     1      -5.661   3.635 -34.344  1.00  0.00    -0.268 OA
BRANCH  15  18
HETATM   18  C   UNL     1      -3.828   3.248 -32.310  1.00  0.00     0.124 C 
BRANCH  18  19
HETATM   19  C   UNL     1      -3.338   4.472 -31.537  1.00  0.00     0.047 C 
BRANCH  19  20
HETATM   20  C   UNL     1      -1.962   4.986 -31.961  1.00  0.00     0.236 C 
BRANCH  20  21
HETATM   21  N   UNL     1      -2.017   6.325 -32.687  1.00  0.00    -0.072 N 
HETATM   22  H   UNL     1      -2.779   6.863 -32.259  1.00  0.00     0.279 HD
BRANCH  21  23
HETATM   23  C   UNL     1      -2.419   6.177 -34.148  1.00  0.00     0.230 C 
HETATM   24  C   UNL     1      -1.443   5.268 -34.878  1.00  0.00     0.034 C 
ENDBRANCH  21  23
BRANCH  21  25
HETATM   25  C   UNL     1      -0.784   7.199 -32.519  1.00  0.00     0.230 C 
HETATM   26  C   UNL     1       0.128   6.724 -31.405  1.00  0.00     0.034 C 
ENDBRANCH  21  25
ENDBRANCH  20  21
ENDBRANCH  19  20
ENDBRANCH  18  19
ENDBRANCH  15  18
ENDBRANCH   1  14
BRANCH   1  27
HETATM   27  O   UNL     1      -8.484   3.123 -34.133  1.00  0.00    -0.359 OA
HETATM   28  H   UNL     1      -9.125   2.390 -34.136  1.00  0.00     0.213 HD
ENDBRANCH   1  27
BRANCH   2  29
HETATM   29  C   UNL     1      -7.097   0.371 -33.228  1.00  0.00     0.076 A 
HETATM   30  C   UNL     1      -6.028  -0.315 -32.624  1.00  0.00     0.098 A 
HETATM   31  C   UNL     1      -5.478  -1.466 -33.217  1.00  0.00     0.075 A 
HETATM   32  C   UNL     1      -5.944  -1.913 -34.450  1.00  0.00     0.070 A 
HETATM   33  C   UNL     1      -6.974  -1.225 -35.080  1.00  0.00     0.039 A 
HETATM   34  C   UNL     1      -7.535  -0.094 -34.483  1.00  0.00     0.035 A 
BRANCH  30  35
HETATM   35  O   UNL     1      -5.514   0.133 -31.433  1.00  0.00    -0.354 OA
HETATM   36  C   UNL     1      -4.159  -0.305 -31.243  1.00  0.00     0.210 C 
ENDBRANCH  30  35
BRANCH  32  37
HETATM   37  O   UNL     1      -5.500  -3.026 -35.108  1.00  0.00    -0.356 OA
HETATM   38  C   UNL     1      -6.382  -4.145 -35.085  1.00  0.00     0.210 C 
ENDBRANCH  32  37
ENDBRANCH   2  29
TORSDOF 11
ENDMDL
MODEL 4
REMARK VINA RESULT:      -7.3      1.327      2.068
REMARK  11 active torsions:
REMARK  status: ('A' for Active; 'I' for Inactive)
REMARK    1  A    between atoms: C_2  and  N_3 
REMARK    2  A    between atoms: N_3  and  C_5 
REMARK    3  A    between atoms: N_3  and  C_34 
REMARK    4  A    between atoms: C_5  and  C_6 
REMARK    5  A    between atoms: C_6  and  C_7 
REMARK    6  A    between atoms: C_7  and  N_8 
REMARK       I    between atoms: N_8  and  C_9 
REMARK    7  A    between atoms: C_9  and  C_10 
REMARK    8  A    between atoms: C_10  and  O_11 
REMARK    9  A    between atoms: N_12  and  C_13 
REMARK   10  A    between atoms: C_14  and  O_15 
REMARK   11  A    between atoms: C_18  and  O_19 
ROOT
HETATM    1  C   UNL     1      -6.519   0.902 -33.462  1.00  0.00     0.256 C 
HETATM    2  N   UNL     1      -5.846   1.764 -32.465  1.00  0.00    -0.251 N 
HETATM    3  C   UNL     1      -4.491   1.611 -32.206  1.00  0.00     0.330 C 
HETATM    4  O   UNL     1      -3.796   2.415 -31.585  1.00  0.00    -0.246 OA
HETATM    5  N   UNL     1      -3.896   0.451 -32.593  1.00  0.00    -0.308 N 
HETATM    6  C   UNL     1      -4.526  -0.610 -33.216  1.00  0.00     0.048 A 
HETATM    7  C   UNL     1      -5.843  -0.457 -33.631  1.00  0.00     0.035 A 
HETATM    8  C   UNL     1      -3.826  -1.801 -33.422  1.00  0.00     0.031 A 
HETATM    9  C   UNL     1      -4.456  -2.876 -34.046  1.00  0.00     0.021 A 
HETATM   10  C   UNL     1      -5.770  -2.739 -34.482  1.00  0.00     0.011 A 
HETATM   11 BR   UNL     1      -6.635  -4.191 -35.327  1.00  0.00    -0.051 Br
HETATM   12  C   UNL     1      -6.455  -1.537 -34.299  1.00  0.00     0.034 A 
HETATM   13  H   UNL     1      -2.913   0.391 -32.353  1.00  0.00     0.170 HD
ENDROOT
BRANCH   1  14
HETATM   14  C   UNL     1      -8.038   0.596 -33.029  1.00  0.00     0.279 C 
HETATM   15  N   UNL     1      -9.024   1.157 -33.844  1.00  0.00    -0.356 N 
HETATM   16  H   UNL     1      -8.729   1.360 -34.794  1.00  0.00     0.162 HD
HETATM   17  O   UNL     1      -8.338   0.043 -31.968  1.00  0.00    -0.268 OA
BRANCH  15  18
HETATM   18  C   UNL     1     -10.421   0.892 -33.578  1.00  0.00     0.124 C 
BRANCH  18  19
HETATM   19  C   UNL     1     -11.162   2.138 -33.095  1.00  0.00     0.047 C 
BRANCH  19  20
HETATM   20  C   UNL     1     -12.133   2.738 -34.113  1.00  0.00     0.236 C 
BRANCH  20  21
HETATM   21  N   UNL     1     -11.747   4.144 -34.555  1.00  0.00    -0.072 N 
HETATM   22  H   UNL     1     -11.917   4.764 -33.754  1.00  0.00     0.279 HD
BRANCH  21  23
HETATM   23  C   UNL     1     -12.654   4.676 -35.657  1.00  0.00     0.230 C 
HETATM   24  C   UNL     1     -13.359   5.943 -35.198  1.00  0.00     0.034 C 
ENDBRANCH  21  23
BRANCH  21  25
HETATM   25  C   UNL     1     -10.275   4.334 -34.886  1.00  0.00     0.230 C 
HETATM   26  C   UNL     1      -9.852   5.790 -34.879  1.00  0.00     0.034 C 
ENDBRANCH  21  25
ENDBRANCH  20  21
ENDBRANCH  19  20
ENDBRANCH  18  19
ENDBRANCH  15  18
ENDBRANCH   1  14
BRANCH   1  27
HETATM   27  O   UNL     1      -6.386   1.494 -34.740  1.00  0.00    -0.359 OA
HETATM   28  H   UNL     1      -5.740   2.211 -34.611  1.00  0.00     0.213 HD
ENDBRANCH   1  27
BRANCH   2  29
HETATM   29  C   UNL     1      -6.538   2.875 -31.844  1.00  0.00     0.076 A 
HETATM   30  C   UNL     1      -6.994   4.018 -32.527  1.00  0.00     0.098 A 
HETATM   31  C   UNL     1      -7.814   4.964 -31.888  1.00  0.00     0.075 A 
HETATM   32  C   UNL     1      -8.140   4.819 -30.542  1.00  0.00     0.070 A 
HETATM   33  C   UNL     1      -7.667   3.716 -29.842  1.00  0.00     0.039 A 
HETATM   34  C   UNL     1      -6.870   2.764 -30.480  1.00  0.00     0.035 A 
BRANCH  30  35
HETATM   35  O   UNL     1      -6.646   4.213 -33.840  1.00  0.00    -0.354 OA
HETATM   36  C   UNL     1      -5.517   5.093 -33.962  1.00  0.00     0.210 C 
ENDBRANCH  30  35
BRANCH  32  37
HETATM   37  O   UNL     1      -8.942   5.663 -29.827  1.00  0.00    -0.356 OA
HETATM   38  C   UNL     1      -9.930   6.358 -30.582  1.00  0.00     0.210 C 
ENDBRANCH  32  37
ENDBRANCH   2  29
TORSDOF 11
ENDMDL
MODEL 5
REMARK VINA RESULT:      -7.3      2.715      6.583
REMARK  11 active torsions:
REMARK  status: ('A' for Active; 'I' for Inactive)
REMARK    1  A    between atoms: C_2  and  N_3 
REMARK    2  A    between atoms: N_3  and  C_5 
REMARK    3  A    between atoms: N_3  and  C_34 
REMARK    4  A    between atoms: C_5  and  C_6 
REMARK    5  A    between atoms: C_6  and  C_7 
REMARK    6  A    between atoms: C_7  and  N_8 
REMARK       I    between atoms: N_8  and  C_9 
REMARK    7  A    between atoms: C_9  and  C_10 
REMARK    8  A    between atoms: C_10  and  O_11 
REMARK    9  A    between atoms: N_12  and  C_13 
REMARK   10  A    between atoms: C_14  and  O_15 
REMARK   11  A    between atoms: C_18  and  O_19 
ROOT
HETATM    1  C   UNL     1      -7.825   1.406 -31.974  1.00  0.00     0.256 C 
HETATM    2  N   UNL     1      -8.666   2.404 -32.671  1.00  0.00    -0.251 N 
HETATM    3  C   UNL     1      -9.205   2.120 -33.919  1.00  0.00     0.330 C 
HETATM    4  O   UNL     1     -10.095   2.770 -34.468  1.00  0.00    -0.246 OA
HETATM    5  N   UNL     1      -8.659   1.098 -34.630  1.00  0.00    -0.308 N 
HETATM    6  C   UNL     1      -7.595   0.314 -34.226  1.00  0.00     0.048 A 
HETATM    7  C   UNL     1      -7.111   0.454 -32.932  1.00  0.00     0.035 A 
HETATM    8  C   UNL     1      -7.039  -0.605 -35.121  1.00  0.00     0.031 A 
HETATM    9  C   UNL     1      -5.963  -1.396 -34.723  1.00  0.00     0.021 A 
HETATM   10  C   UNL     1      -5.472  -1.280 -33.426  1.00  0.00     0.011 A 
HETATM   11 BR   UNL     1      -4.013  -2.347 -32.876  1.00  0.00    -0.051 Br
HETATM   12  C   UNL     1      -6.050  -0.382 -32.528  1.00  0.00     0.034 A 
HETATM   13  H   UNL     1      -9.080   0.957 -35.540  1.00  0.00     0.170 HD
ENDROOT
BRANCH   1  14
HETATM   14  C   UNL     1      -6.671   2.125 -31.114  1.00  0.00     0.279 C 
HETATM   15  N   UNL     1      -5.652   2.728 -31.854  1.00  0.00    -0.356 N 
HETATM   16  H   UNL     1      -5.908   2.990 -32.800  1.00  0.00     0.162 HD
HETATM   17  O   UNL     1      -6.585   2.029 -29.888  1.00  0.00    -0.268 OA
BRANCH  15  18
HETATM   18  C   UNL     1      -4.599   3.455 -31.179  1.00  0.00     0.124 C 
BRANCH  18  19
HETATM   19  C   UNL     1      -3.220   3.147 -31.762  1.00  0.00     0.047 C 
BRANCH  19  20
HETATM   20  C   UNL     1      -2.800   4.052 -32.921  1.00  0.00     0.236 C 
BRANCH  20  21
HETATM   21  N   UNL     1      -2.058   5.303 -32.469  1.00  0.00    -0.072 N 
HETATM   22  H   UNL     1      -2.752   5.915 -32.025  1.00  0.00     0.279 HD
BRANCH  21  23
HETATM   23  C   UNL     1      -1.518   6.113 -33.640  1.00  0.00     0.230 C 
HETATM   24  C   UNL     1      -1.418   5.246 -34.885  1.00  0.00     0.034 C 
ENDBRANCH  21  23
BRANCH  21  25
HETATM   25  C   UNL     1      -1.004   5.075 -31.398  1.00  0.00     0.230 C 
HETATM   26  C   UNL     1      -0.019   6.222 -31.286  1.00  0.00     0.034 C 
ENDBRANCH  21  25
ENDBRANCH  20  21
ENDBRANCH  19  20
ENDBRANCH  18  19
ENDBRANCH  15  18
ENDBRANCH   1  14
BRANCH   1  27
HETATM   27  O   UNL     1      -8.662   0.548 -31.224  1.00  0.00    -0.359 OA
HETATM   28  H   UNL     1      -9.550   0.684 -31.600  1.00  0.00     0.213 HD
ENDBRANCH   1  27
BRANCH   2  29
HETATM   29  C   UNL     1      -9.069   3.633 -32.018  1.00  0.00     0.076 A 
HETATM   30  C   UNL     1      -8.499   4.896 -32.264  1.00  0.00     0.098 A 
HETATM   31  C   UNL     1      -9.065   6.065 -31.726  1.00  0.00     0.075 A 
HETATM   32  C   UNL     1     -10.171   5.987 -30.884  1.00  0.00     0.070 A 
HETATM   33  C   UNL     1     -10.725   4.746 -30.599  1.00  0.00     0.039 A 
HETATM   34  C   UNL     1     -10.176   3.585 -31.150  1.00  0.00     0.035 A 
BRANCH  30  35
HETATM   35  O   UNL     1      -7.377   4.997 -33.049  1.00  0.00    -0.354 OA
HETATM   36  C   UNL     1      -6.614   6.171 -32.732  1.00  0.00     0.210 C 
ENDBRANCH  30  35
BRANCH  32  37
HETATM   37  O   UNL     1     -10.814   7.054 -30.323  1.00  0.00    -0.356 OA
HETATM   38  C   UNL     1     -10.023   7.859 -29.453  1.00  0.00     0.210 C 
ENDBRANCH  32  37
ENDBRANCH   2  29
TORSDOF 11
ENDMDL
MODEL 6
REMARK VINA RESULT:      -7.1      1.390      2.183
REMARK  11 active torsions:
REMARK  status: ('A' for Active; 'I' for Inactive)
REMARK    1  A    between atoms: C_2  and  N_3 
REMARK    2  A    between atoms: N_3  and  C_5 
REMARK    3  A    between atoms: N_3  and  C_34 
REMARK    4  A    between atoms: C_5  and  C_6 
REMARK    5  A    between atoms: C_6  and  C_7 
REMARK    6  A    between atoms: C_7  and  N_8 
REMARK       I    between atoms: N_8  and  C_9 
REMARK    7  A    between atoms: C_9  and  C_10 
REMARK    8  A    between atoms: C_10  and  O_11 
REMARK    9  A    between atoms: N_12  and  C_13 
REMARK   10  A    between atoms: C_14  and  O_15 
REMARK   11  A    between atoms: C_18  and  O_19 
ROOT
HETATM    1  C   UNL     1      -6.974   0.912 -34.185  1.00  0.00     0.256 C 
HETATM    2  N   UNL     1      -6.431   1.961 -33.294  1.00  0.00    -0.251 N 
HETATM    3  C   UNL     1      -5.095   1.940 -32.917  1.00  0.00     0.330 C 
HETATM    4  O   UNL     1      -4.496   2.875 -32.385  1.00  0.00    -0.246 OA
HETATM    5  N   UNL     1      -4.409   0.775 -33.068  1.00  0.00    -0.308 N 
HETATM    6  C   UNL     1      -4.930  -0.409 -33.556  1.00  0.00     0.048 A 
HETATM    7  C   UNL     1      -6.215  -0.409 -34.084  1.00  0.00     0.035 A 
HETATM    8  C   UNL     1      -4.153  -1.570 -33.517  1.00  0.00     0.031 A 
HETATM    9  C   UNL     1      -4.672  -2.768 -34.003  1.00  0.00     0.021 A 
HETATM   10  C   UNL     1      -5.952  -2.787 -34.548  1.00  0.00     0.011 A 
HETATM   11 BR   UNL     1      -6.667  -4.407 -35.209  1.00  0.00    -0.051 Br
HETATM   12  C   UNL     1      -6.712  -1.619 -34.611  1.00  0.00     0.034 A 
HETATM   13  H   UNL     1      -3.448   0.817 -32.752  1.00  0.00     0.170 HD
ENDROOT
BRANCH   1  14
HETATM   14  C   UNL     1      -8.505   0.579 -33.818  1.00  0.00     0.279 C 
HETATM   15  N   UNL     1      -9.467   1.226 -34.596  1.00  0.00    -0.356 N 
HETATM   16  H   UNL     1      -9.149   1.518 -35.514  1.00  0.00     0.162 HD
HETATM   17  O   UNL     1      -8.833  -0.072 -32.824  1.00  0.00    -0.268 OA
BRANCH  15  18
HETATM   18  C   UNL     1     -10.871   0.949 -34.389  1.00  0.00     0.124 C 
BRANCH  18  19
HETATM   19  C   UNL     1     -11.613   2.144 -33.789  1.00  0.00     0.047 C 
BRANCH  19  20
HETATM   20  C   UNL     1     -12.779   2.660 -34.633  1.00  0.00     0.236 C 
BRANCH  20  21
HETATM   21  N   UNL     1     -13.802   3.449 -33.825  1.00  0.00    -0.072 N 
HETATM   22  H   UNL     1     -14.653   3.503 -34.396  1.00  0.00     0.279 HD
BRANCH  21  23
HETATM   23  C   UNL     1     -13.384   4.899 -33.615  1.00  0.00     0.230 C 
HETATM   24  C   UNL     1     -12.972   5.529 -34.936  1.00  0.00     0.034 C 
ENDBRANCH  21  23
BRANCH  21  25
HETATM   25  C   UNL     1     -14.246   2.790 -32.529  1.00  0.00     0.230 C 
HETATM   26  C   UNL     1     -14.002   3.661 -31.312  1.00  0.00     0.034 C 
ENDBRANCH  21  25
ENDBRANCH  20  21
ENDBRANCH  19  20
ENDBRANCH  18  19
ENDBRANCH  15  18
ENDBRANCH   1  14
BRANCH   1  27
HETATM   27  O   UNL     1      -6.769   1.304 -35.528  1.00  0.00    -0.359 OA
HETATM   28  H   UNL     1      -6.022   1.928 -35.489  1.00  0.00     0.213 HD
ENDBRANCH   1  27
BRANCH   2  29
HETATM   29  C   UNL     1      -7.229   3.108 -32.911  1.00  0.00     0.076 A 
HETATM   30  C   UNL     1      -7.810   3.293 -31.643  1.00  0.00     0.098 A 
HETATM   31  C   UNL     1      -8.416   4.513 -31.294  1.00  0.00     0.075 A 
HETATM   32  C   UNL     1      -8.506   5.545 -32.225  1.00  0.00     0.070 A 
HETATM   33  C   UNL     1      -7.971   5.367 -33.494  1.00  0.00     0.039 A 
HETATM   34  C   UNL     1      -7.351   4.163 -33.836  1.00  0.00     0.035 A 
BRANCH  30  35
HETATM   35  O   UNL     1      -7.780   2.274 -30.724  1.00  0.00    -0.354 OA
HETATM   36  C   UNL     1      -6.766   2.489 -29.730  1.00  0.00     0.210 C 
ENDBRANCH  30  35
BRANCH  32  37
HETATM   37  O   UNL     1      -9.053   6.775 -31.990  1.00  0.00    -0.356 OA
HETATM   38  C   UNL     1      -8.164   7.879 -32.131  1.00  0.00     0.210 C 
ENDBRANCH  32  37
ENDBRANCH   2  29
TORSDOF 11
ENDMDL
MODEL 7
REMARK VINA RESULT:      -7.0      3.876      8.757
REMARK  11 active torsions:
REMARK  status: ('A' for Active; 'I' for Inactive)
REMARK    1  A    between atoms: C_2  and  N_3 
REMARK    2  A    between atoms: N_3  and  C_5 
REMARK    3  A    between atoms: N_3  and  C_34 
REMARK    4  A    between atoms: C_5  and  C_6 
REMARK    5  A    between atoms: C_6  and  C_7 
REMARK    6  A    between atoms: C_7  and  N_8 
REMARK       I    between atoms: N_8  and  C_9 
REMARK    7  A    between atoms: C_9  and  C_10 
REMARK    8  A    between atoms: C_10  and  O_11 
REMARK    9  A    between atoms: N_12  and  C_13 
REMARK   10  A    between atoms: C_14  and  O_15 
REMARK   11  A    between atoms: C_18  and  O_19 
ROOT
HETATM    1  C   UNL     1      -6.809   3.093 -32.126  1.00  0.00     0.256 C 
HETATM    2  N   UNL     1      -7.310   1.704 -32.023  1.00  0.00    -0.251 N 
HETATM    3  C   UNL     1      -8.638   1.459 -31.698  1.00  0.00     0.330 C 
HETATM    4  O   UNL     1      -9.204   0.372 -31.817  1.00  0.00    -0.246 OA
HETATM    5  N   UNL     1      -9.351   2.467 -31.130  1.00  0.00    -0.308 N 
HETATM    6  C   UNL     1      -8.866   3.726 -30.828  1.00  0.00     0.048 A 
HETATM    7  C   UNL     1      -7.594   4.077 -31.260  1.00  0.00     0.035 A 
HETATM    8  C   UNL     1      -9.666   4.617 -30.107  1.00  0.00     0.031 A 
HETATM    9  C   UNL     1      -9.184   5.886 -29.796  1.00  0.00     0.021 A 
HETATM   10  C   UNL     1      -7.917   6.262 -30.231  1.00  0.00     0.011 A 
HETATM   11 BR   UNL     1      -7.251   7.980 -29.813  1.00  0.00    -0.051 Br
HETATM   12  C   UNL     1      -7.133   5.379 -30.975  1.00  0.00     0.034 A 
HETATM   13  H   UNL     1     -10.304   2.218 -30.895  1.00  0.00     0.170 HD
ENDROOT
BRANCH   1  14
HETATM   14  C   UNL     1      -5.278   3.191 -31.641  1.00  0.00     0.279 C 
HETATM   15  N   UNL     1      -4.327   3.289 -32.660  1.00  0.00    -0.356 N 
HETATM   16  H   UNL     1      -4.676   3.664 -33.535  1.00  0.00     0.162 HD
HETATM   17  O   UNL     1      -4.931   3.033 -30.469  1.00  0.00    -0.268 OA
BRANCH  15  18
HETATM   18  C   UNL     1      -2.927   3.445 -32.330  1.00  0.00     0.124 C 
BRANCH  18  19
HETATM   19  C   UNL     1      -2.523   4.914 -32.211  1.00  0.00     0.047 C 
BRANCH  19  20
HETATM   20  C   UNL     1      -1.198   5.155 -31.486  1.00  0.00     0.236 C 
BRANCH  20  21
HETATM   21  N   UNL     1      -1.371   5.800 -30.117  1.00  0.00    -0.072 N 
HETATM   22  H   UNL     1      -1.971   5.174 -29.568  1.00  0.00     0.279 HD
BRANCH  21  23
HETATM   23  C   UNL     1      -2.140   7.113 -30.186  1.00  0.00     0.230 C 
HETATM   24  C   UNL     1      -3.359   7.063 -29.279  1.00  0.00     0.034 C 
ENDBRANCH  21  23
BRANCH  21  25
HETATM   25  C   UNL     1      -0.095   5.929 -29.301  1.00  0.00     0.230 C 
HETATM   26  C   UNL     1       0.445   7.346 -29.270  1.00  0.00     0.034 C 
ENDBRANCH  21  25
ENDBRANCH  20  21
ENDBRANCH  19  20
ENDBRANCH  18  19
ENDBRANCH  15  18
ENDBRANCH   1  14
BRANCH   1  27
HETATM   27  O   UNL     1      -7.035   3.562 -33.441  1.00  0.00    -0.359 OA
HETATM   28  H   UNL     1      -6.201   3.998 -33.691  1.00  0.00     0.213 HD
ENDBRANCH   1  27
BRANCH   2  29
HETATM   29  C   UNL     1      -6.480   0.577 -32.394  1.00  0.00     0.076 A 
HETATM   30  C   UNL     1      -6.172   0.210 -33.717  1.00  0.00     0.098 A 
HETATM   31  C   UNL     1      -5.215  -0.784 -33.990  1.00  0.00     0.075 A 
HETATM   32  C   UNL     1      -4.596  -1.470 -32.948  1.00  0.00     0.070 A 
HETATM   33  C   UNL     1      -4.916  -1.147 -31.635  1.00  0.00     0.039 A 
HETATM   34  C   UNL     1      -5.850  -0.146 -31.362  1.00  0.00     0.035 A 
BRANCH  30  35
HETATM   35  O   UNL     1      -6.805   0.834 -34.764  1.00  0.00    -0.354 OA
HETATM   36  C   UNL     1      -7.956   0.095 -35.202  1.00  0.00     0.210 C 
ENDBRANCH  30  35
BRANCH  32  37
HETATM   37  O   UNL     1      -3.642  -2.436 -33.094  1.00  0.00    -0.356 OA
HETATM   38  C   UNL     1      -3.092  -2.944 -31.882  1.00  0.00     0.210 C 
ENDBRANCH  32  37
ENDBRANCH   2  29
TORSDOF 11
ENDMDL
MODEL 8
REMARK VINA RESULT:      -6.9      2.994      6.497
REMARK  11 active torsions:
REMARK  status: ('A' for Active; 'I' for Inactive)
REMARK    1  A    between atoms: C_2  and  N_3 
REMARK    2  A    between atoms: N_3  and  C_5 
REMARK    3  A    between atoms: N_3  and  C_34 
REMARK    4  A    between atoms: C_5  and  C_6 
REMARK    5  A    between atoms: C_6  and  C_7 
REMARK    6  A    between atoms: C_7  and  N_8 
REMARK       I    between atoms: N_8  and  C_9 
REMARK    7  A    between atoms: C_9  and  C_10 
REMARK    8  A    between atoms: C_10  and  O_11 
REMARK    9  A    between atoms: N_12  and  C_13 
REMARK   10  A    between atoms: C_14  and  O_15 
REMARK   11  A    between atoms: C_18  and  O_19 
ROOT
HETATM    1  C   UNL     1      -6.820   4.023 -31.837  1.00  0.00     0.256 C 
HETATM    2  N   UNL     1      -6.301   5.391 -32.058  1.00  0.00    -0.251 N 
HETATM    3  C   UNL     1      -7.176   6.456 -32.224  1.00  0.00     0.330 C 
HETATM    4  O   UNL     1      -6.859   7.645 -32.176  1.00  0.00    -0.246 OA
HETATM    5  N   UNL     1      -8.467   6.175 -32.544  1.00  0.00    -0.308 N 
HETATM    6  C   UNL     1      -8.993   4.911 -32.737  1.00  0.00     0.048 A 
HETATM    7  C   UNL     1      -8.205   3.805 -32.442  1.00  0.00     0.035 A 
HETATM    8  C   UNL     1     -10.300   4.774 -33.210  1.00  0.00     0.031 A 
HETATM    9  C   UNL     1     -10.836   3.503 -33.409  1.00  0.00     0.021 A 
HETATM   10  C   UNL     1     -10.068   2.383 -33.108  1.00  0.00     0.011 A 
HETATM   11 BR   UNL     1     -10.783   0.654 -33.376  1.00  0.00    -0.051 Br
HETATM   12  C   UNL     1      -8.773   2.525 -32.608  1.00  0.00     0.034 A 
HETATM   13  H   UNL     1      -9.048   6.994 -32.676  1.00  0.00     0.170 HD
ENDROOT
BRANCH   1  14
HETATM   14  C   UNL     1      -5.857   2.925 -32.513  1.00  0.00     0.279 C 
HETATM   15  N   UNL     1      -5.114   2.145 -31.624  1.00  0.00    -0.356 N 
HETATM   16  H   UNL     1      -5.507   2.066 -30.692  1.00  0.00     0.162 HD
HETATM   17  O   UNL     1      -5.653   2.864 -33.727  1.00  0.00    -0.268 OA
BRANCH  15  18
HETATM   18  C   UNL     1      -4.264   1.087 -32.126  1.00  0.00     0.124 C 
BRANCH  18  19
HETATM   19  C   UNL     1      -4.964  -0.272 -32.107  1.00  0.00     0.047 C 
BRANCH  19  20
HETATM   20  C   UNL     1      -4.821  -1.081 -33.397  1.00  0.00     0.236 C 
BRANCH  20  21
HETATM   21  N   UNL     1      -6.116  -1.760 -33.827  1.00  0.00    -0.072 N 
HETATM   22  H   UNL     1      -6.384  -2.396 -33.067  1.00  0.00     0.279 HD
BRANCH  21  23
HETATM   23  C   UNL     1      -5.923  -2.663 -35.038  1.00  0.00     0.230 C 
HETATM   24  C   UNL     1      -6.642  -3.987 -34.833  1.00  0.00     0.034 C 
ENDBRANCH  21  23
BRANCH  21  25
HETATM   25  C   UNL     1      -7.306  -0.830 -33.992  1.00  0.00     0.230 C 
HETATM   26  C   UNL     1      -7.188   0.069 -35.208  1.00  0.00     0.034 C 
ENDBRANCH  21  25
ENDBRANCH  20  21
ENDBRANCH  19  20
ENDBRANCH  18  19
ENDBRANCH  15  18
ENDBRANCH   1  14
BRANCH   1  27
HETATM   27  O   UNL     1      -7.035   3.836 -30.452  1.00  0.00    -0.359 OA
HETATM   28  H   UNL     1      -6.160   3.594 -30.099  1.00  0.00     0.213 HD
ENDBRANCH   1  27
BRANCH   2  29
HETATM   29  C   UNL     1      -4.884   5.681 -31.963  1.00  0.00     0.076 A 
HETATM   30  C   UNL     1      -4.047   5.953 -33.060  1.00  0.00     0.098 A 
HETATM   31  C   UNL     1      -2.728   6.402 -32.871  1.00  0.00     0.075 A 
HETATM   32  C   UNL     1      -2.204   6.527 -31.587  1.00  0.00     0.070 A 
HETATM   33  C   UNL     1      -3.005   6.227 -30.493  1.00  0.00     0.039 A 
HETATM   34  C   UNL     1      -4.321   5.801 -30.678  1.00  0.00     0.035 A 
BRANCH  30  35
HETATM   35  O   UNL     1      -4.521   5.789 -34.338  1.00  0.00    -0.354 OA
HETATM   36  C   UNL     1      -3.520   5.234 -35.206  1.00  0.00     0.210 C 
ENDBRANCH  30  35
BRANCH  32  37
HETATM   37  O   UNL     1      -0.948   6.972 -31.286  1.00  0.00    -0.356 OA
HETATM   38  C   UNL     1      -0.006   5.961 -30.938  1.00  0.00     0.210 C 
ENDBRANCH  32  37
ENDBRANCH   2  29
TORSDOF 11
ENDMDL
MODEL 9
REMARK VINA RESULT:      -6.9      3.126      6.797
REMARK  11 active torsions:
REMARK  status: ('A' for Active; 'I' for Inactive)
REMARK    1  A    between atoms: C_2  and  N_3 
REMARK    2  A    between atoms: N_3  and  C_5 
REMARK    3  A    between atoms: N_3  and  C_34 
REMARK    4  A    between atoms: C_5  and  C_6 
REMARK    5  A    between atoms: C_6  and  C_7 
REMARK    6  A    between atoms: C_7  and  N_8 
REMARK       I    between atoms: N_8  and  C_9 
REMARK    7  A    between atoms: C_9  and  C_10 
REMARK    8  A    between atoms: C_10  and  O_11 
REMARK    9  A    between atoms: N_12  and  C_13 
REMARK   10  A    between atoms: C_14  and  O_15 
REMARK   11  A    between atoms: C_18  and  O_19 
ROOT
HETATM    1  C   UNL     1      -6.247   3.372 -31.806  1.00  0.00     0.256 C 
HETATM    2  N   UNL     1      -5.530   4.497 -32.446  1.00  0.00    -0.251 N 
HETATM    3  C   UNL     1      -6.217   5.408 -33.238  1.00  0.00     0.330 C 
HETATM    4  O   UNL     1      -5.772   6.492 -33.614  1.00  0.00    -0.246 OA
HETATM    5  N   UNL     1      -7.442   5.048 -33.704  1.00  0.00    -0.308 N 
HETATM    6  C   UNL     1      -8.071   3.839 -33.473  1.00  0.00     0.048 A 
HETATM    7  C   UNL     1      -7.500   2.949 -32.571  1.00  0.00     0.035 A 
HETATM    8  C   UNL     1      -9.264   3.545 -34.137  1.00  0.00     0.031 A 
HETATM    9  C   UNL     1      -9.901   2.326 -33.912  1.00  0.00     0.021 A 
HETATM   10  C   UNL     1      -9.353   1.427 -33.003  1.00  0.00     0.011 A 
HETATM   11 BR   UNL     1     -10.208  -0.230 -32.690  1.00  0.00    -0.051 Br
HETATM   12  C   UNL     1      -8.177   1.738 -32.320  1.00  0.00     0.034 A 
HETATM   13  H   UNL     1      -7.880   5.745 -34.295  1.00  0.00     0.170 HD
ENDROOT
BRANCH   1  14
HETATM   14  C   UNL     1      -5.312   2.065 -31.721  1.00  0.00     0.279 C 
HETATM   15  N   UNL     1      -5.151   1.359 -32.915  1.00  0.00    -0.356 N 
HETATM   16  H   UNL     1      -5.298   1.904 -33.758  1.00  0.00     0.162 HD
HETATM   17  O   UNL     1      -4.885   1.610 -30.658  1.00  0.00    -0.268 OA
BRANCH  15  18
HETATM   18  C   UNL     1      -4.280   0.205 -32.961  1.00  0.00     0.124 C 
BRANCH  18  19
HETATM   19  C   UNL     1      -5.055  -1.108 -32.843  1.00  0.00     0.047 C 
BRANCH  19  20
HETATM   20  C   UNL     1      -5.513  -1.701 -34.176  1.00  0.00     0.236 C 
BRANCH  20  21
HETATM   21  N   UNL     1      -4.738  -2.951 -34.576  1.00  0.00    -0.072 N 
HETATM   22  H   UNL     1      -4.043  -2.659 -35.271  1.00  0.00     0.279 HD
BRANCH  21  23
HETATM   23  C   UNL     1      -5.610  -3.968 -35.301  1.00  0.00     0.230 C 
HETATM   24  C   UNL     1      -6.963  -4.091 -34.617  1.00  0.00     0.034 C 
ENDBRANCH  21  23
BRANCH  21  25
HETATM   25  C   UNL     1      -3.926  -3.589 -33.460  1.00  0.00     0.230 C 
HETATM   26  C   UNL     1      -3.371  -4.948 -33.838  1.00  0.00     0.034 C 
ENDBRANCH  21  25
ENDBRANCH  20  21
ENDBRANCH  19  20
ENDBRANCH  18  19
ENDBRANCH  15  18
ENDBRANCH   1  14
BRANCH   1  27
HETATM   27  O   UNL     1      -6.757   3.806 -30.560  1.00  0.00    -0.359 OA
HETATM   28  H   UNL     1      -5.975   4.125 -30.075  1.00  0.00     0.213 HD
ENDBRANCH   1  27
BRANCH   2  29
HETATM   29  C   UNL     1      -4.137   4.763 -32.152  1.00  0.00     0.076 A 
HETATM   30  C   UNL     1      -3.661   5.294 -30.939  1.00  0.00     0.098 A 
HETATM   31  C   UNL     1      -2.283   5.353 -30.665  1.00  0.00     0.075 A 
HETATM   32  C   UNL     1      -1.357   4.941 -31.620  1.00  0.00     0.070 A 
HETATM   33  C   UNL     1      -1.808   4.450 -32.839  1.00  0.00     0.039 A 
HETATM   34  C   UNL     1      -3.177   4.371 -33.105  1.00  0.00     0.035 A 
BRANCH  30  35
HETATM   35  O   UNL     1      -4.550   5.754 -30.000  1.00  0.00    -0.354 OA
HETATM   36  C   UNL     1      -4.150   7.030 -29.475  1.00  0.00     0.210 C 
ENDBRANCH  30  35
BRANCH  32  37
HETATM   37  O   UNL     1      -0.001   4.935 -31.456  1.00  0.00    -0.356 OA
HETATM   38  C   UNL     1       0.457   5.153 -30.125  1.00  0.00     0.210 C 
ENDBRANCH  32  37
ENDBRANCH   2  29
TORSDOF 11
ENDMDL
MODEL 10
REMARK VINA RESULT:      -6.8      3.318      7.095
REMARK  11 active torsions:
REMARK  status: ('A' for Active; 'I' for Inactive)
REMARK    1  A    between atoms: C_2  and  N_3 
REMARK    2  A    between atoms: N_3  and  C_5 
REMARK    3  A    between atoms: N_3  and  C_34 
REMARK    4  A    between atoms: C_5  and  C_6 
REMARK    5  A    between atoms: C_6  and  C_7 
REMARK    6  A    between atoms: C_7  and  N_8 
REMARK       I    between atoms: N_8  and  C_9 
REMARK    7  A    between atoms: C_9  and  C_10 
REMARK    8  A    between atoms: C_10  and  O_11 
REMARK    9  A    between atoms: N_12  and  C_13 
REMARK   10  A    between atoms: C_14  and  O_15 
REMARK   11  A    between atoms: C_18  and  O_19 
ROOT
HETATM    1  C   UNL     1      -4.838   4.123 -32.380  1.00  0.00     0.256 C 
HETATM    2  N   UNL     1      -6.231   4.621 -32.393  1.00  0.00    -0.251 N 
HETATM    3  C   UNL     1      -6.490   5.980 -32.506  1.00  0.00     0.330 C 
HETATM    4  O   UNL     1      -7.591   6.470 -32.761  1.00  0.00    -0.246 OA
HETATM    5  N   UNL     1      -5.477   6.845 -32.237  1.00  0.00    -0.308 N 
HETATM    6  C   UNL     1      -4.200   6.494 -31.842  1.00  0.00     0.048 A 
HETATM    7  C   UNL     1      -3.840   5.152 -31.853  1.00  0.00     0.035 A 
HETATM    8  C   UNL     1      -3.301   7.490 -31.453  1.00  0.00     0.031 A 
HETATM    9  C   UNL     1      -2.013   7.143 -31.050  1.00  0.00     0.021 A 
HETATM   10  C   UNL     1      -1.628   5.807 -31.066  1.00  0.00     0.011 A 
HETATM   11 BR   UNL     1       0.115   5.324 -30.520  1.00  0.00    -0.051 Br
HETATM   12  C   UNL     1      -2.521   4.818 -31.483  1.00  0.00     0.034 A 
HETATM   13  H   UNL     1      -5.736   7.822 -32.313  1.00  0.00     0.170 HD
ENDROOT
BRANCH   1  14
HETATM   14  C   UNL     1      -4.695   2.832 -31.431  1.00  0.00     0.279 C 
HETATM   15  N   UNL     1      -4.494   1.617 -32.089  1.00  0.00    -0.356 N 
HETATM   16  H   UNL     1      -4.086   1.694 -33.015  1.00  0.00     0.162 HD
HETATM   17  O   UNL     1      -4.902   2.863 -30.216  1.00  0.00    -0.268 OA
BRANCH  15  18
HETATM   18  C   UNL     1      -4.291   0.405 -31.326  1.00  0.00     0.124 C 
BRANCH  18  19
HETATM   19  C   UNL     1      -3.503  -0.645 -32.109  1.00  0.00     0.047 C 
BRANCH  19  20
HETATM   20  C   UNL     1      -4.040  -0.931 -33.512  1.00  0.00     0.236 C 
BRANCH  20  21
HETATM   21  N   UNL     1      -5.157  -1.967 -33.529  1.00  0.00    -0.072 N 
HETATM   22  H   UNL     1      -5.190  -2.383 -32.591  1.00  0.00     0.279 HD
BRANCH  21  23
HETATM   23  C   UNL     1      -4.854  -3.133 -34.460  1.00  0.00     0.230 C 
HETATM   24  C   UNL     1      -3.824  -4.059 -33.834  1.00  0.00     0.034 C 
ENDBRANCH  21  23
BRANCH  21  25
HETATM   25  C   UNL     1      -6.552  -1.405 -33.752  1.00  0.00     0.230 C 
HETATM   26  C   UNL     1      -6.604  -0.382 -34.869  1.00  0.00     0.034 C 
ENDBRANCH  21  25
ENDBRANCH  20  21
ENDBRANCH  19  20
ENDBRANCH  18  19
ENDBRANCH  15  18
ENDBRANCH   1  14
BRANCH   1  27
HETATM   27  O   UNL     1      -4.417   3.914 -33.714  1.00  0.00    -0.359 OA
HETATM   28  H   UNL     1      -5.244   3.864 -34.226  1.00  0.00     0.213 HD
ENDBRANCH   1  27
BRANCH   2  29
HETATM   29  C   UNL     1      -7.354   3.706 -32.433  1.00  0.00     0.076 A 
HETATM   30  C   UNL     1      -8.236   3.472 -31.362  1.00  0.00     0.098 A 
HETATM   31  C   UNL     1      -9.404   2.710 -31.538  1.00  0.00     0.075 A 
HETATM   32  C   UNL     1      -9.680   2.118 -32.769  1.00  0.00     0.070 A 
HETATM   33  C   UNL     1      -8.801   2.308 -33.828  1.00  0.00     0.039 A 
HETATM   34  C   UNL     1      -7.650   3.081 -33.660  1.00  0.00     0.035 A 
BRANCH  30  35
HETATM   35  O   UNL     1      -7.963   4.000 -30.125  1.00  0.00    -0.354 OA
HETATM   36  C   UNL     1      -8.851   5.083 -29.805  1.00  0.00     0.210 C 
ENDBRANCH  30  35
BRANCH  32  37
HETATM   37  O   UNL     1     -10.790   1.377 -33.059  1.00  0.00    -0.356 OA
HETATM   38  C   UNL     1     -11.350   1.591 -34.351  1.00  0.00     0.210 C 
ENDBRANCH  32  37
ENDBRANCH   2  29
TORSDOF 11
ENDMDL
