MODEL 1
REMARK VINA RESULT:      -8.5      0.000      0.000
REMARK  5 active torsions:
REMARK  status: ('A' for Active; 'I' for Inactive)
REMARK    1  A    between atoms: O_2  and  C_3 
REMARK    2  A    between atoms: C_6  and  N_7 
REMARK       I    between atoms: N_7  and  C_8 
REMARK    3  A    between atoms: C_8  and  C_9 
REMARK    4  A    between atoms: C_9  and  N_10 
REMARK    5  A    between atoms: N_10  and  C_11 
ROOT
HETATM    1  C   UNL     1      -5.871   2.184 -32.468  1.00  0.00     0.195 C 
ENDROOT
BRANCH   1   2
HETATM    2  C   UNL     1      -6.451   1.802 -31.108  1.00  0.00     0.235 C 
HETATM    3  N   UNL     1      -7.759   1.453 -30.934  1.00  0.00    -0.326 N 
HETATM    4  H   UNL     1      -7.912   1.117 -29.990  1.00  0.00     0.169 HD
HETATM    5  O   UNL     1      -5.721   1.785 -30.108  1.00  0.00    -0.272 OA
BRANCH   3   6
HETATM    6  C   UNL     1      -8.894   1.477 -31.764  1.00  0.00     0.034 A 
HETATM    7  C   UNL     1      -9.585   2.620 -32.160  1.00  0.00     0.032 A 
HETATM    8  C   UNL     1     -10.703   2.532 -33.005  1.00  0.00     0.039 A 
HETATM    9  C   UNL     1     -11.155   1.293 -33.452  1.00  0.00     0.068 A 
HETATM   10  C   UNL     1     -10.497   0.143 -33.023  1.00  0.00     0.039 A 
HETATM   11  C   UNL     1      -9.381   0.233 -32.185  1.00  0.00     0.032 A 
BRANCH   9  12
HETATM   12  O   UNL     1     -12.221   1.076 -34.279  1.00  0.00    -0.356 OA
HETATM   13  C   UNL     1     -13.245   0.219 -33.788  1.00  0.00     0.210 C 
ENDBRANCH   9  12
ENDBRANCH   3   6
ENDBRANCH   1   2
BRANCH   1  14
HETATM   14  N   UNL     1      -4.927   1.153 -32.908  1.00  0.00    -0.284 NA
HETATM   15  H   UNL     1      -4.164   1.033 -32.241  1.00  0.00     0.128 HD
BRANCH  14  16
HETATM   16  C   UNL     1      -5.386  -0.070 -33.402  1.00  0.00     0.009 A 
HETATM   17  C   UNL     1      -4.555  -1.194 -33.259  1.00  0.00     0.035 A 
HETATM   18  C   UNL     1      -4.887  -2.446 -33.808  1.00  0.00    -0.024 A 
HETATM   19  C   UNL     1      -6.079  -2.577 -34.549  1.00  0.00    -0.026 A 
HETATM   20  C   UNL     1      -4.055  -3.566 -33.642  1.00  0.00     0.012 A 
HETATM   21  C   UNL     1      -6.897  -1.452 -34.721  1.00  0.00     0.014 A 
HETATM   22  C   UNL     1      -6.412  -3.823 -35.105  1.00  0.00     0.012 A 
HETATM   23  C   UNL     1      -6.544  -0.215 -34.166  1.00  0.00     0.024 A 
HETATM   24  C   UNL     1      -5.575  -4.927 -34.930  1.00  0.00     0.001 A 
HETATM   25  C   UNL     1      -4.398  -4.799 -34.200  1.00  0.00     0.001 A 
ENDBRANCH  14  16
ENDBRANCH   1  14
TORSDOF 5
ENDMDL
MODEL 2
REMARK VINA RESULT:      -8.4      0.833      1.580
REMARK  5 active torsions:
REMARK  status: ('A' for Active; 'I' for Inactive)
REMARK    1  A    between atoms: O_2  and  C_3 
REMARK    2  A    between atoms: C_6  and  N_7 
REMARK       I    between atoms: N_7  and  C_8 
REMARK    3  A    between atoms: C_8  and  C_9 
REMARK    4  A    between atoms: C_9  and  N_10 
REMARK    5  A    between atoms: N_10  and  C_11 
ROOT
HETATM    1  C   UNL     1      -5.897   1.877 -31.873  1.00  0.00     0.195 C 
ENDROOT
BRANCH   1   2
HETATM    2  C   UNL     1      -6.618   0.974 -30.875  1.00  0.00     0.235 C 
HETATM    3  N   UNL     1      -7.958   0.722 -30.940  1.00  0.00    -0.326 N 
HETATM    4  H   UNL     1      -8.214   0.006 -30.269  1.00  0.00     0.169 HD
HETATM    5  O   UNL     1      -5.979   0.423 -29.968  1.00  0.00    -0.272 OA
BRANCH   3   6
HETATM    6  C   UNL     1      -9.012   1.242 -31.711  1.00  0.00     0.034 A 
HETATM    7  C   UNL     1      -9.500   2.545 -31.642  1.00  0.00     0.032 A 
HETATM    8  C   UNL     1     -10.553   2.967 -32.470  1.00  0.00     0.039 A 
HETATM    9  C   UNL     1     -11.144   2.082 -33.369  1.00  0.00     0.068 A 
HETATM   10  C   UNL     1     -10.692   0.765 -33.410  1.00  0.00     0.039 A 
HETATM   11  C   UNL     1      -9.640   0.348 -32.587  1.00  0.00     0.032 A 
BRANCH   9  12
HETATM   12  O   UNL     1     -12.165   2.370 -34.229  1.00  0.00    -0.356 OA
HETATM   13  C   UNL     1     -12.788   1.266 -34.873  1.00  0.00     0.210 C 
ENDBRANCH   9  12
ENDBRANCH   3   6
ENDBRANCH   1   2
BRANCH   1  14
HETATM   14  N   UNL     1      -6.003   1.307 -33.219  1.00  0.00    -0.284 NA
HETATM   15  H   UNL     1      -5.746   1.987 -33.935  1.00  0.00     0.128 HD
BRANCH  14  16
HETATM   16  C   UNL     1      -5.494   0.037 -33.498  1.00  0.00     0.009 A 
HETATM   17  C   UNL     1      -6.371  -0.926 -34.023  1.00  0.00     0.035 A 
HETATM   18  C   UNL     1      -5.976  -2.257 -34.247  1.00  0.00    -0.024 A 
HETATM   19  C   UNL     1      -4.665  -2.651 -33.908  1.00  0.00    -0.026 A 
HETATM   20  C   UNL     1      -6.859  -3.205 -34.790  1.00  0.00     0.012 A 
HETATM   21  C   UNL     1      -3.795  -1.703 -33.354  1.00  0.00     0.014 A 
HETATM   22  C   UNL     1      -4.268  -3.981 -34.123  1.00  0.00     0.012 A 
HETATM   23  C   UNL     1      -4.212  -0.383 -33.140  1.00  0.00     0.024 A 
HETATM   24  C   UNL     1      -5.157  -4.911 -34.665  1.00  0.00     0.001 A 
HETATM   25  C   UNL     1      -6.451  -4.524 -34.998  1.00  0.00     0.001 A 
ENDBRANCH  14  16
ENDBRANCH   1  14
TORSDOF 5
ENDMDL
MODEL 3
REMARK VINA RESULT:      -8.1      1.773      4.354
REMARK  5 active torsions:
REMARK  status: ('A' for Active; 'I' for Inactive)
REMARK    1  A    between atoms: O_2  and  C_3 
REMARK    2  A    between atoms: C_6  and  N_7 
REMARK       I    between atoms: N_7  and  C_8 
REMARK    3  A    between atoms: C_8  and  C_9 
REMARK    4  A    between atoms: C_9  and  N_10 
REMARK    5  A    between atoms: N_10  and  C_11 
ROOT
HETATM    1  C   UNL     1      -9.351   2.498 -34.177  1.00  0.00     0.195 C 
ENDROOT
BRANCH   1   2
HETATM    2  C   UNL     1     -10.225   2.191 -32.963  1.00  0.00     0.235 C 
HETATM    3  N   UNL     1      -9.707   1.884 -31.738  1.00  0.00    -0.326 N 
HETATM    4  H   UNL     1     -10.445   1.839 -31.045  1.00  0.00     0.169 HD
HETATM    5  O   UNL     1     -11.458   2.232 -33.065  1.00  0.00    -0.272 OA
BRANCH   3   6
HETATM    6  C   UNL     1      -8.409   1.617 -31.266  1.00  0.00     0.034 A 
HETATM    7  C   UNL     1      -7.474   2.575 -30.882  1.00  0.00     0.032 A 
HETATM    8  C   UNL     1      -6.205   2.197 -30.412  1.00  0.00     0.039 A 
HETATM    9  C   UNL     1      -5.851   0.853 -30.336  1.00  0.00     0.068 A 
HETATM   10  C   UNL     1      -6.765  -0.108 -30.763  1.00  0.00     0.039 A 
HETATM   11  C   UNL     1      -8.029   0.270 -31.226  1.00  0.00     0.032 A 
BRANCH   9  12
HETATM   12  O   UNL     1      -4.657   0.359 -29.892  1.00  0.00    -0.356 OA
HETATM   13  C   UNL     1      -3.656   0.128 -30.876  1.00  0.00     0.210 C 
ENDBRANCH   9  12
ENDBRANCH   3   6
ENDBRANCH   1   2
BRANCH   1  14
HETATM   14  N   UNL     1      -9.078   1.262 -34.914  1.00  0.00    -0.284 NA
HETATM   15  H   UNL     1      -9.333   1.347 -35.898  1.00  0.00     0.128 HD
BRANCH  14  16
HETATM   16  C   UNL     1      -7.870   0.582 -34.744  1.00  0.00     0.009 A 
HETATM   17  C   UNL     1      -7.874  -0.816 -34.876  1.00  0.00     0.035 A 
HETATM   18  C   UNL     1      -6.729  -1.596 -34.630  1.00  0.00    -0.024 A 
HETATM   19  C   UNL     1      -5.543  -0.961 -34.210  1.00  0.00    -0.026 A 
HETATM   20  C   UNL     1      -6.743  -2.992 -34.783  1.00  0.00     0.012 A 
HETATM   21  C   UNL     1      -5.541   0.431 -34.046  1.00  0.00     0.014 A 
HETATM   22  C   UNL     1      -4.398  -1.735 -33.956  1.00  0.00     0.012 A 
HETATM   23  C   UNL     1      -6.694   1.186 -34.297  1.00  0.00     0.024 A 
HETATM   24  C   UNL     1      -4.428  -3.122 -34.114  1.00  0.00     0.001 A 
HETATM   25  C   UNL     1      -5.599  -3.750 -34.527  1.00  0.00     0.001 A 
ENDBRANCH  14  16
ENDBRANCH   1  14
TORSDOF 5
ENDMDL
MODEL 4
REMARK VINA RESULT:      -7.9      5.457      8.418
REMARK  5 active torsions:
REMARK  status: ('A' for Active; 'I' for Inactive)
REMARK    1  A    between atoms: O_2  and  C_3 
REMARK    2  A    between atoms: C_6  and  N_7 
REMARK       I    between atoms: N_7  and  C_8 
REMARK    3  A    between atoms: C_8  and  C_9 
REMARK    4  A    between atoms: C_9  and  N_10 
REMARK    5  A    between atoms: N_10  and  C_11 
ROOT
HETATM    1  C   UNL     1      -3.003   3.948 -31.570  1.00  0.00     0.195 C 
ENDROOT
BRANCH   1   2
HETATM    2  C   UNL     1      -1.989   4.466 -32.587  1.00  0.00     0.235 C 
HETATM    3  N   UNL     1      -0.887   5.189 -32.230  1.00  0.00    -0.326 N 
HETATM    4  H   UNL     1      -0.282   5.327 -33.032  1.00  0.00     0.169 HD
HETATM    5  O   UNL     1      -2.141   4.219 -33.791  1.00  0.00    -0.272 OA
BRANCH   3   6
HETATM    6  C   UNL     1      -0.448   5.768 -31.026  1.00  0.00     0.034 A 
HETATM    7  C   UNL     1      -0.667   7.086 -30.633  1.00  0.00     0.032 A 
HETATM    8  C   UNL     1      -0.193   7.560 -29.399  1.00  0.00     0.039 A 
HETATM    9  C   UNL     1       0.522   6.722 -28.547  1.00  0.00     0.068 A 
HETATM   10  C   UNL     1       0.784   5.415 -28.955  1.00  0.00     0.039 A 
HETATM   11  C   UNL     1       0.307   4.944 -30.182  1.00  0.00     0.032 A 
BRANCH   9  12
HETATM   12  O   UNL     1       1.027   7.059 -27.324  1.00  0.00    -0.356 OA
HETATM   13  C   UNL     1       1.637   8.339 -27.215  1.00  0.00     0.210 C 
ENDBRANCH   9  12
ENDBRANCH   3   6
ENDBRANCH   1   2
BRANCH   1  14
HETATM   14  N   UNL     1      -2.962   2.484 -31.533  1.00  0.00    -0.284 NA
HETATM   15  H   UNL     1      -2.775   2.138 -30.591  1.00  0.00     0.128 HD
BRANCH  14  16
HETATM   16  C   UNL     1      -3.937   1.726 -32.184  1.00  0.00     0.009 A 
HETATM   17  C   UNL     1      -3.633   0.393 -32.504  1.00  0.00     0.035 A 
HETATM   18  C   UNL     1      -4.512  -0.419 -33.243  1.00  0.00    -0.024 A 
HETATM   19  C   UNL     1      -5.729   0.125 -33.703  1.00  0.00    -0.026 A 
HETATM   20  C   UNL     1      -4.203  -1.757 -33.541  1.00  0.00     0.012 A 
HETATM   21  C   UNL     1      -6.023   1.464 -33.414  1.00  0.00     0.014 A 
HETATM   22  C   UNL     1      -6.607  -0.680 -34.448  1.00  0.00     0.012 A 
HETATM   23  C   UNL     1      -5.131   2.254 -32.677  1.00  0.00     0.024 A 
HETATM   24  C   UNL     1      -6.286  -2.008 -34.734  1.00  0.00     0.001 A 
HETATM   25  C   UNL     1      -5.085  -2.546 -34.282  1.00  0.00     0.001 A 
ENDBRANCH  14  16
ENDBRANCH   1  14
TORSDOF 5
ENDMDL
MODEL 5
REMARK VINA RESULT:      -7.7      2.090      4.370
REMARK  5 active torsions:
REMARK  status: ('A' for Active; 'I' for Inactive)
REMARK    1  A    between atoms: O_2  and  C_3 
REMARK    2  A    between atoms: C_6  and  N_7 
REMARK       I    between atoms: N_7  and  C_8 
REMARK    3  A    between atoms: C_8  and  C_9 
REMARK    4  A    between atoms: C_9  and  N_10 
REMARK    5  A    between atoms: N_10  and  C_11 
ROOT
HETATM    1  C   UNL     1      -9.097   1.859 -34.035  1.00  0.00     0.195 C 
ENDROOT
BRANCH   1   2
HETATM    2  C   UNL     1      -9.730   1.143 -32.844  1.00  0.00     0.235 C 
HETATM    3  N   UNL     1      -9.524   1.533 -31.552  1.00  0.00    -0.326 N 
HETATM    4  H   UNL     1     -10.127   1.012 -30.926  1.00  0.00     0.169 HD
HETATM    5  O   UNL     1     -10.479   0.175 -33.032  1.00  0.00    -0.272 OA
BRANCH   3   6
HETATM    6  C   UNL     1      -8.668   2.467 -30.940  1.00  0.00     0.034 A 
HETATM    7  C   UNL     1      -9.009   3.772 -30.592  1.00  0.00     0.032 A 
HETATM    8  C   UNL     1      -8.078   4.620 -29.970  1.00  0.00     0.039 A 
HETATM    9  C   UNL     1      -6.785   4.176 -29.704  1.00  0.00     0.068 A 
HETATM   10  C   UNL     1      -6.424   2.887 -30.091  1.00  0.00     0.039 A 
HETATM   11  C   UNL     1      -7.354   2.043 -30.706  1.00  0.00     0.032 A 
BRANCH   9  12
HETATM   12  O   UNL     1      -5.795   4.898 -29.100  1.00  0.00    -0.356 OA
HETATM   13  C   UNL     1      -6.160   5.641 -27.944  1.00  0.00     0.210 C 
ENDBRANCH   9  12
ENDBRANCH   3   6
ENDBRANCH   1   2
BRANCH   1  14
HETATM   14  N   UNL     1      -8.573   0.871 -34.982  1.00  0.00    -0.284 NA
HETATM   15  H   UNL     1      -8.556   1.236 -35.934  1.00  0.00     0.128 HD
BRANCH  14  16
HETATM   16  C   UNL     1      -7.421   0.139 -34.683  1.00  0.00     0.009 A 
HETATM   17  C   UNL     1      -7.415  -1.233 -34.982  1.00  0.00     0.035 A 
HETATM   18  C   UNL     1      -6.341  -2.071 -34.633  1.00  0.00    -0.024 A 
HETATM   19  C   UNL     1      -5.243  -1.527 -33.935  1.00  0.00    -0.026 A 
HETATM   20  C   UNL     1      -6.340  -3.439 -34.954  1.00  0.00     0.012 A 
HETATM   21  C   UNL     1      -5.258  -0.165 -33.606  1.00  0.00     0.014 A 
HETATM   22  C   UNL     1      -4.171  -2.361 -33.577  1.00  0.00     0.012 A 
HETATM   23  C   UNL     1      -6.340   0.649 -33.964  1.00  0.00     0.024 A 
HETATM   24  C   UNL     1      -4.185  -3.719 -33.905  1.00  0.00     0.001 A 
HETATM   25  C   UNL     1      -5.268  -4.257 -34.593  1.00  0.00     0.001 A 
ENDBRANCH  14  16
ENDBRANCH   1  14
TORSDOF 5
ENDMDL
MODEL 6
REMARK VINA RESULT:      -7.6      1.668      2.823
REMARK  5 active torsions:
REMARK  status: ('A' for Active; 'I' for Inactive)
REMARK    1  A    between atoms: O_2  and  C_3 
REMARK    2  A    between atoms: C_6  and  N_7 
REMARK       I    between atoms: N_7  and  C_8 
REMARK    3  A    between atoms: C_8  and  C_9 
REMARK    4  A    between atoms: C_9  and  N_10 
REMARK    5  A    between atoms: N_10  and  C_11 
ROOT
HETATM    1  C   UNL     1      -3.198   1.031 -32.480  1.00  0.00     0.195 C 
ENDROOT
BRANCH   1   2
HETATM    2  C   UNL     1      -3.646   2.208 -31.617  1.00  0.00     0.235 C 
HETATM    3  N   UNL     1      -4.959   2.478 -31.358  1.00  0.00    -0.326 N 
HETATM    4  H   UNL     1      -5.037   3.218 -30.670  1.00  0.00     0.169 HD
HETATM    5  O   UNL     1      -2.801   2.955 -31.106  1.00  0.00    -0.272 OA
BRANCH   3   6
HETATM    6  C   UNL     1      -6.175   1.964 -31.843  1.00  0.00     0.034 A 
HETATM    7  C   UNL     1      -6.891   2.465 -32.928  1.00  0.00     0.032 A 
HETATM    8  C   UNL     1      -8.093   1.866 -33.338  1.00  0.00     0.039 A 
HETATM    9  C   UNL     1      -8.604   0.765 -32.655  1.00  0.00     0.068 A 
HETATM   10  C   UNL     1      -7.916   0.288 -31.541  1.00  0.00     0.039 A 
HETATM   11  C   UNL     1      -6.716   0.883 -31.137  1.00  0.00     0.032 A 
BRANCH   9  12
HETATM   12  O   UNL     1      -9.753   0.092 -32.957  1.00  0.00    -0.356 OA
HETATM   13  C   UNL     1     -10.837   0.869 -33.452  1.00  0.00     0.210 C 
ENDBRANCH   9  12
ENDBRANCH   3   6
ENDBRANCH   1   2
BRANCH   1  14
HETATM   14  N   UNL     1      -3.269  -0.208 -31.700  1.00  0.00    -0.284 NA
HETATM   15  H   UNL     1      -3.834  -0.090 -30.859  1.00  0.00     0.128 HD
BRANCH  14  16
HETATM   16  C   UNL     1      -3.513  -1.432 -32.326  1.00  0.00     0.009 A 
HETATM   17  C   UNL     1      -4.523  -1.486 -33.300  1.00  0.00     0.035 A 
HETATM   18  C   UNL     1      -4.906  -2.691 -33.916  1.00  0.00    -0.024 A 
HETATM   19  C   UNL     1      -4.278  -3.892 -33.528  1.00  0.00    -0.026 A 
HETATM   20  C   UNL     1      -5.907  -2.728 -34.902  1.00  0.00     0.012 A 
HETATM   21  C   UNL     1      -3.292  -3.849 -32.533  1.00  0.00     0.014 A 
HETATM   22  C   UNL     1      -4.662  -5.099 -34.134  1.00  0.00     0.012 A 
HETATM   23  C   UNL     1      -2.927  -2.637 -31.933  1.00  0.00     0.024 A 
HETATM   24  C   UNL     1      -5.657  -5.119 -35.114  1.00  0.00     0.001 A 
HETATM   25  C   UNL     1      -6.278  -3.935 -35.498  1.00  0.00     0.001 A 
ENDBRANCH  14  16
ENDBRANCH   1  14
TORSDOF 5
ENDMDL
MODEL 7
REMARK VINA RESULT:      -7.6      3.474      6.392
REMARK  5 active torsions:
REMARK  status: ('A' for Active; 'I' for Inactive)
REMARK    1  A    between atoms: O_2  and  C_3 
REMARK    2  A    between atoms: C_6  and  N_7 
REMARK       I    between atoms: N_7  and  C_8 
REMARK    3  A    between atoms: C_8  and  C_9 
REMARK    4  A    between atoms: C_9  and  N_10 
REMARK    5  A    between atoms: N_10  and  C_11 
ROOT
HETATM    1  C   UNL     1      -5.285   2.116 -32.291  1.00  0.00     0.195 C 
ENDROOT
BRANCH   1   2
HETATM    2  C   UNL     1      -5.521   3.306 -33.219  1.00  0.00     0.235 C 
HETATM    3  N   UNL     1      -4.680   4.380 -33.273  1.00  0.00    -0.326 N 
HETATM    4  H   UNL     1      -4.943   4.995 -34.034  1.00  0.00     0.169 HD
HETATM    5  O   UNL     1      -6.502   3.314 -33.975  1.00  0.00    -0.272 OA
BRANCH   3   6
HETATM    6  C   UNL     1      -3.575   4.793 -32.507  1.00  0.00     0.034 A 
HETATM    7  C   UNL     1      -2.260   4.368 -32.688  1.00  0.00     0.032 A 
HETATM    8  C   UNL     1      -1.226   4.854 -31.872  1.00  0.00     0.039 A 
HETATM    9  C   UNL     1      -1.497   5.762 -30.852  1.00  0.00     0.068 A 
HETATM   10  C   UNL     1      -2.817   6.156 -30.637  1.00  0.00     0.039 A 
HETATM   11  C   UNL     1      -3.845   5.673 -31.453  1.00  0.00     0.032 A 
BRANCH   9  12
HETATM   12  O   UNL     1      -0.583   6.313 -29.999  1.00  0.00    -0.356 OA
HETATM   13  C   UNL     1       0.449   5.455 -29.529  1.00  0.00     0.210 C 
ENDBRANCH   9  12
ENDBRANCH   3   6
ENDBRANCH   1   2
BRANCH   1  14
HETATM   14  N   UNL     1      -4.542   1.075 -33.004  1.00  0.00    -0.284 NA
HETATM   15  H   UNL     1      -3.645   0.881 -32.559  1.00  0.00     0.128 HD
BRANCH  14  16
HETATM   16  C   UNL     1      -5.179  -0.095 -33.424  1.00  0.00     0.009 A 
HETATM   17  C   UNL     1      -4.429  -1.282 -33.454  1.00  0.00     0.035 A 
HETATM   18  C   UNL     1      -4.954  -2.489 -33.951  1.00  0.00    -0.024 A 
HETATM   19  C   UNL     1      -6.267  -2.507 -34.464  1.00  0.00    -0.026 A 
HETATM   20  C   UNL     1      -4.198  -3.673 -33.958  1.00  0.00     0.012 A 
HETATM   21  C   UNL     1      -7.010  -1.319 -34.466  1.00  0.00     0.014 A 
HETATM   22  C   UNL     1      -6.794  -3.708 -34.968  1.00  0.00     0.012 A 
HETATM   23  C   UNL     1      -6.465  -0.129 -33.966  1.00  0.00     0.024 A 
HETATM   24  C   UNL     1      -6.030  -4.877 -34.966  1.00  0.00     0.001 A 
HETATM   25  C   UNL     1      -4.733  -4.860 -34.461  1.00  0.00     0.001 A 
ENDBRANCH  14  16
ENDBRANCH   1  14
TORSDOF 5
ENDMDL
MODEL 8
REMARK VINA RESULT:      -7.6      1.930      2.226
REMARK  5 active torsions:
REMARK  status: ('A' for Active; 'I' for Inactive)
REMARK    1  A    between atoms: O_2  and  C_3 
REMARK    2  A    between atoms: C_6  and  N_7 
REMARK       I    between atoms: N_7  and  C_8 
REMARK    3  A    between atoms: C_8  and  C_9 
REMARK    4  A    between atoms: C_9  and  N_10 
REMARK    5  A    between atoms: N_10  and  C_11 
ROOT
HETATM    1  C   UNL     1      -6.965   3.005 -32.815  1.00  0.00     0.195 C 
ENDROOT
BRANCH   1   2
HETATM    2  C   UNL     1      -7.402   4.145 -33.732  1.00  0.00     0.235 C 
HETATM    3  N   UNL     1      -8.712   4.414 -34.005  1.00  0.00    -0.326 N 
HETATM    4  H   UNL     1      -8.793   5.278 -34.528  1.00  0.00     0.169 HD
HETATM    5  O   UNL     1      -6.551   4.880 -34.251  1.00  0.00    -0.272 OA
BRANCH   3   6
HETATM    6  C   UNL     1      -9.922   3.753 -33.727  1.00  0.00     0.034 A 
HETATM    7  C   UNL     1     -10.844   4.126 -32.751  1.00  0.00     0.032 A 
HETATM    8  C   UNL     1     -12.031   3.400 -32.564  1.00  0.00     0.039 A 
HETATM    9  C   UNL     1     -12.305   2.279 -33.344  1.00  0.00     0.068 A 
HETATM   10  C   UNL     1     -11.366   1.874 -34.290  1.00  0.00     0.039 A 
HETATM   11  C   UNL     1     -10.186   2.601 -34.477  1.00  0.00     0.032 A 
BRANCH   9  12
HETATM   12  O   UNL     1     -13.422   1.497 -33.265  1.00  0.00    -0.356 OA
HETATM   13  C   UNL     1     -13.340   0.205 -33.856  1.00  0.00     0.210 C 
ENDBRANCH   9  12
ENDBRANCH   3   6
ENDBRANCH   1   2
BRANCH   1  14
HETATM   14  N   UNL     1      -5.934   2.205 -33.479  1.00  0.00    -0.284 NA
HETATM   15  H   UNL     1      -5.020   2.334 -33.045  1.00  0.00     0.128 HD
BRANCH  14  16
HETATM   16  C   UNL     1      -6.170   0.868 -33.809  1.00  0.00     0.009 A 
HETATM   17  C   UNL     1      -5.157  -0.067 -33.542  1.00  0.00     0.035 A 
HETATM   18  C   UNL     1      -5.263  -1.417 -33.924  1.00  0.00    -0.024 A 
HETATM   19  C   UNL     1      -6.411  -1.845 -34.622  1.00  0.00    -0.026 A 
HETATM   20  C   UNL     1      -4.249  -2.345 -33.636  1.00  0.00     0.012 A 
HETATM   21  C   UNL     1      -7.411  -0.910 -34.919  1.00  0.00     0.014 A 
HETATM   22  C   UNL     1      -6.519  -3.190 -35.013  1.00  0.00     0.012 A 
HETATM   23  C   UNL     1      -7.282   0.429 -34.529  1.00  0.00     0.024 A 
HETATM   24  C   UNL     1      -5.503  -4.101 -34.717  1.00  0.00     0.001 A 
HETATM   25  C   UNL     1      -4.370  -3.680 -34.029  1.00  0.00     0.001 A 
ENDBRANCH  14  16
ENDBRANCH   1  14
TORSDOF 5
ENDMDL
MODEL 9
REMARK VINA RESULT:      -7.6      2.707      3.371
REMARK  5 active torsions:
REMARK  status: ('A' for Active; 'I' for Inactive)
REMARK    1  A    between atoms: O_2  and  C_3 
REMARK    2  A    between atoms: C_6  and  N_7 
REMARK       I    between atoms: N_7  and  C_8 
REMARK    3  A    between atoms: C_8  and  C_9 
REMARK    4  A    between atoms: C_9  and  N_10 
REMARK    5  A    between atoms: N_10  and  C_11 
ROOT
HETATM    1  C   UNL     1      -3.162   2.586 -32.697  1.00  0.00     0.195 C 
ENDROOT
BRANCH   1   2
HETATM    2  C   UNL     1      -2.986   3.599 -31.568  1.00  0.00     0.235 C 
HETATM    3  N   UNL     1      -4.019   4.010 -30.775  1.00  0.00    -0.326 N 
HETATM    4  H   UNL     1      -3.673   4.583 -30.014  1.00  0.00     0.169 HD
HETATM    5  O   UNL     1      -1.866   4.071 -31.331  1.00  0.00    -0.272 OA
BRANCH   3   6
HETATM    6  C   UNL     1      -5.412   3.816 -30.809  1.00  0.00     0.034 A 
HETATM    7  C   UNL     1      -6.310   4.524 -31.604  1.00  0.00     0.032 A 
HETATM    8  C   UNL     1      -7.685   4.240 -31.569  1.00  0.00     0.039 A 
HETATM    9  C   UNL     1      -8.181   3.252 -30.723  1.00  0.00     0.068 A 
HETATM   10  C   UNL     1      -7.294   2.572 -29.891  1.00  0.00     0.039 A 
HETATM   11  C   UNL     1      -5.924   2.853 -29.931  1.00  0.00     0.032 A 
BRANCH   9  12
HETATM   12  O   UNL     1      -9.489   2.878 -30.602  1.00  0.00    -0.356 OA
HETATM   13  C   UNL     1     -10.445   3.925 -30.485  1.00  0.00     0.210 C 
ENDBRANCH   9  12
ENDBRANCH   3   6
ENDBRANCH   1   2
BRANCH   1  14
HETATM   14  N   UNL     1      -3.335   1.245 -32.133  1.00  0.00    -0.284 NA
HETATM   15  H   UNL     1      -3.338   1.264 -31.113  1.00  0.00     0.128 HD
BRANCH  14  16
HETATM   16  C   UNL     1      -4.304   0.377 -32.642  1.00  0.00     0.009 A 
HETATM   17  C   UNL     1      -3.897  -0.904 -33.047  1.00  0.00     0.035 A 
HETATM   18  C   UNL     1      -4.779  -1.813 -33.658  1.00  0.00    -0.024 A 
HETATM   19  C   UNL     1      -6.111  -1.421 -33.901  1.00  0.00    -0.026 A 
HETATM   20  C   UNL     1      -4.361  -3.099 -34.043  1.00  0.00     0.012 A 
HETATM   21  C   UNL     1      -6.516  -0.132 -33.528  1.00  0.00     0.014 A 
HETATM   22  C   UNL     1      -6.994  -2.322 -34.518  1.00  0.00     0.012 A 
HETATM   23  C   UNL     1      -5.618   0.756 -32.921  1.00  0.00     0.024 A 
HETATM   24  C   UNL     1      -6.565  -3.596 -34.892  1.00  0.00     0.001 A 
HETATM   25  C   UNL     1      -5.250  -3.985 -34.655  1.00  0.00     0.001 A 
ENDBRANCH  14  16
ENDBRANCH   1  14
TORSDOF 5
ENDMDL
MODEL 10
REMARK VINA RESULT:      -7.6      3.538      6.396
REMARK  5 active torsions:
REMARK  status: ('A' for Active; 'I' for Inactive)
REMARK    1  A    between atoms: O_2  and  C_3 
REMARK    2  A    between atoms: C_6  and  N_7 
REMARK       I    between atoms: N_7  and  C_8 
REMARK    3  A    between atoms: C_8  and  C_9 
REMARK    4  A    between atoms: C_9  and  N_10 
REMARK    5  A    between atoms: N_10  and  C_11 
ROOT
HETATM    1  C   UNL     1      -6.659   3.576 -32.714  1.00  0.00     0.195 C 
ENDROOT
BRANCH   1   2
HETATM    2  C   UNL     1      -6.531   4.754 -33.678  1.00  0.00     0.235 C 
HETATM    3  N   UNL     1      -5.332   5.327 -33.988  1.00  0.00    -0.326 N 
HETATM    4  H   UNL     1      -5.448   6.004 -34.734  1.00  0.00     0.169 HD
HETATM    5  O   UNL     1      -7.540   5.215 -34.227  1.00  0.00    -0.272 OA
BRANCH   3   6
HETATM    6  C   UNL     1      -4.023   5.183 -33.493  1.00  0.00     0.034 A 
HETATM    7  C   UNL     1      -2.870   5.078 -34.267  1.00  0.00     0.032 A 
HETATM    8  C   UNL     1      -1.607   4.949 -33.667  1.00  0.00     0.039 A 
HETATM    9  C   UNL     1      -1.483   4.906 -32.281  1.00  0.00     0.068 A 
HETATM   10  C   UNL     1      -2.637   4.964 -31.502  1.00  0.00     0.039 A 
HETATM   11  C   UNL     1      -3.894   5.097 -32.101  1.00  0.00     0.032 A 
BRANCH   9  12
HETATM   12  O   UNL     1      -0.317   4.791 -31.580  1.00  0.00    -0.356 OA
HETATM   13  C   UNL     1      -0.227   5.524 -30.365  1.00  0.00     0.210 C 
ENDBRANCH   9  12
ENDBRANCH   3   6
ENDBRANCH   1   2
BRANCH   1  14
HETATM   14  N   UNL     1      -7.679   2.646 -33.205  1.00  0.00    -0.284 NA
HETATM   15  H   UNL     1      -8.323   3.103 -33.852  1.00  0.00     0.128 HD
BRANCH  14  16
HETATM   16  C   UNL     1      -7.328   1.365 -33.636  1.00  0.00     0.009 A 
HETATM   17  C   UNL     1      -6.216   0.749 -33.039  1.00  0.00     0.035 A 
HETATM   18  C   UNL     1      -5.728  -0.497 -33.471  1.00  0.00    -0.024 A 
HETATM   19  C   UNL     1      -6.355  -1.143 -34.556  1.00  0.00    -0.026 A 
HETATM   20  C   UNL     1      -4.624  -1.110 -32.853  1.00  0.00     0.012 A 
HETATM   21  C   UNL     1      -7.446  -0.519 -35.176  1.00  0.00     0.014 A 
HETATM   22  C   UNL     1      -5.868  -2.385 -34.996  1.00  0.00     0.012 A 
HETATM   23  C   UNL     1      -7.914   0.724 -34.728  1.00  0.00     0.024 A 
HETATM   24  C   UNL     1      -4.771  -2.981 -34.370  1.00  0.00     0.001 A 
HETATM   25  C   UNL     1      -4.150  -2.344 -33.300  1.00  0.00     0.001 A 
ENDBRANCH  14  16
ENDBRANCH   1  14
TORSDOF 5
ENDMDL
