MODEL 1
REMARK VINA RESULT:      -7.5      0.000      0.000
REMARK  7 active torsions:
REMARK  status: ('A' for Active; 'I' for Inactive)
REMARK    1  A    between atoms: C_2  and  N_3 
REMARK    2  A    between atoms: N_3  and  N_4 
REMARK       I    between atoms: N_4  and  C_5 
REMARK    3  A    between atoms: C_5  and  C_6 
REMARK    4  A    between atoms: C_6  and  C_7 
REMARK    5  A    between atoms: C_7  and  C_8 
REMARK    6  A    between atoms: C_8  and  N_9 
REMARK       I    between atoms: N_9  and  C_10 
REMARK       I    between atoms: C_10  and  N_11 
REMARK    7  A    between atoms: N_11  and  C_12 
ROOT
HETATM    1  C   UNL     1      -4.210   5.596 -34.038  1.00  0.00     0.068 A 
HETATM    2  C   UNL     1      -5.118   4.576 -33.774  1.00  0.00     0.124 A 
HETATM    3  N   UNL     1      -4.791   3.513 -33.019  1.00  0.00    -0.223 NA
HETATM    4  C   UNL     1      -3.534   3.446 -32.539  1.00  0.00     0.129 A 
HETATM    5 CL   UNL     1      -3.205   2.058 -31.588  1.00  0.00    -0.062 Cl
HETATM    6  C   UNL     1      -2.559   4.395 -32.761  1.00  0.00     0.067 A 
HETATM    7  C   UNL     1      -2.915   5.496 -33.530  1.00  0.00     0.051 A 
HETATM    8  C   UNL     1      -1.958   6.526 -33.797  1.00  0.00     0.099 C 
HETATM    9  N   UNL     1      -1.180   7.358 -34.013  1.00  0.00    -0.191 NA
ENDROOT
BRANCH   2  10
HETATM   10  N   UNL     1      -6.457   4.644 -34.217  1.00  0.00    -0.186 NA
HETATM   11  H   UNL     1      -6.471   5.402 -34.916  1.00  0.00     0.154 HD
BRANCH  10  12
HETATM   12  N   UNL     1      -7.391   4.871 -33.178  1.00  0.00    -0.286 N 
HETATM   13  C   UNL     1      -8.690   5.135 -33.580  1.00  0.00     0.232 C 
HETATM   14  O   UNL     1      -9.001   5.386 -34.742  1.00  0.00    -0.272 OA
HETATM   15  H   UNL     1      -7.239   4.310 -32.343  1.00  0.00     0.184 HD
BRANCH  13  16
HETATM   16  C   UNL     1      -9.715   5.042 -32.471  1.00  0.00     0.106 C 
BRANCH  16  17
HETATM   17  C   UNL     1      -9.801   3.639 -31.879  1.00  0.00     0.029 C 
BRANCH  17  18
HETATM   18  C   UNL     1     -10.230   2.627 -32.938  1.00  0.00     0.125 C 
BRANCH  18  19
HETATM   19  N   UNL     1      -9.540   1.363 -32.782  1.00  0.00    -0.343 N 
HETATM   20  C   UNL     1      -8.356   1.114 -33.433  1.00  0.00     0.316 C 
HETATM   21  N   UNL     1      -7.881  -0.132 -33.112  1.00  0.00    -0.339 N 
HETATM   22  O   UNL     1      -7.819   1.906 -34.192  1.00  0.00    -0.248 OA
HETATM   23  H   UNL     1      -8.593  -0.780 -32.813  1.00  0.00     0.164 HD
HETATM   24  H   UNL     1      -9.701   0.842 -31.934  1.00  0.00     0.164 HD
BRANCH  21  25
HETATM   25  C   UNL     1      -6.699  -0.735 -33.716  1.00  0.00     0.086 C 
HETATM   26  C   UNL     1      -6.936  -2.159 -34.236  1.00  0.00     0.025 C 
HETATM   27  C   UNL     1      -5.687  -2.711 -34.921  1.00  0.00     0.002 C 
HETATM   28  C   UNL     1      -4.464  -2.641 -34.010  1.00  0.00     0.000 C 
HETATM   29  C   UNL     1      -4.232  -1.227 -33.481  1.00  0.00     0.002 C 
HETATM   30  C   UNL     1      -5.476  -0.672 -32.791  1.00  0.00     0.025 C 
ENDBRANCH  21  25
ENDBRANCH  18  19
ENDBRANCH  17  18
ENDBRANCH  16  17
ENDBRANCH  13  16
ENDBRANCH  10  12
ENDBRANCH   2  10
TORSDOF 7
ENDMDL
MODEL 2
REMARK VINA RESULT:      -7.5      4.449      9.184
REMARK  7 active torsions:
REMARK  status: ('A' for Active; 'I' for Inactive)
REMARK    1  A    between atoms: C_2  and  N_3 
REMARK    2  A    between atoms: N_3  and  N_4 
REMARK       I    between atoms: N_4  and  C_5 
REMARK    3  A    between atoms: C_5  and  C_6 
REMARK    4  A    between atoms: C_6  and  C_7 
REMARK    5  A    between atoms: C_7  and  C_8 
REMARK    6  A    between atoms: C_8  and  N_9 
REMARK       I    between atoms: N_9  and  C_10 
REMARK       I    between atoms: C_10  and  N_11 
REMARK    7  A    between atoms: N_11  and  C_12 
ROOT
HETATM    1  C   UNL     1      -4.844   0.685 -33.042  1.00  0.00     0.068 A 
HETATM    2  C   UNL     1      -3.782   0.634 -32.145  1.00  0.00     0.124 A 
HETATM    3  N   UNL     1      -3.228  -0.532 -31.766  1.00  0.00    -0.223 NA
HETATM    4  C   UNL     1      -3.754  -1.668 -32.263  1.00  0.00     0.129 A 
HETATM    5 CL   UNL     1      -2.988  -3.105 -31.727  1.00  0.00    -0.062 Cl
HETATM    6  C   UNL     1      -4.816  -1.721 -33.140  1.00  0.00     0.067 A 
HETATM    7  C   UNL     1      -5.368  -0.510 -33.536  1.00  0.00     0.051 A 
HETATM    8  C   UNL     1      -6.469  -0.486 -34.451  1.00  0.00     0.099 C 
HETATM    9  N   UNL     1      -7.361  -0.470 -35.191  1.00  0.00    -0.191 NA
ENDROOT
BRANCH   2  10
HETATM   10  N   UNL     1      -3.175   1.808 -31.650  1.00  0.00    -0.186 NA
HETATM   11  H   UNL     1      -3.418   1.835 -30.648  1.00  0.00     0.154 HD
BRANCH  10  12
HETATM   12  N   UNL     1      -3.580   2.986 -32.321  1.00  0.00    -0.286 N 
HETATM   13  C   UNL     1      -2.668   4.030 -32.314  1.00  0.00     0.232 C 
HETATM   14  O   UNL     1      -1.670   4.051 -31.599  1.00  0.00    -0.272 OA
HETATM   15  H   UNL     1      -4.137   2.826 -33.157  1.00  0.00     0.184 HD
BRANCH  13  16
HETATM   16  C   UNL     1      -2.978   5.132 -33.303  1.00  0.00     0.106 C 
BRANCH  16  17
HETATM   17  C   UNL     1      -1.722   5.675 -33.978  1.00  0.00     0.029 C 
BRANCH  17  18
HETATM   18  C   UNL     1      -1.393   7.076 -33.468  1.00  0.00     0.125 C 
BRANCH  18  19
HETATM   19  N   UNL     1      -0.423   7.041 -32.393  1.00  0.00    -0.343 N 
HETATM   20  C   UNL     1      -0.790   7.298 -31.095  1.00  0.00     0.316 C 
HETATM   21  N   UNL     1       0.288   7.182 -30.255  1.00  0.00    -0.339 N 
HETATM   22  O   UNL     1      -1.926   7.593 -30.755  1.00  0.00    -0.248 OA
HETATM   23  H   UNL     1       1.179   7.323 -30.706  1.00  0.00     0.164 HD
HETATM   24  H   UNL     1       0.397   6.468 -32.520  1.00  0.00     0.164 HD
BRANCH  21  25
HETATM   25  C   UNL     1       0.251   7.492 -28.831  1.00  0.00     0.086 C 
HETATM   26  C   UNL     1       1.405   8.392 -28.371  1.00  0.00     0.025 C 
HETATM   27  C   UNL     1       1.274   8.742 -26.889  1.00  0.00     0.002 C 
HETATM   28  C   UNL     1       1.155   7.491 -26.021  1.00  0.00     0.000 C 
HETATM   29  C   UNL     1       0.015   6.587 -26.484  1.00  0.00     0.002 C 
HETATM   30  C   UNL     1       0.143   6.230 -27.964  1.00  0.00     0.025 C 
ENDBRANCH  21  25
ENDBRANCH  18  19
ENDBRANCH  17  18
ENDBRANCH  16  17
ENDBRANCH  13  16
ENDBRANCH  10  12
ENDBRANCH   2  10
TORSDOF 7
ENDMDL
MODEL 3
REMARK VINA RESULT:      -7.4      2.224      3.261
REMARK  7 active torsions:
REMARK  status: ('A' for Active; 'I' for Inactive)
REMARK    1  A    between atoms: C_2  and  N_3 
REMARK    2  A    between atoms: N_3  and  N_4 
REMARK       I    between atoms: N_4  and  C_5 
REMARK    3  A    between atoms: C_5  and  C_6 
REMARK    4  A    between atoms: C_6  and  C_7 
REMARK    5  A    between atoms: C_7  and  C_8 
REMARK    6  A    between atoms: C_8  and  N_9 
REMARK       I    between atoms: N_9  and  C_10 
REMARK       I    between atoms: C_10  and  N_11 
REMARK    7  A    between atoms: N_11  and  C_12 
ROOT
HETATM    1  C   UNL     1      -6.213   3.395 -31.967  1.00  0.00     0.068 A 
HETATM    2  C   UNL     1      -6.442   2.300 -31.140  1.00  0.00     0.124 A 
HETATM    3  N   UNL     1      -5.481   1.396 -30.878  1.00  0.00    -0.223 NA
HETATM    4  C   UNL     1      -4.282   1.564 -31.467  1.00  0.00     0.129 A 
HETATM    5 CL   UNL     1      -3.120   0.365 -31.078  1.00  0.00    -0.062 Cl
HETATM    6  C   UNL     1      -3.965   2.603 -32.315  1.00  0.00     0.067 A 
HETATM    7  C   UNL     1      -4.960   3.539 -32.566  1.00  0.00     0.051 A 
HETATM    8  C   UNL     1      -4.702   4.650 -33.431  1.00  0.00     0.099 C 
HETATM    9  N   UNL     1      -4.491   5.548 -34.133  1.00  0.00    -0.191 NA
ENDROOT
BRANCH   2  10
HETATM   10  N   UNL     1      -7.669   2.127 -30.466  1.00  0.00    -0.186 NA
HETATM   11  H   UNL     1      -7.415   1.798 -29.523  1.00  0.00     0.154 HD
BRANCH  10  12
HETATM   12  N   UNL     1      -8.554   1.232 -31.113  1.00  0.00    -0.286 N 
HETATM   13  C   UNL     1      -9.560   1.815 -31.868  1.00  0.00     0.232 C 
HETATM   14  O   UNL     1      -9.833   3.012 -31.820  1.00  0.00    -0.272 OA
HETATM   15  H   UNL     1      -8.119   0.377 -31.451  1.00  0.00     0.184 HD
BRANCH  13  16
HETATM   16  C   UNL     1     -10.270   0.859 -32.800  1.00  0.00     0.106 C 
BRANCH  16  17
HETATM   17  C   UNL     1     -10.036   1.200 -34.269  1.00  0.00     0.029 C 
BRANCH  17  18
HETATM   18  C   UNL     1      -8.552   1.431 -34.543  1.00  0.00     0.125 C 
BRANCH  18  19
HETATM   19  N   UNL     1      -7.908   0.236 -35.048  1.00  0.00    -0.343 N 
HETATM   20  C   UNL     1      -7.260  -0.634 -34.206  1.00  0.00     0.316 C 
HETATM   21  N   UNL     1      -6.754  -1.699 -34.906  1.00  0.00    -0.339 N 
HETATM   22  O   UNL     1      -7.158  -0.462 -33.000  1.00  0.00    -0.248 OA
HETATM   23  H   UNL     1      -6.580  -1.506 -35.880  1.00  0.00     0.164 HD
HETATM   24  H   UNL     1      -8.253  -0.153 -35.912  1.00  0.00     0.164 HD
BRANCH  21  25
HETATM   25  C   UNL     1      -5.926  -2.744 -34.316  1.00  0.00     0.086 C 
HETATM   26  C   UNL     1      -4.510  -2.273 -33.959  1.00  0.00     0.025 C 
HETATM   27  C   UNL     1      -3.714  -3.387 -33.280  1.00  0.00     0.002 C 
HETATM   28  C   UNL     1      -3.688  -4.659 -34.124  1.00  0.00     0.000 C 
HETATM   29  C   UNL     1      -5.095  -5.124 -34.492  1.00  0.00     0.002 C 
HETATM   30  C   UNL     1      -5.894  -4.015 -35.175  1.00  0.00     0.025 C 
ENDBRANCH  21  25
ENDBRANCH  18  19
ENDBRANCH  17  18
ENDBRANCH  16  17
ENDBRANCH  13  16
ENDBRANCH  10  12
ENDBRANCH   2  10
TORSDOF 7
ENDMDL
MODEL 4
REMARK VINA RESULT:      -7.3      3.262      6.726
REMARK  7 active torsions:
REMARK  status: ('A' for Active; 'I' for Inactive)
REMARK    1  A    between atoms: C_2  and  N_3 
REMARK    2  A    between atoms: N_3  and  N_4 
REMARK       I    between atoms: N_4  and  C_5 
REMARK    3  A    between atoms: C_5  and  C_6 
REMARK    4  A    between atoms: C_6  and  C_7 
REMARK    5  A    between atoms: C_7  and  C_8 
REMARK    6  A    between atoms: C_8  and  N_9 
REMARK       I    between atoms: N_9  and  C_10 
REMARK       I    between atoms: C_10  and  N_11 
REMARK    7  A    between atoms: N_11  and  C_12 
ROOT
HETATM    1  C   UNL     1      -4.741  -2.142 -33.686  1.00  0.00     0.068 A 
HETATM    2  C   UNL     1      -4.853  -0.778 -33.435  1.00  0.00     0.124 A 
HETATM    3  N   UNL     1      -5.855  -0.043 -33.949  1.00  0.00    -0.223 NA
HETATM    4  C   UNL     1      -6.745  -0.663 -34.746  1.00  0.00     0.129 A 
HETATM    5 CL   UNL     1      -7.986   0.350 -35.356  1.00  0.00    -0.062 Cl
HETATM    6  C   UNL     1      -6.708  -2.002 -35.069  1.00  0.00     0.067 A 
HETATM    7  C   UNL     1      -5.677  -2.755 -34.520  1.00  0.00     0.051 A 
HETATM    8  C   UNL     1      -5.577  -4.154 -34.803  1.00  0.00     0.099 C 
HETATM    9  N   UNL     1      -5.498  -5.287 -35.037  1.00  0.00    -0.191 NA
ENDROOT
BRANCH   2  10
HETATM   10  N   UNL     1      -3.968  -0.112 -32.560  1.00  0.00    -0.186 NA
HETATM   11  H   UNL     1      -3.539  -0.858 -31.992  1.00  0.00     0.154 HD
BRANCH  10  12
HETATM   12  N   UNL     1      -4.593   0.869 -31.754  1.00  0.00    -0.286 N 
HETATM   13  C   UNL     1      -4.175   2.174 -31.956  1.00  0.00     0.232 C 
HETATM   14  O   UNL     1      -3.181   2.472 -32.613  1.00  0.00    -0.272 OA
HETATM   15  H   UNL     1      -5.576   0.692 -31.558  1.00  0.00     0.184 HD
BRANCH  13  16
HETATM   16  C   UNL     1      -5.077   3.218 -31.336  1.00  0.00     0.106 C 
BRANCH  16  17
HETATM   17  C   UNL     1      -5.570   2.810 -29.952  1.00  0.00     0.029 C 
BRANCH  17  18
HETATM   18  C   UNL     1      -7.077   3.017 -29.827  1.00  0.00     0.125 C 
BRANCH  18  19
HETATM   19  N   UNL     1      -7.809   2.201 -30.773  1.00  0.00    -0.343 N 
HETATM   20  C   UNL     1      -8.905   2.693 -31.439  1.00  0.00     0.316 C 
HETATM   21  N   UNL     1      -9.414   1.751 -32.295  1.00  0.00    -0.339 N 
HETATM   22  O   UNL     1      -9.352   3.818 -31.273  1.00  0.00    -0.248 OA
HETATM   23  H   UNL     1      -9.199   0.800 -32.038  1.00  0.00     0.164 HD
HETATM   24  H   UNL     1      -7.314   1.447 -31.225  1.00  0.00     0.164 HD
BRANCH  21  25
HETATM   25  C   UNL     1     -10.637   1.928 -33.070  1.00  0.00     0.086 C 
HETATM   26  C   UNL     1     -11.339   0.609 -33.416  1.00  0.00     0.025 C 
HETATM   27  C   UNL     1     -12.647   0.859 -34.163  1.00  0.00     0.002 C 
HETATM   28  C   UNL     1     -12.434   1.725 -35.403  1.00  0.00     0.000 C 
HETATM   29  C   UNL     1     -11.724   3.034 -35.065  1.00  0.00     0.002 C 
HETATM   30  C   UNL     1     -10.413   2.788 -34.321  1.00  0.00     0.025 C 
ENDBRANCH  21  25
ENDBRANCH  18  19
ENDBRANCH  17  18
ENDBRANCH  16  17
ENDBRANCH  13  16
ENDBRANCH  10  12
ENDBRANCH   2  10
TORSDOF 7
ENDMDL
MODEL 5
REMARK VINA RESULT:      -7.1      2.512      7.074
REMARK  7 active torsions:
REMARK  status: ('A' for Active; 'I' for Inactive)
REMARK    1  A    between atoms: C_2  and  N_3 
REMARK    2  A    between atoms: N_3  and  N_4 
REMARK       I    between atoms: N_4  and  C_5 
REMARK    3  A    between atoms: C_5  and  C_6 
REMARK    4  A    between atoms: C_6  and  C_7 
REMARK    5  A    between atoms: C_7  and  C_8 
REMARK    6  A    between atoms: C_8  and  N_9 
REMARK       I    between atoms: N_9  and  C_10 
REMARK       I    between atoms: C_10  and  N_11 
REMARK    7  A    between atoms: N_11  and  C_12 
ROOT
HETATM    1  C   UNL     1      -6.885  -2.009 -34.709  1.00  0.00     0.068 A 
HETATM    2  C   UNL     1      -6.843  -0.677 -34.312  1.00  0.00     0.124 A 
HETATM    3  N   UNL     1      -5.731  -0.126 -33.793  1.00  0.00    -0.223 NA
HETATM    4  C   UNL     1      -4.650  -0.915 -33.642  1.00  0.00     0.129 A 
HETATM    5 CL   UNL     1      -3.280  -0.131 -32.974  1.00  0.00    -0.062 Cl
HETATM    6  C   UNL     1      -4.600  -2.249 -33.987  1.00  0.00     0.067 A 
HETATM    7  C   UNL     1      -5.749  -2.802 -34.536  1.00  0.00     0.051 A 
HETATM    8  C   UNL     1      -5.770  -4.179 -34.926  1.00  0.00     0.099 C 
HETATM    9  N   UNL     1      -5.784  -5.295 -35.239  1.00  0.00    -0.191 NA
ENDROOT
BRANCH   2  10
HETATM   10  N   UNL     1      -7.940   0.188 -34.509  1.00  0.00    -0.186 NA
HETATM   11  H   UNL     1      -7.782   0.618 -35.432  1.00  0.00     0.154 HD
BRANCH  10  12
HETATM   12  N   UNL     1      -8.088   1.163 -33.493  1.00  0.00    -0.286 N 
HETATM   13  C   UNL     1      -9.016   0.872 -32.506  1.00  0.00     0.232 C 
HETATM   14  O   UNL     1      -9.830  -0.044 -32.592  1.00  0.00    -0.272 OA
HETATM   15  H   UNL     1      -7.226   1.637 -33.234  1.00  0.00     0.184 HD
BRANCH  13  16
HETATM   16  C   UNL     1      -8.914   1.752 -31.280  1.00  0.00     0.106 C 
BRANCH  16  17
HETATM   17  C   UNL     1      -7.709   2.685 -31.334  1.00  0.00     0.029 C 
BRANCH  17  18
HETATM   18  C   UNL     1      -6.517   2.078 -30.599  1.00  0.00     0.125 C 
BRANCH  18  19
HETATM   19  N   UNL     1      -5.475   3.057 -30.367  1.00  0.00    -0.343 N 
HETATM   20  C   UNL     1      -4.629   3.448 -31.376  1.00  0.00     0.316 C 
HETATM   21  N   UNL     1      -3.747   4.397 -30.927  1.00  0.00    -0.339 N 
HETATM   22  O   UNL     1      -4.671   2.996 -32.511  1.00  0.00    -0.248 OA
HETATM   23  H   UNL     1      -3.584   4.370 -29.932  1.00  0.00     0.164 HD
HETATM   24  H   UNL     1      -5.610   3.717 -29.617  1.00  0.00     0.164 HD
BRANCH  21  25
HETATM   25  C   UNL     1      -2.655   4.940 -31.726  1.00  0.00     0.086 C 
HETATM   26  C   UNL     1      -1.432   5.346 -30.895  1.00  0.00     0.025 C 
HETATM   27  C   UNL     1      -0.296   5.838 -31.790  1.00  0.00     0.002 C 
HETATM   28  C   UNL     1      -0.750   6.968 -32.712  1.00  0.00     0.000 C 
HETATM   29  C   UNL     1      -1.976   6.572 -33.532  1.00  0.00     0.002 C 
HETATM   30  C   UNL     1      -3.116   6.083 -32.641  1.00  0.00     0.025 C 
ENDBRANCH  21  25
ENDBRANCH  18  19
ENDBRANCH  17  18
ENDBRANCH  16  17
ENDBRANCH  13  16
ENDBRANCH  10  12
ENDBRANCH   2  10
TORSDOF 7
ENDMDL
MODEL 6
REMARK VINA RESULT:      -6.9      2.406      3.114
REMARK  7 active torsions:
REMARK  status: ('A' for Active; 'I' for Inactive)
REMARK    1  A    between atoms: C_2  and  N_3 
REMARK    2  A    between atoms: N_3  and  N_4 
REMARK       I    between atoms: N_4  and  C_5 
REMARK    3  A    between atoms: C_5  and  C_6 
REMARK    4  A    between atoms: C_6  and  C_7 
REMARK    5  A    between atoms: C_7  and  C_8 
REMARK    6  A    between atoms: C_8  and  N_9 
REMARK       I    between atoms: N_9  and  C_10 
REMARK       I    between atoms: C_10  and  N_11 
REMARK    7  A    between atoms: N_11  and  C_12 
ROOT
HETATM    1  C   UNL     1      -2.278   6.198 -32.195  1.00  0.00     0.068 A 
HETATM    2  C   UNL     1      -1.916   4.860 -32.088  1.00  0.00     0.124 A 
HETATM    3  N   UNL     1      -0.954   4.451 -31.241  1.00  0.00    -0.223 NA
HETATM    4  C   UNL     1      -0.323   5.388 -30.507  1.00  0.00     0.129 A 
HETATM    5 CL   UNL     1       0.886   4.778 -29.457  1.00  0.00    -0.062 Cl
HETATM    6  C   UNL     1      -0.598   6.737 -30.557  1.00  0.00     0.067 A 
HETATM    7  C   UNL     1      -1.603   7.145 -31.425  1.00  0.00     0.051 A 
HETATM    8  C   UNL     1      -1.949   8.531 -31.525  1.00  0.00     0.099 C 
HETATM    9  N   UNL     1      -2.225   9.653 -31.605  1.00  0.00    -0.191 NA
ENDROOT
BRANCH   2  10
HETATM   10  N   UNL     1      -2.595   3.850 -32.803  1.00  0.00    -0.186 NA
HETATM   11  H   UNL     1      -1.979   3.620 -33.596  1.00  0.00     0.154 HD
BRANCH  10  12
HETATM   12  N   UNL     1      -3.889   4.229 -33.235  1.00  0.00    -0.286 N 
HETATM   13  C   UNL     1      -4.940   3.814 -32.433  1.00  0.00     0.232 C 
HETATM   14  O   UNL     1      -4.819   2.988 -31.533  1.00  0.00    -0.272 OA
HETATM   15  H   UNL     1      -3.936   5.145 -33.673  1.00  0.00     0.184 HD
BRANCH  13  16
HETATM   16  C   UNL     1      -6.255   4.502 -32.728  1.00  0.00     0.106 C 
BRANCH  16  17
HETATM   17  C   UNL     1      -7.426   3.850 -32.001  1.00  0.00     0.029 C 
BRANCH  17  18
HETATM   18  C   UNL     1      -8.207   2.934 -32.939  1.00  0.00     0.125 C 
BRANCH  18  19
HETATM   19  N   UNL     1      -7.876   1.541 -32.728  1.00  0.00    -0.343 N 
HETATM   20  C   UNL     1      -7.117   0.843 -33.637  1.00  0.00     0.316 C 
HETATM   21  N   UNL     1      -6.914  -0.444 -33.211  1.00  0.00    -0.339 N 
HETATM   22  O   UNL     1      -6.694   1.323 -34.678  1.00  0.00    -0.248 OA
HETATM   23  H   UNL     1      -7.619  -0.783 -32.575  1.00  0.00     0.164 HD
HETATM   24  H   UNL     1      -7.857   1.201 -31.779  1.00  0.00     0.164 HD
BRANCH  21  25
HETATM   25  C   UNL     1      -6.236  -1.467 -33.998  1.00  0.00     0.086 C 
HETATM   26  C   UNL     1      -7.117  -2.684 -34.308  1.00  0.00     0.025 C 
HETATM   27  C   UNL     1      -6.379  -3.687 -35.194  1.00  0.00     0.002 C 
HETATM   28  C   UNL     1      -5.040  -4.101 -34.588  1.00  0.00     0.000 C 
HETATM   29  C   UNL     1      -4.166  -2.891 -34.266  1.00  0.00     0.002 C 
HETATM   30  C   UNL     1      -4.897  -1.887 -33.377  1.00  0.00     0.025 C 
ENDBRANCH  21  25
ENDBRANCH  18  19
ENDBRANCH  17  18
ENDBRANCH  16  17
ENDBRANCH  13  16
ENDBRANCH  10  12
ENDBRANCH   2  10
TORSDOF 7
ENDMDL
MODEL 7
REMARK VINA RESULT:      -6.9      2.543      7.450
REMARK  7 active torsions:
REMARK  status: ('A' for Active; 'I' for Inactive)
REMARK    1  A    between atoms: C_2  and  N_3 
REMARK    2  A    between atoms: N_3  and  N_4 
REMARK       I    between atoms: N_4  and  C_5 
REMARK    3  A    between atoms: C_5  and  C_6 
REMARK    4  A    between atoms: C_6  and  C_7 
REMARK    5  A    between atoms: C_7  and  C_8 
REMARK    6  A    between atoms: C_8  and  N_9 
REMARK       I    between atoms: N_9  and  C_10 
REMARK       I    between atoms: C_10  and  N_11 
REMARK    7  A    between atoms: N_11  and  C_12 
ROOT
HETATM    1  C   UNL     1      -7.046  -2.073 -34.287  1.00  0.00     0.068 A 
HETATM    2  C   UNL     1      -6.933  -0.797 -33.745  1.00  0.00     0.124 A 
HETATM    3  N   UNL     1      -5.742  -0.278 -33.396  1.00  0.00    -0.223 NA
HETATM    4  C   UNL     1      -4.648  -1.046 -33.563  1.00  0.00     0.129 A 
HETATM    5 CL   UNL     1      -3.176  -0.305 -33.092  1.00  0.00    -0.062 Cl
HETATM    6  C   UNL     1      -4.660  -2.326 -34.073  1.00  0.00     0.067 A 
HETATM    7  C   UNL     1      -5.894  -2.846 -34.444  1.00  0.00     0.051 A 
HETATM    8  C   UNL     1      -5.985  -4.166 -34.989  1.00  0.00     0.099 C 
HETATM    9  N   UNL     1      -6.055  -5.236 -35.428  1.00  0.00    -0.191 NA
ENDROOT
BRANCH   2  10
HETATM   10  N   UNL     1      -8.052   0.050 -33.610  1.00  0.00    -0.186 NA
HETATM   11  H   UNL     1      -8.766  -0.343 -34.241  1.00  0.00     0.154 HD
BRANCH  10  12
HETATM   12  N   UNL     1      -7.780   1.407 -33.906  1.00  0.00    -0.286 N 
HETATM   13  C   UNL     1      -8.870   2.262 -33.880  1.00  0.00     0.232 C 
HETATM   14  O   UNL     1     -10.034   1.873 -33.832  1.00  0.00    -0.272 OA
HETATM   15  H   UNL     1      -6.884   1.743 -33.562  1.00  0.00     0.184 HD
BRANCH  13  16
HETATM   16  C   UNL     1      -8.508   3.731 -33.868  1.00  0.00     0.106 C 
BRANCH  16  17
HETATM   17  C   UNL     1      -7.137   3.984 -33.249  1.00  0.00     0.029 C 
BRANCH  17  18
HETATM   18  C   UNL     1      -6.714   5.438 -33.440  1.00  0.00     0.125 C 
BRANCH  18  19
HETATM   19  N   UNL     1      -5.275   5.572 -33.522  1.00  0.00    -0.343 N 
HETATM   20  C   UNL     1      -4.500   5.636 -32.389  1.00  0.00     0.316 C 
HETATM   21  N   UNL     1      -3.172   5.734 -32.717  1.00  0.00    -0.339 N 
HETATM   22  O   UNL     1      -4.952   5.610 -31.255  1.00  0.00    -0.248 OA
HETATM   23  H   UNL     1      -3.001   6.127 -33.630  1.00  0.00     0.164 HD
HETATM   24  H   UNL     1      -4.819   5.234 -34.356  1.00  0.00     0.164 HD
BRANCH  21  25
HETATM   25  C   UNL     1      -2.103   5.922 -31.743  1.00  0.00     0.086 C 
HETATM   26  C   UNL     1      -1.877   7.390 -31.359  1.00  0.00     0.025 C 
HETATM   27  C   UNL     1      -0.798   7.519 -30.285  1.00  0.00     0.002 C 
HETATM   28  C   UNL     1       0.504   6.841 -30.707  1.00  0.00     0.000 C 
HETATM   29  C   UNL     1       0.281   5.383 -31.102  1.00  0.00     0.002 C 
HETATM   30  C   UNL     1      -0.794   5.249 -32.179  1.00  0.00     0.025 C 
ENDBRANCH  21  25
ENDBRANCH  18  19
ENDBRANCH  17  18
ENDBRANCH  16  17
ENDBRANCH  13  16
ENDBRANCH  10  12
ENDBRANCH   2  10
TORSDOF 7
ENDMDL
MODEL 8
REMARK VINA RESULT:      -6.9     16.406     17.817
REMARK  7 active torsions:
REMARK  status: ('A' for Active; 'I' for Inactive)
REMARK    1  A    between atoms: C_2  and  N_3 
REMARK    2  A    between atoms: N_3  and  N_4 
REMARK       I    between atoms: N_4  and  C_5 
REMARK    3  A    between atoms: C_5  and  C_6 
REMARK    4  A    between atoms: C_6  and  C_7 
REMARK    5  A    between atoms: C_7  and  C_8 
REMARK    6  A    between atoms: C_8  and  N_9 
REMARK       I    between atoms: N_9  and  C_10 
REMARK       I    between atoms: C_10  and  N_11 
REMARK    7  A    between atoms: N_11  and  C_12 
ROOT
HETATM    1  C   UNL     1      -0.776 -14.490 -40.254  1.00  0.00     0.068 A 
HETATM    2  C   UNL     1      -2.081 -14.193 -39.874  1.00  0.00     0.124 A 
HETATM    3  N   UNL     1      -2.446 -14.136 -38.581  1.00  0.00    -0.223 NA
HETATM    4  C   UNL     1      -1.510 -14.403 -37.650  1.00  0.00     0.129 A 
HETATM    5 CL   UNL     1      -2.064 -14.307 -36.031  1.00  0.00    -0.062 Cl
HETATM    6  C   UNL     1      -0.199 -14.725 -37.928  1.00  0.00     0.067 A 
HETATM    7  C   UNL     1       0.170 -14.766 -39.266  1.00  0.00     0.051 A 
HETATM    8  C   UNL     1       1.517 -15.085 -39.632  1.00  0.00     0.099 C 
HETATM    9  N   UNL     1       2.607 -15.346 -39.925  1.00  0.00    -0.191 NA
ENDROOT
BRANCH   2  10
HETATM   10  N   UNL     1      -3.069 -13.856 -40.822  1.00  0.00    -0.186 NA
HETATM   11  H   UNL     1      -2.548 -13.582 -41.669  1.00  0.00     0.154 HD
BRANCH  10  12
HETATM   12  N   UNL     1      -3.947 -12.832 -40.393  1.00  0.00    -0.286 N 
HETATM   13  C   UNL     1      -5.234 -12.885 -40.904  1.00  0.00     0.232 C 
HETATM   14  O   UNL     1      -5.562 -13.615 -41.836  1.00  0.00    -0.272 OA
HETATM   15  H   UNL     1      -3.812 -12.537 -39.429  1.00  0.00     0.184 HD
BRANCH  13  16
HETATM   16  C   UNL     1      -6.225 -11.997 -40.184  1.00  0.00     0.106 C 
BRANCH  16  17
HETATM   17  C   UNL     1      -7.670 -12.387 -40.476  1.00  0.00     0.029 C 
BRANCH  17  18
HETATM   18  C   UNL     1      -8.444 -12.618 -39.181  1.00  0.00     0.125 C 
BRANCH  18  19
HETATM   19  N   UNL     1      -7.597 -12.466 -38.016  1.00  0.00    -0.343 N 
HETATM   20  C   UNL     1      -7.512 -13.453 -37.064  1.00  0.00     0.316 C 
HETATM   21  N   UNL     1      -6.632 -13.096 -36.074  1.00  0.00    -0.339 N 
HETATM   22  O   UNL     1      -8.144 -14.498 -37.110  1.00  0.00    -0.248 OA
HETATM   23  H   UNL     1      -6.508 -12.100 -35.974  1.00  0.00     0.164 HD
HETATM   24  H   UNL     1      -6.803 -11.849 -38.090  1.00  0.00     0.164 HD
BRANCH  21  25
HETATM   25  C   UNL     1      -6.397 -13.882 -34.869  1.00  0.00     0.086 C 
HETATM   26  C   UNL     1      -5.774 -13.073 -33.724  1.00  0.00     0.025 C 
HETATM   27  C   UNL     1      -5.618 -13.928 -32.467  1.00  0.00     0.002 C 
HETATM   28  C   UNL     1      -4.832 -15.207 -32.746  1.00  0.00     0.000 C 
HETATM   29  C   UNL     1      -5.442 -16.008 -33.894  1.00  0.00     0.002 C 
HETATM   30  C   UNL     1      -5.596 -15.159 -35.154  1.00  0.00     0.025 C 
ENDBRANCH  21  25
ENDBRANCH  18  19
ENDBRANCH  17  18
ENDBRANCH  16  17
ENDBRANCH  13  16
ENDBRANCH  10  12
ENDBRANCH   2  10
TORSDOF 7
ENDMDL
MODEL 9
REMARK VINA RESULT:      -6.8     16.368     18.283
REMARK  7 active torsions:
REMARK  status: ('A' for Active; 'I' for Inactive)
REMARK    1  A    between atoms: C_2  and  N_3 
REMARK    2  A    between atoms: N_3  and  N_4 
REMARK       I    between atoms: N_4  and  C_5 
REMARK    3  A    between atoms: C_5  and  C_6 
REMARK    4  A    between atoms: C_6  and  C_7 
REMARK    5  A    between atoms: C_7  and  C_8 
REMARK    6  A    between atoms: C_8  and  N_9 
REMARK       I    between atoms: N_9  and  C_10 
REMARK       I    between atoms: C_10  and  N_11 
REMARK    7  A    between atoms: N_11  and  C_12 
ROOT
HETATM    1  C   UNL     1      -4.357 -16.129 -32.894  1.00  0.00     0.068 A 
HETATM    2  C   UNL     1      -4.485 -15.838 -34.248  1.00  0.00     0.124 A 
HETATM    3  N   UNL     1      -5.321 -14.882 -34.692  1.00  0.00    -0.223 NA
HETATM    4  C   UNL     1      -6.063 -14.223 -33.781  1.00  0.00     0.129 A 
HETATM    5 CL   UNL     1      -7.100 -13.025 -34.435  1.00  0.00    -0.062 Cl
HETATM    6  C   UNL     1      -6.020 -14.452 -32.423  1.00  0.00     0.067 A 
HETATM    7  C   UNL     1      -5.141 -15.431 -31.975  1.00  0.00     0.051 A 
HETATM    8  C   UNL     1      -5.037 -15.719 -30.577  1.00  0.00     0.099 C 
HETATM    9  N   UNL     1      -4.956 -15.952 -29.445  1.00  0.00    -0.191 NA
ENDROOT
BRANCH   2  10
HETATM   10  N   UNL     1      -3.683 -16.472 -35.220  1.00  0.00    -0.186 NA
HETATM   11  H   UNL     1      -3.563 -17.439 -34.881  1.00  0.00     0.154 HD
BRANCH  10  12
HETATM   12  N   UNL     1      -2.438 -15.835 -35.438  1.00  0.00    -0.286 N 
HETATM   13  C   UNL     1      -2.275 -15.236 -36.677  1.00  0.00     0.232 C 
HETATM   14  O   UNL     1      -3.038 -15.417 -37.622  1.00  0.00    -0.272 OA
HETATM   15  H   UNL     1      -2.046 -15.380 -34.617  1.00  0.00     0.184 HD
BRANCH  13  16
HETATM   16  C   UNL     1      -1.095 -14.293 -36.760  1.00  0.00     0.106 C 
BRANCH  16  17
HETATM   17  C   UNL     1      -0.886 -13.749 -38.170  1.00  0.00     0.029 C 
BRANCH  17  18
HETATM   18  C   UNL     1      -1.557 -12.388 -38.333  1.00  0.00     0.125 C 
BRANCH  18  19
HETATM   19  N   UNL     1      -2.779 -12.482 -39.103  1.00  0.00    -0.343 N 
HETATM   20  C   UNL     1      -4.008 -12.326 -38.509  1.00  0.00     0.316 C 
HETATM   21  N   UNL     1      -5.012 -12.431 -39.438  1.00  0.00    -0.339 N 
HETATM   22  O   UNL     1      -4.165 -12.127 -37.314  1.00  0.00    -0.248 OA
HETATM   23  H   UNL     1      -4.761 -12.965 -40.256  1.00  0.00     0.164 HD
HETATM   24  H   UNL     1      -2.731 -12.273 -40.088  1.00  0.00     0.164 HD
BRANCH  21  25
HETATM   25  C   UNL     1      -6.432 -12.414 -39.111  1.00  0.00     0.086 C 
HETATM   26  C   UNL     1      -6.851 -13.533 -38.149  1.00  0.00     0.025 C 
HETATM   27  C   UNL     1      -8.331 -13.423 -37.786  1.00  0.00     0.002 C 
HETATM   28  C   UNL     1      -9.218 -13.388 -39.029  1.00  0.00     0.000 C 
HETATM   29  C   UNL     1      -8.796 -12.283 -39.995  1.00  0.00     0.002 C 
HETATM   30  C   UNL     1      -7.317 -12.391 -40.364  1.00  0.00     0.025 C 
ENDBRANCH  21  25
ENDBRANCH  18  19
ENDBRANCH  17  18
ENDBRANCH  16  17
ENDBRANCH  13  16
ENDBRANCH  10  12
ENDBRANCH   2  10
TORSDOF 7
ENDMDL
MODEL 10
REMARK VINA RESULT:      -6.8      3.028      7.061
REMARK  7 active torsions:
REMARK  status: ('A' for Active; 'I' for Inactive)
REMARK    1  A    between atoms: C_2  and  N_3 
REMARK    2  A    between atoms: N_3  and  N_4 
REMARK       I    between atoms: N_4  and  C_5 
REMARK    3  A    between atoms: C_5  and  C_6 
REMARK    4  A    between atoms: C_6  and  C_7 
REMARK    5  A    between atoms: C_7  and  C_8 
REMARK    6  A    between atoms: C_8  and  N_9 
REMARK       I    between atoms: N_9  and  C_10 
REMARK       I    between atoms: C_10  and  N_11 
REMARK    7  A    between atoms: N_11  and  C_12 
ROOT
HETATM    1  C   UNL     1      -5.669  -0.594 -33.634  1.00  0.00     0.068 A 
HETATM    2  C   UNL     1      -6.756  -0.946 -34.426  1.00  0.00     0.124 A 
HETATM    3  N   UNL     1      -6.869  -2.170 -34.972  1.00  0.00    -0.223 NA
HETATM    4  C   UNL     1      -5.875  -3.051 -34.751  1.00  0.00     0.129 A 
HETATM    5 CL   UNL     1      -6.102  -4.584 -35.484  1.00  0.00    -0.062 Cl
HETATM    6  C   UNL     1      -4.751  -2.790 -33.997  1.00  0.00     0.067 A 
HETATM    7  C   UNL     1      -4.653  -1.528 -33.426  1.00  0.00     0.051 A 
HETATM    8  C   UNL     1      -3.518  -1.186 -32.624  1.00  0.00     0.099 C 
HETATM    9  N   UNL     1      -2.596  -0.913 -31.977  1.00  0.00    -0.191 NA
ENDROOT
BRANCH   2  10
HETATM   10  N   UNL     1      -7.839  -0.064 -34.631  1.00  0.00    -0.186 NA
HETATM   11  H   UNL     1      -7.717   0.294 -35.590  1.00  0.00     0.154 HD
BRANCH  10  12
HETATM   12  N   UNL     1      -7.907   0.986 -33.684  1.00  0.00    -0.286 N 
HETATM   13  C   UNL     1      -8.841   0.829 -32.673  1.00  0.00     0.232 C 
HETATM   14  O   UNL     1      -9.719  -0.031 -32.691  1.00  0.00    -0.272 OA
HETATM   15  H   UNL     1      -7.011   1.415 -33.463  1.00  0.00     0.184 HD
BRANCH  13  16
HETATM   16  C   UNL     1      -8.665   1.781 -31.511  1.00  0.00     0.106 C 
BRANCH  16  17
HETATM   17  C   UNL     1      -7.198   2.092 -31.234  1.00  0.00     0.029 C 
BRANCH  17  18
HETATM   18  C   UNL     1      -6.889   3.558 -31.525  1.00  0.00     0.125 C 
BRANCH  18  19
HETATM   19  N   UNL     1      -5.702   4.005 -30.827  1.00  0.00    -0.343 N 
HETATM   20  C   UNL     1      -4.739   4.750 -31.464  1.00  0.00     0.316 C 
HETATM   21  N   UNL     1      -3.728   5.076 -30.597  1.00  0.00    -0.339 N 
HETATM   22  O   UNL     1      -4.794   5.064 -32.643  1.00  0.00    -0.248 OA
HETATM   23  H   UNL     1      -3.633   4.443 -29.818  1.00  0.00     0.164 HD
HETATM   24  H   UNL     1      -5.759   4.113 -29.826  1.00  0.00     0.164 HD
BRANCH  21  25
HETATM   25  C   UNL     1      -2.509   5.773 -30.990  1.00  0.00     0.086 C 
HETATM   26  C   UNL     1      -1.383   4.831 -31.436  1.00  0.00     0.025 C 
HETATM   27  C   UNL     1      -0.159   5.618 -31.904  1.00  0.00     0.002 C 
HETATM   28  C   UNL     1       0.320   6.604 -30.841  1.00  0.00     0.000 C 
HETATM   29  C   UNL     1      -0.802   7.535 -30.386  1.00  0.00     0.002 C 
HETATM   30  C   UNL     1      -2.026   6.753 -29.913  1.00  0.00     0.025 C 
ENDBRANCH  21  25
ENDBRANCH  18  19
ENDBRANCH  17  18
ENDBRANCH  16  17
ENDBRANCH  13  16
ENDBRANCH  10  12
ENDBRANCH   2  10
TORSDOF 7
ENDMDL
