MODEL 1
REMARK VINA RESULT:      -7.9      0.000      0.000
REMARK  3 active torsions:
REMARK  status: ('A' for Active; 'I' for Inactive)
REMARK    1  A    between atoms: C_6  and  N_7 
REMARK       I    between atoms: N_7  and  C_8 
REMARK    2  A    between atoms: C_8  and  C_9 
REMARK    3  A    between atoms: C_9  and  C_10 
ROOT
HETATM    1  C   UNL     1      -9.189   2.916 -33.399  1.00  0.00     0.286 C 
HETATM    2  N   UNL     1      -9.789   2.221 -34.622  1.00  0.00    -0.056 N 
HETATM    3  H   UNL     1      -9.623   2.845 -35.423  1.00  0.00     0.278 HD
HETATM    4  H   UNL     1      -9.198   1.395 -34.856  1.00  0.00     0.278 HD
HETATM    5  C   UNL     1     -11.248   1.886 -34.594  1.00  0.00     0.209 C 
HETATM    6  C   UNL     1     -12.042   3.122 -34.115  1.00  0.00     0.115 C 
HETATM    7  N   UNL     1     -11.516   3.649 -32.859  1.00  0.00    -0.353 N 
HETATM    8  C   UNL     1     -10.185   3.720 -32.548  1.00  0.00     0.249 C 
HETATM    9  O   UNL     1      -9.819   4.382 -31.582  1.00  0.00    -0.271 OA
HETATM   10  C   UNL     1     -11.507   0.647 -33.738  1.00  0.00     0.035 C 
HETATM   11  C   UNL     1     -13.003   0.344 -33.667  1.00  0.00     0.002 C 
HETATM   12  C   UNL     1     -13.794   1.546 -33.155  1.00  0.00     0.002 C 
HETATM   13  C   UNL     1     -13.534   2.798 -33.992  1.00  0.00     0.027 C 
HETATM   14  H   UNL     1     -12.096   4.274 -32.302  1.00  0.00     0.163 HD
ENDROOT
BRANCH   1  15
HETATM   15  C   UNL     1      -8.404   1.949 -32.501  1.00  0.00     0.146 C 
BRANCH  15  16
HETATM   16  C   UNL     1      -7.477   1.106 -33.344  1.00  0.00     0.224 C 
HETATM   17  N   UNL     1      -7.353  -0.195 -32.918  1.00  0.00    -0.327 N 
HETATM   18  H   UNL     1      -7.908  -0.491 -32.120  1.00  0.00     0.169 HD
HETATM   19  O   UNL     1      -6.950   1.630 -34.326  1.00  0.00    -0.273 OA
BRANCH  17  20
HETATM   20  C   UNL     1      -6.509  -1.194 -33.455  1.00  0.00     0.036 A 
HETATM   21  C   UNL     1      -6.963  -2.289 -34.193  1.00  0.00     0.053 A 
HETATM   22  C   UNL     1      -6.050  -3.216 -34.705  1.00  0.00     0.036 A 
HETATM   23  C   UNL     1      -4.683  -3.066 -34.489  1.00  0.00     0.024 A 
HETATM   24 CL   UNL     1      -6.626  -4.557 -35.620  1.00  0.00    -0.084 Cl
HETATM   25  C   UNL     1      -4.222  -1.980 -33.750  1.00  0.00     0.004 A 
HETATM   26  C   UNL     1      -5.131  -1.051 -33.235  1.00  0.00     0.029 A 
ENDBRANCH  17  20
ENDBRANCH  15  16
ENDBRANCH   1  15
TORSDOF 3
ENDMDL
MODEL 2
REMARK VINA RESULT:      -7.8      4.302      6.133
REMARK  3 active torsions:
REMARK  status: ('A' for Active; 'I' for Inactive)
REMARK    1  A    between atoms: C_6  and  N_7 
REMARK       I    between atoms: N_7  and  C_8 
REMARK    2  A    between atoms: C_8  and  C_9 
REMARK    3  A    between atoms: C_9  and  C_10 
ROOT
HETATM    1  C   UNL     1      -5.768   2.338 -31.600  1.00  0.00     0.286 C 
HETATM    2  N   UNL     1      -4.296   2.188 -31.209  1.00  0.00    -0.056 N 
HETATM    3  H   UNL     1      -4.283   1.944 -30.210  1.00  0.00     0.278 HD
HETATM    4  H   UNL     1      -3.921   1.325 -31.657  1.00  0.00     0.278 HD
HETATM    5  C   UNL     1      -3.394   3.368 -31.406  1.00  0.00     0.209 C 
HETATM    6  C   UNL     1      -4.078   4.629 -30.831  1.00  0.00     0.115 C 
HETATM    7  N   UNL     1      -5.427   4.802 -31.361  1.00  0.00    -0.353 N 
HETATM    8  C   UNL     1      -6.307   3.777 -31.585  1.00  0.00     0.249 C 
HETATM    9  O   UNL     1      -7.487   4.024 -31.808  1.00  0.00    -0.271 OA
HETATM   10  C   UNL     1      -3.009   3.521 -32.877  1.00  0.00     0.035 C 
HETATM   11  C   UNL     1      -2.136   4.758 -33.079  1.00  0.00     0.002 C 
HETATM   12  C   UNL     1      -2.819   6.018 -32.552  1.00  0.00     0.002 C 
HETATM   13  C   UNL     1      -3.224   5.875 -31.086  1.00  0.00     0.027 C 
HETATM   14  H   UNL     1      -5.877   5.712 -31.285  1.00  0.00     0.163 HD
ENDROOT
BRANCH   1  15
HETATM   15  C   UNL     1      -6.085   1.680 -32.951  1.00  0.00     0.146 C 
BRANCH  15  16
HETATM   16  C   UNL     1      -5.956   0.181 -32.833  1.00  0.00     0.224 C 
HETATM   17  N   UNL     1      -5.739  -0.463 -34.028  1.00  0.00    -0.327 N 
HETATM   18  H   UNL     1      -5.645   0.104 -34.865  1.00  0.00     0.169 HD
HETATM   19  O   UNL     1      -6.025  -0.321 -31.710  1.00  0.00    -0.273 OA
BRANCH  17  20
HETATM   20  C   UNL     1      -5.651  -1.858 -34.245  1.00  0.00     0.036 A 
HETATM   21  C   UNL     1      -4.505  -2.617 -34.002  1.00  0.00     0.053 A 
HETATM   22  C   UNL     1      -4.519  -3.998 -34.225  1.00  0.00     0.036 A 
HETATM   23  C   UNL     1      -5.666  -4.634 -34.689  1.00  0.00     0.024 A 
HETATM   24 CL   UNL     1      -3.099  -4.921 -33.912  1.00  0.00    -0.084 Cl
HETATM   25  C   UNL     1      -6.812  -3.884 -34.939  1.00  0.00     0.004 A 
HETATM   26  C   UNL     1      -6.803  -2.504 -34.719  1.00  0.00     0.029 A 
ENDBRANCH  17  20
ENDBRANCH  15  16
ENDBRANCH   1  15
TORSDOF 3
ENDMDL
MODEL 3
REMARK VINA RESULT:      -7.7      5.179      7.290
REMARK  3 active torsions:
REMARK  status: ('A' for Active; 'I' for Inactive)
REMARK    1  A    between atoms: C_6  and  N_7 
REMARK       I    between atoms: N_7  and  C_8 
REMARK    2  A    between atoms: C_8  and  C_9 
REMARK    3  A    between atoms: C_9  and  C_10 
ROOT
HETATM    1  C   UNL     1      -4.365   4.358 -30.915  1.00  0.00     0.286 C 
HETATM    2  N   UNL     1      -3.061   3.647 -31.282  1.00  0.00    -0.056 N 
HETATM    3  H   UNL     1      -2.625   3.361 -30.396  1.00  0.00     0.278 HD
HETATM    4  H   UNL     1      -3.296   2.733 -31.723  1.00  0.00     0.278 HD
HETATM    5  C   UNL     1      -2.042   4.412 -32.070  1.00  0.00     0.209 C 
HETATM    6  C   UNL     1      -1.846   5.804 -31.427  1.00  0.00     0.115 C 
HETATM    7  N   UNL     1      -3.117   6.498 -31.243  1.00  0.00    -0.353 N 
HETATM    8  C   UNL     1      -4.279   5.891 -30.850  1.00  0.00     0.249 C 
HETATM    9  O   UNL     1      -5.235   6.575 -30.497  1.00  0.00    -0.271 OA
HETATM   10  C   UNL     1      -2.439   4.490 -33.544  1.00  0.00     0.035 C 
HETATM   11  C   UNL     1      -1.425   5.320 -34.331  1.00  0.00     0.002 C 
HETATM   12  C   UNL     1      -1.253   6.713 -33.729  1.00  0.00     0.002 C 
HETATM   13  C   UNL     1      -0.872   6.652 -32.251  1.00  0.00     0.027 C 
HETATM   14  H   UNL     1      -3.114   7.505 -31.091  1.00  0.00     0.163 HD
ENDROOT
BRANCH   1  15
HETATM   15  C   UNL     1      -5.534   3.943 -31.820  1.00  0.00     0.146 C 
BRANCH  15  16
HETATM   16  C   UNL     1      -5.573   2.439 -31.948  1.00  0.00     0.224 C 
HETATM   17  N   UNL     1      -5.672   1.985 -33.242  1.00  0.00    -0.327 N 
HETATM   18  H   UNL     1      -5.671   2.672 -33.990  1.00  0.00     0.169 HD
HETATM   19  O   UNL     1      -5.487   1.767 -30.920  1.00  0.00    -0.273 OA
BRANCH  17  20
HETATM   20  C   UNL     1      -5.803   0.644 -33.671  1.00  0.00     0.036 A 
HETATM   21  C   UNL     1      -4.893  -0.369 -33.361  1.00  0.00     0.053 A 
HETATM   22  C   UNL     1      -5.117  -1.674 -33.810  1.00  0.00     0.036 A 
HETATM   23  C   UNL     1      -6.242  -1.984 -34.570  1.00  0.00     0.024 A 
HETATM   24 CL   UNL     1      -3.989  -2.913 -33.412  1.00  0.00    -0.084 Cl
HETATM   25  C   UNL     1      -7.151  -0.979 -34.888  1.00  0.00     0.004 A 
HETATM   26  C   UNL     1      -6.931   0.327 -34.442  1.00  0.00     0.029 A 
ENDBRANCH  17  20
ENDBRANCH  15  16
ENDBRANCH   1  15
TORSDOF 3
ENDMDL
MODEL 4
REMARK VINA RESULT:      -7.6      2.728      3.293
REMARK  3 active torsions:
REMARK  status: ('A' for Active; 'I' for Inactive)
REMARK    1  A    between atoms: C_6  and  N_7 
REMARK       I    between atoms: N_7  and  C_8 
REMARK    2  A    between atoms: C_8  and  C_9 
REMARK    3  A    between atoms: C_9  and  C_10 
ROOT
HETATM    1  C   UNL     1      -7.020   2.488 -33.900  1.00  0.00     0.286 C 
HETATM    2  N   UNL     1      -8.376   1.874 -33.547  1.00  0.00    -0.056 N 
HETATM    3  H   UNL     1      -8.844   1.668 -34.439  1.00  0.00     0.278 HD
HETATM    4  H   UNL     1      -8.216   0.923 -33.152  1.00  0.00     0.278 HD
HETATM    5  C   UNL     1      -9.317   2.685 -32.710  1.00  0.00     0.209 C 
HETATM    6  C   UNL     1      -9.400   4.116 -33.285  1.00  0.00     0.115 C 
HETATM    7  N   UNL     1      -8.076   4.708 -33.455  1.00  0.00    -0.353 N 
HETATM    8  C   UNL     1      -6.975   4.024 -33.893  1.00  0.00     0.249 C 
HETATM    9  O   UNL     1      -5.967   4.640 -34.227  1.00  0.00    -0.271 OA
HETATM   10  C   UNL     1      -8.900   2.659 -31.240  1.00  0.00     0.035 C 
HETATM   11  C   UNL     1      -9.831   3.533 -30.401  1.00  0.00     0.002 C 
HETATM   12  C   UNL     1      -9.889   4.963 -30.935  1.00  0.00     0.002 C 
HETATM   13  C   UNL     1     -10.290   5.004 -32.409  1.00  0.00     0.027 C 
HETATM   14  H   UNL     1      -7.995   5.718 -33.560  1.00  0.00     0.163 HD
ENDROOT
BRANCH   1  15
HETATM   15  C   UNL     1      -5.881   1.932 -33.032  1.00  0.00     0.146 C 
BRANCH  15  16
HETATM   16  C   UNL     1      -6.009   0.432 -32.919  1.00  0.00     0.224 C 
HETATM   17  N   UNL     1      -5.466  -0.262 -33.974  1.00  0.00    -0.327 N 
HETATM   18  H   UNL     1      -4.999   0.268 -34.704  1.00  0.00     0.169 HD
HETATM   19  O   UNL     1      -6.547  -0.030 -31.912  1.00  0.00    -0.273 OA
BRANCH  17  20
HETATM   20  C   UNL     1      -5.496  -1.660 -34.185  1.00  0.00     0.036 A 
HETATM   21  C   UNL     1      -4.408  -2.508 -33.973  1.00  0.00     0.053 A 
HETATM   22  C   UNL     1      -4.539  -3.884 -34.186  1.00  0.00     0.036 A 
HETATM   23  C   UNL     1      -5.747  -4.428 -34.612  1.00  0.00     0.024 A 
HETATM   24 CL   UNL     1      -3.189  -4.917 -33.912  1.00  0.00    -0.084 Cl
HETATM   25  C   UNL     1      -6.836  -3.589 -34.831  1.00  0.00     0.004 A 
HETATM   26  C   UNL     1      -6.710  -2.213 -34.620  1.00  0.00     0.029 A 
ENDBRANCH  17  20
ENDBRANCH  15  16
ENDBRANCH   1  15
TORSDOF 3
ENDMDL
MODEL 5
REMARK VINA RESULT:      -7.6      2.396      6.837
REMARK  3 active torsions:
REMARK  status: ('A' for Active; 'I' for Inactive)
REMARK    1  A    between atoms: C_6  and  N_7 
REMARK       I    between atoms: N_7  and  C_8 
REMARK    2  A    between atoms: C_8  and  C_9 
REMARK    3  A    between atoms: C_9  and  C_10 
ROOT
HETATM    1  C   UNL     1      -6.125   1.853 -32.036  1.00  0.00     0.286 C 
HETATM    2  N   UNL     1      -6.857   0.537 -31.765  1.00  0.00    -0.056 N 
HETATM    3  H   UNL     1      -6.880   0.420 -30.743  1.00  0.00     0.278 HD
HETATM    4  H   UNL     1      -7.865   0.665 -31.999  1.00  0.00     0.278 HD
HETATM    5  C   UNL     1      -6.291  -0.716 -32.358  1.00  0.00     0.209 C 
HETATM    6  C   UNL     1      -4.772  -0.767 -32.079  1.00  0.00     0.115 C 
HETATM    7  N   UNL     1      -4.103   0.460 -32.501  1.00  0.00    -0.353 N 
HETATM    8  C   UNL     1      -4.628   1.716 -32.355  1.00  0.00     0.249 C 
HETATM    9  O   UNL     1      -3.913   2.699 -32.520  1.00  0.00    -0.271 OA
HETATM   10  C   UNL     1      -6.623  -0.814 -33.847  1.00  0.00     0.035 C 
HETATM   11  C   UNL     1      -5.995  -2.065 -34.458  1.00  0.00     0.002 C 
HETATM   12  C   UNL     1      -4.486  -2.106 -34.225  1.00  0.00     0.002 C 
HETATM   13  C   UNL     1      -4.137  -1.994 -32.741  1.00  0.00     0.027 C 
HETATM   14  H   UNL     1      -3.093   0.455 -32.628  1.00  0.00     0.163 HD
ENDROOT
BRANCH   1  15
HETATM   15  C   UNL     1      -6.812   2.692 -33.123  1.00  0.00     0.146 C 
BRANCH  15  16
HETATM   16  C   UNL     1      -8.310   2.610 -32.963  1.00  0.00     0.224 C 
HETATM   17  N   UNL     1      -8.972   2.147 -34.075  1.00  0.00    -0.327 N 
HETATM   18  H   UNL     1      -8.417   1.865 -34.878  1.00  0.00     0.169 HD
HETATM   19  O   UNL     1      -8.796   2.928 -31.877  1.00  0.00    -0.273 OA
BRANCH  17  20
HETATM   20  C   UNL     1     -10.370   2.030 -34.253  1.00  0.00     0.036 A 
HETATM   21  C   UNL     1     -11.122   0.925 -33.848  1.00  0.00     0.053 A 
HETATM   22  C   UNL     1     -12.506   0.909 -34.044  1.00  0.00     0.036 A 
HETATM   23  C   UNL     1     -13.154   1.986 -34.642  1.00  0.00     0.024 A 
HETATM   24 CL   UNL     1     -13.419  -0.459 -33.533  1.00  0.00    -0.084 Cl
HETATM   25  C   UNL     1     -12.413   3.090 -35.053  1.00  0.00     0.004 A 
HETATM   26  C   UNL     1     -11.028   3.110 -34.860  1.00  0.00     0.029 A 
ENDBRANCH  17  20
ENDBRANCH  15  16
ENDBRANCH   1  15
TORSDOF 3
ENDMDL
MODEL 6
REMARK VINA RESULT:      -7.4      2.012      2.428
REMARK  3 active torsions:
REMARK  status: ('A' for Active; 'I' for Inactive)
REMARK    1  A    between atoms: C_6  and  N_7 
REMARK       I    between atoms: N_7  and  C_8 
REMARK    2  A    between atoms: C_8  and  C_9 
REMARK    3  A    between atoms: C_9  and  C_10 
ROOT
HETATM    1  C   UNL     1      -9.711   2.162 -34.059  1.00  0.00     0.286 C 
HETATM    2  N   UNL     1     -10.716   2.571 -35.137  1.00  0.00    -0.056 N 
HETATM    3  H   UNL     1     -10.470   3.530 -35.417  1.00  0.00     0.278 HD
HETATM    4  H   UNL     1     -10.513   2.025 -36.002  1.00  0.00     0.278 HD
HETATM    5  C   UNL     1     -12.171   2.554 -34.783  1.00  0.00     0.209 C 
HETATM    6  C   UNL     1     -12.370   3.268 -33.427  1.00  0.00     0.115 C 
HETATM    7  N   UNL     1     -11.488   2.728 -32.397  1.00  0.00    -0.353 N 
HETATM    8  C   UNL     1     -10.191   2.349 -32.611  1.00  0.00     0.249 C 
HETATM    9  O   UNL     1      -9.454   2.127 -31.655  1.00  0.00    -0.271 OA
HETATM   10  C   UNL     1     -12.717   1.126 -34.786  1.00  0.00     0.035 C 
HETATM   11  C   UNL     1     -14.186   1.110 -34.369  1.00  0.00     0.002 C 
HETATM   12  C   UNL     1     -14.391   1.778 -33.010  1.00  0.00     0.002 C 
HETATM   13  C   UNL     1     -13.836   3.202 -32.986  1.00  0.00     0.027 C 
HETATM   14  H   UNL     1     -11.701   2.910 -31.417  1.00  0.00     0.163 HD
ENDROOT
BRANCH   1  15
HETATM   15  C   UNL     1      -9.194   0.729 -34.252  1.00  0.00     0.146 C 
BRANCH  15  16
HETATM   16  C   UNL     1      -7.699   0.692 -34.047  1.00  0.00     0.224 C 
HETATM   17  N   UNL     1      -7.308   0.151 -32.845  1.00  0.00    -0.327 N 
HETATM   18  H   UNL     1      -8.029  -0.207 -32.225  1.00  0.00     0.169 HD
HETATM   19  O   UNL     1      -6.979   1.109 -34.954  1.00  0.00    -0.273 OA
BRANCH  17  20
HETATM   20  C   UNL     1      -5.990   0.050 -32.340  1.00  0.00     0.036 A 
HETATM   21  C   UNL     1      -5.232  -1.122 -32.361  1.00  0.00     0.053 A 
HETATM   22  C   UNL     1      -3.927  -1.121 -31.860  1.00  0.00     0.036 A 
HETATM   23  C   UNL     1      -3.365   0.040 -31.334  1.00  0.00     0.024 A 
HETATM   24 CL   UNL     1      -3.002  -2.573 -31.900  1.00  0.00    -0.084 Cl
HETATM   25  C   UNL     1      -4.116   1.211 -31.305  1.00  0.00     0.004 A 
HETATM   26  C   UNL     1      -5.421   1.215 -31.804  1.00  0.00     0.029 A 
ENDBRANCH  17  20
ENDBRANCH  15  16
ENDBRANCH   1  15
TORSDOF 3
ENDMDL
MODEL 7
REMARK VINA RESULT:      -7.4      5.979      7.767
REMARK  3 active torsions:
REMARK  status: ('A' for Active; 'I' for Inactive)
REMARK    1  A    between atoms: C_6  and  N_7 
REMARK       I    between atoms: N_7  and  C_8 
REMARK    2  A    between atoms: C_8  and  C_9 
REMARK    3  A    between atoms: C_9  and  C_10 
ROOT
HETATM    1  C   UNL     1      -5.381   2.231 -31.764  1.00  0.00     0.286 C 
HETATM    2  N   UNL     1      -6.849   1.802 -31.791  1.00  0.00    -0.056 N 
HETATM    3  H   UNL     1      -7.079   1.488 -30.839  1.00  0.00     0.278 HD
HETATM    4  H   UNL     1      -7.440   2.653 -31.896  1.00  0.00     0.278 HD
HETATM    5  C   UNL     1      -7.244   0.714 -32.742  1.00  0.00     0.209 C 
HETATM    6  C   UNL     1      -6.244  -0.456 -32.617  1.00  0.00     0.115 C 
HETATM    7  N   UNL     1      -4.862  -0.004 -32.753  1.00  0.00    -0.353 N 
HETATM    8  C   UNL     1      -4.378   1.166 -32.234  1.00  0.00     0.249 C 
HETATM    9  O   UNL     1      -3.167   1.359 -32.193  1.00  0.00    -0.271 OA
HETATM   10  C   UNL     1      -7.354   1.250 -34.169  1.00  0.00     0.035 C 
HETATM   11  C   UNL     1      -7.702   0.125 -35.142  1.00  0.00     0.002 C 
HETATM   12  C   UNL     1      -6.696  -1.021 -35.057  1.00  0.00     0.002 C 
HETATM   13  C   UNL     1      -6.564  -1.558 -33.633  1.00  0.00     0.027 C 
HETATM   14  H   UNL     1      -4.136  -0.687 -32.963  1.00  0.00     0.163 HD
ENDROOT
BRANCH   1  15
HETATM   15  C   UNL     1      -5.139   3.542 -32.526  1.00  0.00     0.146 C 
BRANCH  15  16
HETATM   16  C   UNL     1      -4.152   4.399 -31.772  1.00  0.00     0.224 C 
HETATM   17  N   UNL     1      -2.927   4.522 -32.385  1.00  0.00    -0.327 N 
HETATM   18  H   UNL     1      -2.799   4.076 -33.288  1.00  0.00     0.169 HD
HETATM   19  O   UNL     1      -4.522   4.920 -30.720  1.00  0.00    -0.273 OA
BRANCH  17  20
HETATM   20  C   UNL     1      -1.785   5.193 -31.889  1.00  0.00     0.036 A 
HETATM   21  C   UNL     1      -0.979   4.708 -30.857  1.00  0.00     0.053 A 
HETATM   22  C   UNL     1       0.145   5.431 -30.447  1.00  0.00     0.036 A 
HETATM   23  C   UNL     1       0.479   6.637 -31.057  1.00  0.00     0.024 A 
HETATM   24 CL   UNL     1       1.133   4.815 -29.178  1.00  0.00    -0.084 Cl
HETATM   25  C   UNL     1      -0.322   7.130 -32.083  1.00  0.00     0.004 A 
HETATM   26  C   UNL     1      -1.448   6.411 -32.495  1.00  0.00     0.029 A 
ENDBRANCH  17  20
ENDBRANCH  15  16
ENDBRANCH   1  15
TORSDOF 3
ENDMDL
MODEL 8
REMARK VINA RESULT:      -7.3     14.832     17.543
REMARK  3 active torsions:
REMARK  status: ('A' for Active; 'I' for Inactive)
REMARK    1  A    between atoms: C_6  and  N_7 
REMARK       I    between atoms: N_7  and  C_8 
REMARK    2  A    between atoms: C_8  and  C_9 
REMARK    3  A    between atoms: C_9  and  C_10 
ROOT
HETATM    1  C   UNL     1      -4.037 -13.934 -39.236  1.00  0.00     0.286 C 
HETATM    2  N   UNL     1      -3.389 -15.283 -39.553  1.00  0.00    -0.056 N 
HETATM    3  H   UNL     1      -3.884 -15.985 -38.986  1.00  0.00     0.278 HD
HETATM    4  H   UNL     1      -3.650 -15.554 -40.525  1.00  0.00     0.278 HD
HETATM    5  C   UNL     1      -1.921 -15.435 -39.295  1.00  0.00     0.209 C 
HETATM    6  C   UNL     1      -1.596 -14.891 -37.886  1.00  0.00     0.115 C 
HETATM    7  N   UNL     1      -2.109 -13.537 -37.697  1.00  0.00    -0.353 N 
HETATM    8  C   UNL     1      -3.313 -13.094 -38.171  1.00  0.00     0.249 C 
HETATM    9  O   UNL     1      -3.769 -12.026 -37.775  1.00  0.00    -0.271 OA
HETATM   10  C   UNL     1      -1.102 -14.760 -40.395  1.00  0.00     0.035 C 
HETATM   11  C   UNL     1       0.392 -14.869 -40.097  1.00  0.00     0.002 C 
HETATM   12  C   UNL     1       0.733 -14.296 -38.722  1.00  0.00     0.002 C 
HETATM   13  C   UNL     1      -0.090 -14.951 -37.613  1.00  0.00     0.027 C 
HETATM   14  H   UNL     1      -1.738 -12.969 -36.937  1.00  0.00     0.163 HD
ENDROOT
BRANCH   1  15
HETATM   15  C   UNL     1      -4.271 -13.085 -40.494  1.00  0.00     0.146 C 
BRANCH  15  16
HETATM   16  C   UNL     1      -5.725 -13.154 -40.895  1.00  0.00     0.224 C 
HETATM   17  N   UNL     1      -6.606 -13.029 -39.847  1.00  0.00    -0.327 N 
HETATM   18  H   UNL     1      -6.224 -12.863 -38.920  1.00  0.00     0.169 HD
HETATM   19  O   UNL     1      -5.991 -13.285 -42.090  1.00  0.00    -0.273 OA
BRANCH  17  20
HETATM   20  C   UNL     1      -8.016 -13.126 -39.898  1.00  0.00     0.036 A 
HETATM   21  C   UNL     1      -8.864 -12.055 -40.183  1.00  0.00     0.053 A 
HETATM   22  C   UNL     1     -10.248 -12.251 -40.235  1.00  0.00     0.036 A 
HETATM   23  C   UNL     1     -10.799 -13.509 -40.003  1.00  0.00     0.024 A 
HETATM   24 CL   UNL     1     -11.280 -10.921 -40.596  1.00  0.00    -0.084 Cl
HETATM   25  C   UNL     1      -9.960 -14.581 -39.713  1.00  0.00     0.004 A 
HETATM   26  C   UNL     1      -8.577 -14.389 -39.659  1.00  0.00     0.029 A 
ENDBRANCH  17  20
ENDBRANCH  15  16
ENDBRANCH   1  15
TORSDOF 3
ENDMDL
MODEL 9
REMARK VINA RESULT:      -7.3      5.254      7.394
REMARK  3 active torsions:
REMARK  status: ('A' for Active; 'I' for Inactive)
REMARK    1  A    between atoms: C_6  and  N_7 
REMARK       I    between atoms: N_7  and  C_8 
REMARK    2  A    between atoms: C_8  and  C_9 
REMARK    3  A    between atoms: C_9  and  C_10 
ROOT
HETATM    1  C   UNL     1      -4.269   4.039 -31.422  1.00  0.00     0.286 C 
HETATM    2  N   UNL     1      -3.650   4.981 -30.388  1.00  0.00    -0.056 N 
HETATM    3  H   UNL     1      -4.431   5.482 -29.943  1.00  0.00     0.278 HD
HETATM    4  H   UNL     1      -3.274   4.408 -29.602  1.00  0.00     0.278 HD
HETATM    5  C   UNL     1      -2.663   6.001 -30.869  1.00  0.00     0.209 C 
HETATM    6  C   UNL     1      -3.240   6.715 -32.111  1.00  0.00     0.115 C 
HETATM    7  N   UNL     1      -3.674   5.763 -33.129  1.00  0.00    -0.353 N 
HETATM    8  C   UNL     1      -4.302   4.577 -32.861  1.00  0.00     0.249 C 
HETATM    9  O   UNL     1      -4.837   3.951 -33.770  1.00  0.00    -0.271 OA
HETATM   10  C   UNL     1      -1.301   5.360 -31.132  1.00  0.00     0.035 C 
HETATM   11  C   UNL     1      -0.316   6.393 -31.676  1.00  0.00     0.002 C 
HETATM   12  C   UNL     1      -0.857   7.078 -32.930  1.00  0.00     0.002 C 
HETATM   13  C   UNL     1      -2.227   7.711 -32.686  1.00  0.00     0.027 C 
HETATM   14  H   UNL     1      -3.814   6.089 -34.085  1.00  0.00     0.163 HD
ENDROOT
BRANCH   1  15
HETATM   15  C   UNL     1      -3.627   2.645 -31.404  1.00  0.00     0.146 C 
BRANCH  15  16
HETATM   16  C   UNL     1      -4.658   1.602 -31.761  1.00  0.00     0.224 C 
HETATM   17  N   UNL     1      -4.354   0.867 -32.882  1.00  0.00    -0.327 N 
HETATM   18  H   UNL     1      -3.468   1.049 -33.346  1.00  0.00     0.169 HD
HETATM   19  O   UNL     1      -5.639   1.481 -31.026  1.00  0.00    -0.273 OA
BRANCH  17  20
HETATM   20  C   UNL     1      -5.153  -0.122 -33.501  1.00  0.00     0.036 A 
HETATM   21  C   UNL     1      -4.761  -1.451 -33.672  1.00  0.00     0.053 A 
HETATM   22  C   UNL     1      -5.630  -2.366 -34.275  1.00  0.00     0.036 A 
HETATM   23  C   UNL     1      -6.891  -1.970 -34.712  1.00  0.00     0.024 A 
HETATM   24 CL   UNL     1      -5.134  -4.003 -34.471  1.00  0.00    -0.084 Cl
HETATM   25  C   UNL     1      -7.288  -0.646 -34.550  1.00  0.00     0.004 A 
HETATM   26  C   UNL     1      -6.423   0.272 -33.949  1.00  0.00     0.029 A 
ENDBRANCH  17  20
ENDBRANCH  15  16
ENDBRANCH   1  15
TORSDOF 3
ENDMDL
MODEL 10
REMARK VINA RESULT:      -7.2      2.972      7.250
REMARK  3 active torsions:
REMARK  status: ('A' for Active; 'I' for Inactive)
REMARK    1  A    between atoms: C_6  and  N_7 
REMARK       I    between atoms: N_7  and  C_8 
REMARK    2  A    between atoms: C_8  and  C_9 
REMARK    3  A    between atoms: C_9  and  C_10 
ROOT
HETATM    1  C   UNL     1      -7.276   1.821 -32.483  1.00  0.00     0.286 C 
HETATM    2  N   UNL     1      -7.608   0.440 -31.915  1.00  0.00    -0.056 N 
HETATM    3  H   UNL     1      -7.423   0.487 -30.905  1.00  0.00     0.278 HD
HETATM    4  H   UNL     1      -8.641   0.308 -31.949  1.00  0.00     0.278 HD
HETATM    5  C   UNL     1      -6.867  -0.741 -32.464  1.00  0.00     0.209 C 
HETATM    6  C   UNL     1      -5.356  -0.417 -32.502  1.00  0.00     0.115 C 
HETATM    7  N   UNL     1      -5.090   0.841 -33.193  1.00  0.00    -0.353 N 
HETATM    8  C   UNL     1      -5.870   1.961 -33.088  1.00  0.00     0.249 C 
HETATM    9  O   UNL     1      -5.455   3.035 -33.511  1.00  0.00    -0.271 OA
HETATM   10  C   UNL     1      -7.421  -1.147 -33.829  1.00  0.00     0.035 C 
HETATM   11  C   UNL     1      -6.624  -2.315 -34.408  1.00  0.00     0.002 C 
HETATM   12  C   UNL     1      -5.134  -1.991 -34.490  1.00  0.00     0.002 C 
HETATM   13  C   UNL     1      -4.568  -1.569 -33.134  1.00  0.00     0.027 C 
HETATM   14  H   UNL     1      -4.147   1.033 -33.526  1.00  0.00     0.163 HD
ENDROOT
BRANCH   1  15
HETATM   15  C   UNL     1      -8.325   2.306 -33.494  1.00  0.00     0.146 C 
BRANCH  15  16
HETATM   16  C   UNL     1      -9.703   2.216 -32.885  1.00  0.00     0.224 C 
HETATM   17  N   UNL     1     -10.692   1.865 -33.774  1.00  0.00    -0.327 N 
HETATM   18  H   UNL     1     -10.422   1.660 -34.731  1.00  0.00     0.169 HD
HETATM   19  O   UNL     1      -9.819   2.430 -31.678  1.00  0.00    -0.273 OA
BRANCH  17  20
HETATM   20  C   UNL     1     -12.080   1.773 -33.518  1.00  0.00     0.036 A 
HETATM   21  C   UNL     1     -12.853   2.819 -33.011  1.00  0.00     0.053 A 
HETATM   22  C   UNL     1     -14.226   2.642 -32.812  1.00  0.00     0.036 A 
HETATM   23  C   UNL     1     -14.840   1.430 -33.112  1.00  0.00     0.024 A 
HETATM   24 CL   UNL     1     -15.168   3.945 -32.194  1.00  0.00    -0.084 Cl
HETATM   25  C   UNL     1     -14.076   0.380 -33.613  1.00  0.00     0.004 A 
HETATM   26  C   UNL     1     -12.703   0.551 -33.813  1.00  0.00     0.029 A 
ENDBRANCH  17  20
ENDBRANCH  15  16
ENDBRANCH   1  15
TORSDOF 3
ENDMDL
