MODEL 1
REMARK VINA RESULT:      -8.9      0.000      0.000
REMARK  10 active torsions:
REMARK  status: ('A' for Active; 'I' for Inactive)
REMARK    1  A    between atoms: C_2  and  C_3 
REMARK    2  A    between atoms: C_3  and  O_4 
REMARK    3  A    between atoms: O_4  and  C_5 
REMARK    4  A    between atoms: C_7  and  C_8 
REMARK       I    between atoms: C_8  and  N_9 
REMARK    5  A    between atoms: N_9  and  C_10 
REMARK    6  A    between atoms: C_10  and  N_11 
REMARK    7  A    between atoms: N_11  and  C_12 
REMARK    8  A    between atoms: C_15  and  N_16 
REMARK    9  A    between atoms: N_19  and  C_21 
REMARK   10  A    between atoms: C_21  and  C_22 
ROOT
HETATM    1  C   UNL     1      -7.983   5.606 -32.613  1.00  0.00     0.034 C 
HETATM    2  C   UNL     1      -8.215   4.839 -31.487  1.00  0.00     0.032 C 
HETATM    3  C   UNL     1      -8.769   3.552 -31.575  1.00  0.00     0.031 C 
HETATM    4  C   UNL     1      -9.043   2.928 -32.797  1.00  0.00     0.030 C 
HETATM    5  C   UNL     1      -8.886   3.747 -33.925  1.00  0.00     0.031 C 
HETATM    6  C   UNL     1      -8.370   5.056 -33.837  1.00  0.00     0.032 C 
ENDROOT
BRANCH   1   7
HETATM    7  N   UNL     1      -7.364   6.874 -32.652  1.00  0.00    -0.333 N 
HETATM    8  H   UNL     1      -7.445   7.350 -33.545  1.00  0.00     0.168 HD
BRANCH   7   9
HETATM    9  C   UNL     1      -6.466   7.514 -31.863  1.00  0.00     0.179 C 
HETATM   10  S   UNL     1      -6.773   9.119 -31.489  1.00  0.00    -0.040 SA
BRANCH   9  11
HETATM   11  N   UNL     1      -5.274   6.995 -31.486  1.00  0.00    -0.299 N 
HETATM   12  C   UNL     1      -4.374   6.398 -32.348  1.00  0.00     0.257 C 
HETATM   13  O   UNL     1      -4.608   6.143 -33.524  1.00  0.00    -0.267 OA
HETATM   14  H   UNL     1      -5.362   6.467 -30.627  1.00  0.00     0.171 HD
BRANCH  12  15
HETATM   15  C   UNL     1      -3.015   6.123 -31.778  1.00  0.00     0.035 A 
HETATM   16  C   UNL     1      -2.628   6.561 -30.502  1.00  0.00     0.053 A 
HETATM   17  C   UNL     1      -1.311   6.374 -30.078  1.00  0.00     0.069 A 
HETATM   18  C   UNL     1      -0.363   5.813 -30.930  1.00  0.00     0.037 A 
HETATM   19  C   UNL     1      -0.741   5.370 -32.194  1.00  0.00     0.004 A 
HETATM   20  C   UNL     1      -2.064   5.518 -32.615  1.00  0.00     0.017 A 
BRANCH  17  21
HETATM   21  O   UNL     1      -0.875   6.819 -28.860  1.00  0.00    -0.351 OA
BRANCH  21  22
HETATM   22  C   UNL     1       0.341   6.192 -28.429  1.00  0.00     0.175 C 
BRANCH  22  23
HETATM   23  C   UNL     1       1.119   7.044 -27.423  1.00  0.00     0.022 C 
HETATM   24  C   UNL     1       1.372   8.458 -27.923  1.00  0.00     0.007 C 
ENDBRANCH  22  23
ENDBRANCH  21  22
ENDBRANCH  17  21
ENDBRANCH  12  15
ENDBRANCH   9  11
ENDBRANCH   7   9
ENDBRANCH   1   7
BRANCH   4  25
HETATM   25  N   UNL     1      -9.468   1.590 -32.876  1.00  0.00    -0.378 N 
HETATM   26  C   UNL     1      -8.916   0.628 -31.890  1.00  0.00     0.150 C 
HETATM   27  C   UNL     1      -7.469   0.240 -32.277  1.00  0.00     0.255 C 
HETATM   28  N   UNL     1      -7.442  -0.349 -33.697  1.00  0.00    -0.064 N 
HETATM   29  H   UNL     1      -7.978  -1.223 -33.662  1.00  0.00     0.280 HD
HETATM   30  C   UNL     1      -8.143   0.570 -34.711  1.00  0.00     0.255 C 
HETATM   31  C   UNL     1      -9.553   0.968 -34.218  1.00  0.00     0.150 C 
BRANCH  28  32
HETATM   32  C   UNL     1      -6.046  -0.689 -34.164  1.00  0.00     0.273 C 
BRANCH  32  33
HETATM   33  C   UNL     1      -5.775  -2.161 -34.326  1.00  0.00    -0.033 A 
HETATM   34  C   UNL     1      -4.512  -2.710 -34.052  1.00  0.00     0.009 A 
HETATM   35  C   UNL     1      -4.288  -4.080 -34.201  1.00  0.00     0.001 A 
HETATM   36  C   UNL     1      -5.325  -4.919 -34.603  1.00  0.00     0.000 A 
HETATM   37  C   UNL     1      -6.589  -4.391 -34.855  1.00  0.00     0.001 A 
HETATM   38  C   UNL     1      -6.813  -3.021 -34.718  1.00  0.00     0.009 A 
ENDBRANCH  32  33
ENDBRANCH  28  32
ENDBRANCH   4  25
TORSDOF 10
ENDMDL
MODEL 2
REMARK VINA RESULT:      -8.8      2.941      9.778
REMARK  10 active torsions:
REMARK  status: ('A' for Active; 'I' for Inactive)
REMARK    1  A    between atoms: C_2  and  C_3 
REMARK    2  A    between atoms: C_3  and  O_4 
REMARK    3  A    between atoms: O_4  and  C_5 
REMARK    4  A    between atoms: C_7  and  C_8 
REMARK       I    between atoms: C_8  and  N_9 
REMARK    5  A    between atoms: N_9  and  C_10 
REMARK    6  A    between atoms: C_10  and  N_11 
REMARK    7  A    between atoms: N_11  and  C_12 
REMARK    8  A    between atoms: C_15  and  N_16 
REMARK    9  A    between atoms: N_19  and  C_21 
REMARK   10  A    between atoms: C_21  and  C_22 
ROOT
HETATM    1  C   UNL     1      -6.401   4.385 -32.747  1.00  0.00     0.034 C 
HETATM    2  C   UNL     1      -6.162   5.260 -31.703  1.00  0.00     0.032 C 
HETATM    3  C   UNL     1      -5.033   6.094 -31.687  1.00  0.00     0.031 C 
HETATM    4  C   UNL     1      -4.126   6.161 -32.752  1.00  0.00     0.030 C 
HETATM    5  C   UNL     1      -4.332   5.209 -33.761  1.00  0.00     0.031 C 
HETATM    6  C   UNL     1      -5.441   4.339 -33.759  1.00  0.00     0.032 C 
ENDROOT
BRANCH   1   7
HETATM    7  N   UNL     1      -7.535   3.560 -32.905  1.00  0.00    -0.333 N 
HETATM    8  H   UNL     1      -8.389   4.063 -33.129  1.00  0.00     0.168 HD
BRANCH   7   9
HETATM    9  C   UNL     1      -7.823   2.274 -32.587  1.00  0.00     0.179 C 
HETATM   10  S   UNL     1      -9.416   1.909 -32.215  1.00  0.00    -0.040 SA
BRANCH   9  11
HETATM   11  N   UNL     1      -6.895   1.306 -32.406  1.00  0.00    -0.299 N 
HETATM   12  C   UNL     1      -6.149   0.738 -33.421  1.00  0.00     0.257 C 
HETATM   13  O   UNL     1      -6.340   0.942 -34.615  1.00  0.00    -0.267 OA
HETATM   14  H   UNL     1      -7.224   0.603 -31.757  1.00  0.00     0.171 HD
BRANCH  12  15
HETATM   15  C   UNL     1      -5.004  -0.124 -32.980  1.00  0.00     0.035 A 
HETATM   16  C   UNL     1      -4.891  -1.474 -33.343  1.00  0.00     0.053 A 
HETATM   17  C   UNL     1      -3.863  -2.250 -32.803  1.00  0.00     0.069 A 
HETATM   18  C   UNL     1      -2.986  -1.714 -31.864  1.00  0.00     0.037 A 
HETATM   19  C   UNL     1      -3.088  -0.373 -31.506  1.00  0.00     0.004 A 
HETATM   20  C   UNL     1      -4.089   0.422 -32.066  1.00  0.00     0.017 A 
BRANCH  17  21
HETATM   21  O   UNL     1      -3.735  -3.581 -33.093  1.00  0.00    -0.351 OA
BRANCH  21  22
HETATM   22  C   UNL     1      -4.104  -3.905 -34.441  1.00  0.00     0.175 C 
BRANCH  22  23
HETATM   23  C   UNL     1      -5.214  -4.957 -34.511  1.00  0.00     0.022 C 
HETATM   24  C   UNL     1      -6.520  -4.398 -35.056  1.00  0.00     0.007 C 
ENDBRANCH  22  23
ENDBRANCH  21  22
ENDBRANCH  17  21
ENDBRANCH  12  15
ENDBRANCH   9  11
ENDBRANCH   7   9
ENDBRANCH   1   7
BRANCH   4  25
HETATM   25  N   UNL     1      -3.077   7.097 -32.784  1.00  0.00    -0.378 N 
HETATM   26  C   UNL     1      -1.759   6.644 -33.293  1.00  0.00     0.150 C 
HETATM   27  C   UNL     1      -1.035   5.800 -32.217  1.00  0.00     0.255 C 
HETATM   28  N   UNL     1      -0.877   6.616 -30.924  1.00  0.00    -0.064 N 
HETATM   29  H   UNL     1      -0.253   7.400 -31.146  1.00  0.00     0.280 HD
HETATM   30  C   UNL     1      -2.213   7.219 -30.460  1.00  0.00     0.255 C 
HETATM   31  C   UNL     1      -2.905   7.985 -31.611  1.00  0.00     0.150 C 
BRANCH  28  32
HETATM   32  C   UNL     1      -0.234   5.826 -29.807  1.00  0.00     0.273 C 
BRANCH  32  33
HETATM   33  C   UNL     1       0.298   6.657 -28.670  1.00  0.00    -0.033 A 
HETATM   34  C   UNL     1       1.033   7.831 -28.899  1.00  0.00     0.009 A 
HETATM   35  C   UNL     1       1.507   8.590 -27.828  1.00  0.00     0.001 A 
HETATM   36  C   UNL     1       1.235   8.200 -26.518  1.00  0.00     0.000 A 
HETATM   37  C   UNL     1       0.486   7.051 -26.277  1.00  0.00     0.001 A 
HETATM   38  C   UNL     1       0.020   6.283 -27.345  1.00  0.00     0.009 A 
ENDBRANCH  32  33
ENDBRANCH  28  32
ENDBRANCH   4  25
TORSDOF 10
ENDMDL
MODEL 3
REMARK VINA RESULT:      -8.8      3.117      9.557
REMARK  10 active torsions:
REMARK  status: ('A' for Active; 'I' for Inactive)
REMARK    1  A    between atoms: C_2  and  C_3 
REMARK    2  A    between atoms: C_3  and  O_4 
REMARK    3  A    between atoms: O_4  and  C_5 
REMARK    4  A    between atoms: C_7  and  C_8 
REMARK       I    between atoms: C_8  and  N_9 
REMARK    5  A    between atoms: N_9  and  C_10 
REMARK    6  A    between atoms: C_10  and  N_11 
REMARK    7  A    between atoms: N_11  and  C_12 
REMARK    8  A    between atoms: C_15  and  N_16 
REMARK    9  A    between atoms: N_19  and  C_21 
REMARK   10  A    between atoms: C_21  and  C_22 
ROOT
HETATM    1  C   UNL     1      -6.096   3.623 -33.524  1.00  0.00     0.034 C 
HETATM    2  C   UNL     1      -5.751   4.774 -34.205  1.00  0.00     0.032 C 
HETATM    3  C   UNL     1      -4.469   5.338 -34.095  1.00  0.00     0.031 C 
HETATM    4  C   UNL     1      -3.438   4.735 -33.365  1.00  0.00     0.030 C 
HETATM    5  C   UNL     1      -3.826   3.619 -32.610  1.00  0.00     0.031 C 
HETATM    6  C   UNL     1      -5.124   3.075 -32.685  1.00  0.00     0.032 C 
ENDROOT
BRANCH   1   7
HETATM    7  N   UNL     1      -7.321   2.928 -33.618  1.00  0.00    -0.333 N 
HETATM    8  H   UNL     1      -8.043   3.424 -34.132  1.00  0.00     0.168 HD
BRANCH   7   9
HETATM    9  C   UNL     1      -7.858   1.862 -32.975  1.00  0.00     0.179 C 
HETATM   10  S   UNL     1      -8.968   2.173 -31.758  1.00  0.00    -0.040 SA
BRANCH   9  11
HETATM   11  N   UNL     1      -7.450   0.583 -33.145  1.00  0.00    -0.299 N 
HETATM   12  C   UNL     1      -7.017   0.054 -34.346  1.00  0.00     0.257 C 
HETATM   13  O   UNL     1      -7.086   0.637 -35.422  1.00  0.00    -0.267 OA
HETATM   14  H   UNL     1      -8.061  -0.062 -32.661  1.00  0.00     0.171 HD
BRANCH  12  15
HETATM   15  C   UNL     1      -6.370  -1.296 -34.264  1.00  0.00     0.035 A 
HETATM   16  C   UNL     1      -5.126  -1.502 -33.650  1.00  0.00     0.053 A 
HETATM   17  C   UNL     1      -4.526  -2.762 -33.710  1.00  0.00     0.069 A 
HETATM   18  C   UNL     1      -5.121  -3.798 -34.425  1.00  0.00     0.037 A 
HETATM   19  C   UNL     1      -6.359  -3.603 -35.031  1.00  0.00     0.004 A 
HETATM   20  C   UNL     1      -6.985  -2.358 -34.945  1.00  0.00     0.017 A 
BRANCH  17  21
HETATM   21  O   UNL     1      -3.296  -3.002 -33.163  1.00  0.00    -0.351 OA
BRANCH  21  22
HETATM   22  C   UNL     1      -3.140  -2.444 -31.851  1.00  0.00     0.175 C 
BRANCH  22  23
HETATM   23  C   UNL     1      -2.341  -1.138 -31.857  1.00  0.00     0.022 C 
HETATM   24  C   UNL     1      -3.048  -0.013 -31.117  1.00  0.00     0.007 C 
ENDBRANCH  22  23
ENDBRANCH  21  22
ENDBRANCH  17  21
ENDBRANCH  12  15
ENDBRANCH   9  11
ENDBRANCH   7   9
ENDBRANCH   1   7
BRANCH   4  25
HETATM   25  N   UNL     1      -2.124   5.236 -33.373  1.00  0.00    -0.378 N 
HETATM   26  C   UNL     1      -1.225   4.843 -32.259  1.00  0.00     0.150 C 
HETATM   27  C   UNL     1      -1.574   5.649 -30.985  1.00  0.00     0.255 C 
HETATM   28  N   UNL     1      -1.474   7.156 -31.270  1.00  0.00    -0.064 N 
HETATM   29  H   UNL     1      -0.488   7.351 -31.476  1.00  0.00     0.280 HD
HETATM   30  C   UNL     1      -2.283   7.559 -32.513  1.00  0.00     0.255 C 
HETATM   31  C   UNL     1      -1.928   6.662 -33.722  1.00  0.00     0.150 C 
BRANCH  28  32
HETATM   32  C   UNL     1      -1.866   8.005 -30.082  1.00  0.00     0.273 C 
BRANCH  32  33
HETATM   33  C   UNL     1      -1.020   7.802 -28.854  1.00  0.00    -0.033 A 
HETATM   34  C   UNL     1       0.383   7.796 -28.921  1.00  0.00     0.009 A 
HETATM   35  C   UNL     1       1.146   7.616 -27.766  1.00  0.00     0.001 A 
HETATM   36  C   UNL     1       0.521   7.462 -26.530  1.00  0.00     0.000 A 
HETATM   37  C   UNL     1      -0.869   7.489 -26.447  1.00  0.00     0.001 A 
HETATM   38  C   UNL     1      -1.635   7.658 -27.600  1.00  0.00     0.009 A 
ENDBRANCH  32  33
ENDBRANCH  28  32
ENDBRANCH   4  25
TORSDOF 10
ENDMDL
MODEL 4
REMARK VINA RESULT:      -8.8      1.797      3.218
REMARK  10 active torsions:
REMARK  status: ('A' for Active; 'I' for Inactive)
REMARK    1  A    between atoms: C_2  and  C_3 
REMARK    2  A    between atoms: C_3  and  O_4 
REMARK    3  A    between atoms: O_4  and  C_5 
REMARK    4  A    between atoms: C_7  and  C_8 
REMARK       I    between atoms: C_8  and  N_9 
REMARK    5  A    between atoms: N_9  and  C_10 
REMARK    6  A    between atoms: C_10  and  N_11 
REMARK    7  A    between atoms: N_11  and  C_12 
REMARK    8  A    between atoms: C_15  and  N_16 
REMARK    9  A    between atoms: N_19  and  C_21 
REMARK   10  A    between atoms: C_21  and  C_22 
ROOT
HETATM    1  C   UNL     1      -6.808   5.359 -29.976  1.00  0.00     0.034 C 
HETATM    2  C   UNL     1      -6.923   5.470 -31.349  1.00  0.00     0.032 C 
HETATM    3  C   UNL     1      -7.453   4.430 -32.129  1.00  0.00     0.031 C 
HETATM    4  C   UNL     1      -7.974   3.256 -31.572  1.00  0.00     0.030 C 
HETATM    5  C   UNL     1      -7.772   3.120 -30.191  1.00  0.00     0.031 C 
HETATM    6  C   UNL     1      -7.200   4.145 -29.410  1.00  0.00     0.032 C 
ENDROOT
BRANCH   1   7
HETATM    7  N   UNL     1      -6.365   6.363 -29.088  1.00  0.00    -0.333 N 
HETATM    8  H   UNL     1      -6.769   6.304 -28.158  1.00  0.00     0.168 HD
BRANCH   7   9
HETATM    9  C   UNL     1      -5.718   7.544 -29.240  1.00  0.00     0.179 C 
HETATM   10  S   UNL     1      -6.570   8.943 -28.882  1.00  0.00    -0.040 SA
BRANCH   9  11
HETATM   11  N   UNL     1      -4.493   7.677 -29.800  1.00  0.00    -0.299 N 
HETATM   12  C   UNL     1      -3.309   7.323 -29.182  1.00  0.00     0.257 C 
HETATM   13  O   UNL     1      -3.218   6.980 -28.008  1.00  0.00    -0.267 OA
HETATM   14  H   UNL     1      -4.405   8.567 -30.276  1.00  0.00     0.171 HD
BRANCH  12  15
HETATM   15  C   UNL     1      -2.096   7.309 -30.064  1.00  0.00     0.035 A 
HETATM   16  C   UNL     1      -2.169   7.508 -31.450  1.00  0.00     0.053 A 
HETATM   17  C   UNL     1      -1.017   7.367 -32.228  1.00  0.00     0.069 A 
HETATM   18  C   UNL     1       0.187   6.973 -31.651  1.00  0.00     0.037 A 
HETATM   19  C   UNL     1       0.267   6.781 -30.275  1.00  0.00     0.004 A 
HETATM   20  C   UNL     1      -0.869   6.955 -29.482  1.00  0.00     0.017 A 
BRANCH  17  21
HETATM   21  O   UNL     1      -1.044   7.510 -33.588  1.00  0.00    -0.351 OA
BRANCH  21  22
HETATM   22  C   UNL     1      -2.081   6.745 -34.218  1.00  0.00     0.175 C 
BRANCH  22  23
HETATM   23  C   UNL     1      -1.665   5.297 -34.486  1.00  0.00     0.022 C 
HETATM   24  C   UNL     1      -2.376   4.304 -33.579  1.00  0.00     0.007 C 
ENDBRANCH  22  23
ENDBRANCH  21  22
ENDBRANCH  17  21
ENDBRANCH  12  15
ENDBRANCH   9  11
ENDBRANCH   7   9
ENDBRANCH   1   7
BRANCH   4  25
HETATM   25  N   UNL     1      -8.625   2.283 -32.350  1.00  0.00    -0.378 N 
HETATM   26  C   UNL     1      -8.661   0.892 -31.834  1.00  0.00     0.150 C 
HETATM   27  C   UNL     1      -7.288   0.210 -32.046  1.00  0.00     0.255 C 
HETATM   28  N   UNL     1      -6.909   0.236 -33.535  1.00  0.00    -0.064 N 
HETATM   29  H   UNL     1      -7.600  -0.344 -34.023  1.00  0.00     0.280 HD
HETATM   30  C   UNL     1      -7.010   1.652 -34.126  1.00  0.00     0.255 C 
HETATM   31  C   UNL     1      -8.383   2.289 -33.812  1.00  0.00     0.150 C 
BRANCH  28  32
HETATM   32  C   UNL     1      -5.545  -0.357 -33.804  1.00  0.00     0.273 C 
BRANCH  32  33
HETATM   33  C   UNL     1      -5.550  -1.824 -34.140  1.00  0.00    -0.033 A 
HETATM   34  C   UNL     1      -4.399  -2.615 -33.989  1.00  0.00     0.009 A 
HETATM   35  C   UNL     1      -4.431  -3.977 -34.298  1.00  0.00     0.001 A 
HETATM   36  C   UNL     1      -5.613  -4.567 -34.740  1.00  0.00     0.000 A 
HETATM   37  C   UNL     1      -6.767  -3.799 -34.871  1.00  0.00     0.001 A 
HETATM   38  C   UNL     1      -6.737  -2.436 -34.574  1.00  0.00     0.009 A 
ENDBRANCH  32  33
ENDBRANCH  28  32
ENDBRANCH   4  25
TORSDOF 10
ENDMDL
MODEL 5
REMARK VINA RESULT:      -8.4      2.543      3.604
REMARK  10 active torsions:
REMARK  status: ('A' for Active; 'I' for Inactive)
REMARK    1  A    between atoms: C_2  and  C_3 
REMARK    2  A    between atoms: C_3  and  O_4 
REMARK    3  A    between atoms: O_4  and  C_5 
REMARK    4  A    between atoms: C_7  and  C_8 
REMARK       I    between atoms: C_8  and  N_9 
REMARK    5  A    between atoms: N_9  and  C_10 
REMARK    6  A    between atoms: C_10  and  N_11 
REMARK    7  A    between atoms: N_11  and  C_12 
REMARK    8  A    between atoms: C_15  and  N_16 
REMARK    9  A    between atoms: N_19  and  C_21 
REMARK   10  A    between atoms: C_21  and  C_22 
ROOT
HETATM    1  C   UNL     1      -3.167   3.642 -32.245  1.00  0.00     0.034 C 
HETATM    2  C   UNL     1      -3.307   2.643 -31.301  1.00  0.00     0.032 C 
HETATM    3  C   UNL     1      -4.550   2.044 -31.043  1.00  0.00     0.031 C 
HETATM    4  C   UNL     1      -5.705   2.353 -31.771  1.00  0.00     0.030 C 
HETATM    5  C   UNL     1      -5.569   3.427 -32.663  1.00  0.00     0.031 C 
HETATM    6  C   UNL     1      -4.331   4.060 -32.894  1.00  0.00     0.032 C 
ENDROOT
BRANCH   1   7
HETATM    7  N   UNL     1      -1.961   4.258 -32.641  1.00  0.00    -0.333 N 
HETATM    8  H   UNL     1      -1.134   3.685 -32.503  1.00  0.00     0.168 HD
BRANCH   7   9
HETATM    9  C   UNL     1      -1.599   5.532 -32.932  1.00  0.00     0.179 C 
HETATM   10  S   UNL     1      -1.424   5.934 -34.550  1.00  0.00    -0.040 SA
BRANCH   9  11
HETATM   11  N   UNL     1      -1.226   6.450 -32.010  1.00  0.00    -0.299 N 
HETATM   12  C   UNL     1      -2.086   7.041 -31.104  1.00  0.00     0.257 C 
HETATM   13  O   UNL     1      -3.304   6.910 -31.122  1.00  0.00    -0.267 OA
HETATM   14  H   UNL     1      -0.591   7.131 -32.409  1.00  0.00     0.171 HD
BRANCH  12  15
HETATM   15  C   UNL     1      -1.432   7.830 -30.010  1.00  0.00     0.035 A 
HETATM   16  C   UNL     1      -0.276   7.390 -29.348  1.00  0.00     0.053 A 
HETATM   17  C   UNL     1       0.215   8.115 -28.260  1.00  0.00     0.069 A 
HETATM   18  C   UNL     1      -0.464   9.235 -27.788  1.00  0.00     0.037 A 
HETATM   19  C   UNL     1      -1.607   9.682 -28.445  1.00  0.00     0.004 A 
HETATM   20  C   UNL     1      -2.086   8.986 -29.556  1.00  0.00     0.017 A 
BRANCH  17  21
HETATM   21  O   UNL     1       1.314   7.705 -27.556  1.00  0.00    -0.351 OA
BRANCH  21  22
HETATM   22  C   UNL     1       1.914   8.752 -26.781  1.00  0.00     0.175 C 
BRANCH  22  23
HETATM   23  C   UNL     1       2.143   8.347 -25.322  1.00  0.00     0.022 C 
HETATM   24  C   UNL     1       3.116   9.268 -24.603  1.00  0.00     0.007 C 
ENDBRANCH  22  23
ENDBRANCH  21  22
ENDBRANCH  17  21
ENDBRANCH  12  15
ENDBRANCH   9  11
ENDBRANCH   7   9
ENDBRANCH   1   7
BRANCH   4  25
HETATM   25  N   UNL     1      -6.911   1.650 -31.597  1.00  0.00    -0.378 N 
HETATM   26  C   UNL     1      -6.830   0.211 -31.243  1.00  0.00     0.150 C 
HETATM   27  C   UNL     1      -6.470  -0.625 -32.495  1.00  0.00     0.255 C 
HETATM   28  N   UNL     1      -7.506  -0.386 -33.605  1.00  0.00    -0.064 N 
HETATM   29  H   UNL     1      -8.398  -0.754 -33.257  1.00  0.00     0.280 HD
HETATM   30  C   UNL     1      -7.712   1.111 -33.884  1.00  0.00     0.255 C 
HETATM   31  C   UNL     1      -7.998   1.885 -32.576  1.00  0.00     0.150 C 
BRANCH  28  32
HETATM   32  C   UNL     1      -7.177  -1.125 -34.882  1.00  0.00     0.273 C 
BRANCH  32  33
HETATM   33  C   UNL     1      -6.345  -2.365 -34.698  1.00  0.00    -0.033 A 
HETATM   34  C   UNL     1      -6.901  -3.648 -34.826  1.00  0.00     0.009 A 
HETATM   35  C   UNL     1      -6.107  -4.784 -34.660  1.00  0.00     0.001 A 
HETATM   36  C   UNL     1      -4.747  -4.654 -34.388  1.00  0.00     0.000 A 
HETATM   37  C   UNL     1      -4.177  -3.387 -34.283  1.00  0.00     0.001 A 
HETATM   38  C   UNL     1      -4.970  -2.250 -34.437  1.00  0.00     0.009 A 
ENDBRANCH  32  33
ENDBRANCH  28  32
ENDBRANCH   4  25
TORSDOF 10
ENDMDL
MODEL 6
REMARK VINA RESULT:      -8.4      2.528      3.844
REMARK  10 active torsions:
REMARK  status: ('A' for Active; 'I' for Inactive)
REMARK    1  A    between atoms: C_2  and  C_3 
REMARK    2  A    between atoms: C_3  and  O_4 
REMARK    3  A    between atoms: O_4  and  C_5 
REMARK    4  A    between atoms: C_7  and  C_8 
REMARK       I    between atoms: C_8  and  N_9 
REMARK    5  A    between atoms: N_9  and  C_10 
REMARK    6  A    between atoms: C_10  and  N_11 
REMARK    7  A    between atoms: N_11  and  C_12 
REMARK    8  A    between atoms: C_15  and  N_16 
REMARK    9  A    between atoms: N_19  and  C_21 
REMARK   10  A    between atoms: C_21  and  C_22 
ROOT
HETATM    1  C   UNL     1      -4.227   5.211 -31.659  1.00  0.00     0.034 C 
HETATM    2  C   UNL     1      -3.594   3.996 -31.479  1.00  0.00     0.032 C 
HETATM    3  C   UNL     1      -4.298   2.853 -31.067  1.00  0.00     0.031 C 
HETATM    4  C   UNL     1      -5.686   2.843 -30.892  1.00  0.00     0.030 C 
HETATM    5  C   UNL     1      -6.302   4.099 -30.992  1.00  0.00     0.031 C 
HETATM    6  C   UNL     1      -5.591   5.257 -31.365  1.00  0.00     0.032 C 
ENDROOT
BRANCH   1   7
HETATM    7  N   UNL     1      -3.639   6.399 -32.143  1.00  0.00    -0.333 N 
HETATM    8  H   UNL     1      -4.091   6.783 -32.967  1.00  0.00     0.168 HD
BRANCH   7   9
HETATM    9  C   UNL     1      -2.458   7.028 -31.925  1.00  0.00     0.179 C 
HETATM   10  S   UNL     1      -1.464   7.284 -33.251  1.00  0.00    -0.040 SA
BRANCH   9  11
HETATM   11  N   UNL     1      -1.965   7.325 -30.700  1.00  0.00    -0.299 N 
HETATM   12  C   UNL     1      -1.078   6.530 -30.001  1.00  0.00     0.257 C 
HETATM   13  O   UNL     1      -0.744   5.401 -30.343  1.00  0.00    -0.267 OA
HETATM   14  H   UNL     1      -2.691   7.684 -30.093  1.00  0.00     0.171 HD
BRANCH  12  15
HETATM   15  C   UNL     1      -0.461   7.158 -28.787  1.00  0.00     0.035 A 
HETATM   16  C   UNL     1      -1.161   7.321 -27.583  1.00  0.00     0.053 A 
HETATM   17  C   UNL     1      -0.568   8.019 -26.529  1.00  0.00     0.069 A 
HETATM   18  C   UNL     1       0.686   8.606 -26.681  1.00  0.00     0.037 A 
HETATM   19  C   UNL     1       1.389   8.441 -27.871  1.00  0.00     0.004 A 
HETATM   20  C   UNL     1       0.821   7.715 -28.919  1.00  0.00     0.017 A 
BRANCH  17  21
HETATM   21  O   UNL     1      -1.225   8.241 -25.349  1.00  0.00    -0.351 OA
BRANCH  21  22
HETATM   22  C   UNL     1      -2.501   8.872 -25.522  1.00  0.00     0.175 C 
BRANCH  22  23
HETATM   23  C   UNL     1      -2.382  10.367 -25.828  1.00  0.00     0.022 C 
HETATM   24  C   UNL     1      -3.220  10.791 -27.024  1.00  0.00     0.007 C 
ENDBRANCH  22  23
ENDBRANCH  21  22
ENDBRANCH  17  21
ENDBRANCH  12  15
ENDBRANCH   9  11
ENDBRANCH   7   9
ENDBRANCH   1   7
BRANCH   4  25
HETATM   25  N   UNL     1      -6.397   1.661 -30.612  1.00  0.00    -0.378 N 
HETATM   26  C   UNL     1      -5.623   0.402 -30.480  1.00  0.00     0.150 C 
HETATM   27  C   UNL     1      -5.213  -0.120 -31.878  1.00  0.00     0.255 C 
HETATM   28  N   UNL     1      -6.461  -0.328 -32.751  1.00  0.00    -0.064 N 
HETATM   29  H   UNL     1      -7.006  -1.077 -32.309  1.00  0.00     0.280 HD
HETATM   30  C   UNL     1      -7.354   0.923 -32.781  1.00  0.00     0.255 C 
HETATM   31  C   UNL     1      -7.659   1.421 -31.349  1.00  0.00     0.150 C 
BRANCH  28  32
HETATM   32  C   UNL     1      -6.126  -0.777 -34.155  1.00  0.00     0.273 C 
BRANCH  32  33
HETATM   33  C   UNL     1      -5.812  -2.242 -34.292  1.00  0.00    -0.033 A 
HETATM   34  C   UNL     1      -6.784  -3.165 -34.711  1.00  0.00     0.009 A 
HETATM   35  C   UNL     1      -6.466  -4.519 -34.841  1.00  0.00     0.001 A 
HETATM   36  C   UNL     1      -5.172  -4.962 -34.576  1.00  0.00     0.000 A 
HETATM   37  C   UNL     1      -4.193  -4.054 -34.182  1.00  0.00     0.001 A 
HETATM   38  C   UNL     1      -4.510  -2.703 -34.041  1.00  0.00     0.009 A 
ENDBRANCH  32  33
ENDBRANCH  28  32
ENDBRANCH   4  25
TORSDOF 10
ENDMDL
MODEL 7
REMARK VINA RESULT:      -8.2      2.469      3.221
REMARK  10 active torsions:
REMARK  status: ('A' for Active; 'I' for Inactive)
REMARK    1  A    between atoms: C_2  and  C_3 
REMARK    2  A    between atoms: C_3  and  O_4 
REMARK    3  A    between atoms: O_4  and  C_5 
REMARK    4  A    between atoms: C_7  and  C_8 
REMARK       I    between atoms: C_8  and  N_9 
REMARK    5  A    between atoms: N_9  and  C_10 
REMARK    6  A    between atoms: C_10  and  N_11 
REMARK    7  A    between atoms: N_11  and  C_12 
REMARK    8  A    between atoms: C_15  and  N_16 
REMARK    9  A    between atoms: N_19  and  C_21 
REMARK   10  A    between atoms: C_21  and  C_22 
ROOT
HETATM    1  C   UNL     1      -9.247   5.813 -32.375  1.00  0.00     0.034 C 
HETATM    2  C   UNL     1      -9.683   5.043 -31.313  1.00  0.00     0.032 C 
HETATM    3  C   UNL     1     -10.057   3.701 -31.482  1.00  0.00     0.031 C 
HETATM    4  C   UNL     1      -9.937   3.030 -32.705  1.00  0.00     0.030 C 
HETATM    5  C   UNL     1      -9.579   3.844 -33.790  1.00  0.00     0.031 C 
HETATM    6  C   UNL     1      -9.244   5.204 -33.631  1.00  0.00     0.032 C 
ENDROOT
BRANCH   1   7
HETATM    7  N   UNL     1      -8.775   7.141 -32.309  1.00  0.00    -0.333 N 
HETATM    8  H   UNL     1      -9.386   7.823 -32.749  1.00  0.00     0.168 HD
BRANCH   7   9
HETATM    9  C   UNL     1      -7.578   7.708 -32.021  1.00  0.00     0.179 C 
HETATM   10  S   UNL     1      -7.567   9.344 -31.653  1.00  0.00    -0.040 SA
BRANCH   9  11
HETATM   11  N   UNL     1      -6.385   7.083 -32.155  1.00  0.00    -0.299 N 
HETATM   12  C   UNL     1      -5.899   6.130 -31.282  1.00  0.00     0.257 C 
HETATM   13  O   UNL     1      -6.424   5.842 -30.212  1.00  0.00    -0.267 OA
HETATM   14  H   UNL     1      -5.659   7.737 -32.423  1.00  0.00     0.171 HD
BRANCH  12  15
HETATM   15  C   UNL     1      -4.686   5.381 -31.748  1.00  0.00     0.035 A 
HETATM   16  C   UNL     1      -4.396   4.076 -31.326  1.00  0.00     0.053 A 
HETATM   17  C   UNL     1      -3.191   3.479 -31.705  1.00  0.00     0.069 A 
HETATM   18  C   UNL     1      -2.250   4.189 -32.446  1.00  0.00     0.037 A 
HETATM   19  C   UNL     1      -2.534   5.482 -32.874  1.00  0.00     0.004 A 
HETATM   20  C   UNL     1      -3.751   6.075 -32.532  1.00  0.00     0.017 A 
BRANCH  17  21
HETATM   21  O   UNL     1      -2.844   2.224 -31.286  1.00  0.00    -0.351 OA
BRANCH  21  22
HETATM   22  C   UNL     1      -3.633   1.187 -31.886  1.00  0.00     0.175 C 
BRANCH  22  23
HETATM   23  C   UNL     1      -4.090   0.134 -30.874  1.00  0.00     0.022 C 
HETATM   24  C   UNL     1      -5.341   0.550 -30.116  1.00  0.00     0.007 C 
ENDBRANCH  22  23
ENDBRANCH  21  22
ENDBRANCH  17  21
ENDBRANCH  12  15
ENDBRANCH   9  11
ENDBRANCH   7   9
ENDBRANCH   1   7
BRANCH   4  25
HETATM   25  N   UNL     1     -10.185   1.652 -32.830  1.00  0.00    -0.378 N 
HETATM   26  C   UNL     1      -9.576   0.743 -31.827  1.00  0.00     0.150 C 
HETATM   27  C   UNL     1      -8.072   0.548 -32.131  1.00  0.00     0.255 C 
HETATM   28  N   UNL     1      -7.887   0.000 -33.555  1.00  0.00    -0.064 N 
HETATM   29  H   UNL     1      -8.309  -0.934 -33.567  1.00  0.00     0.280 HD
HETATM   30  C   UNL     1      -8.636   0.848 -34.596  1.00  0.00     0.255 C 
HETATM   31  C   UNL     1     -10.112   1.055 -34.184  1.00  0.00     0.150 C 
BRANCH  28  32
HETATM   32  C   UNL     1      -6.433  -0.153 -33.941  1.00  0.00     0.273 C 
BRANCH  32  33
HETATM   33  C   UNL     1      -5.993  -1.569 -34.195  1.00  0.00    -0.033 A 
HETATM   34  C   UNL     1      -4.670  -1.980 -33.960  1.00  0.00     0.009 A 
HETATM   35  C   UNL     1      -4.288  -3.303 -34.194  1.00  0.00     0.001 A 
HETATM   36  C   UNL     1      -5.223  -4.233 -34.642  1.00  0.00     0.000 A 
HETATM   37  C   UNL     1      -6.543  -3.844 -34.856  1.00  0.00     0.001 A 
HETATM   38  C   UNL     1      -6.926  -2.521 -34.634  1.00  0.00     0.009 A 
ENDBRANCH  32  33
ENDBRANCH  28  32
ENDBRANCH   4  25
TORSDOF 10
ENDMDL
MODEL 8
REMARK VINA RESULT:      -8.1      3.279      7.974
REMARK  10 active torsions:
REMARK  status: ('A' for Active; 'I' for Inactive)
REMARK    1  A    between atoms: C_2  and  C_3 
REMARK    2  A    between atoms: C_3  and  O_4 
REMARK    3  A    between atoms: O_4  and  C_5 
REMARK    4  A    between atoms: C_7  and  C_8 
REMARK       I    between atoms: C_8  and  N_9 
REMARK    5  A    between atoms: N_9  and  C_10 
REMARK    6  A    between atoms: C_10  and  N_11 
REMARK    7  A    between atoms: N_11  and  C_12 
REMARK    8  A    between atoms: C_15  and  N_16 
REMARK    9  A    between atoms: N_19  and  C_21 
REMARK   10  A    between atoms: C_21  and  C_22 
ROOT
HETATM    1  C   UNL     1     -10.738   3.655 -31.668  1.00  0.00     0.034 C 
HETATM    2  C   UNL     1     -10.689   5.034 -31.748  1.00  0.00     0.032 C 
HETATM    3  C   UNL     1      -9.740   5.779 -31.031  1.00  0.00     0.031 C 
HETATM    4  C   UNL     1      -8.735   5.183 -30.260  1.00  0.00     0.030 C 
HETATM    5  C   UNL     1      -8.850   3.792 -30.117  1.00  0.00     0.031 C 
HETATM    6  C   UNL     1      -9.829   3.045 -30.802  1.00  0.00     0.032 C 
ENDROOT
BRANCH   1   7
HETATM    7  N   UNL     1     -11.593   2.803 -32.399  1.00  0.00    -0.333 N 
HETATM    8  H   UNL     1     -12.480   2.611 -31.943  1.00  0.00     0.168 HD
BRANCH   7   9
HETATM    9  C   UNL     1     -11.424   1.969 -33.455  1.00  0.00     0.179 C 
HETATM   10  S   UNL     1     -12.693   1.832 -34.541  1.00  0.00    -0.040 SA
BRANCH   9  11
HETATM   11  N   UNL     1     -10.369   1.136 -33.607  1.00  0.00    -0.299 N 
HETATM   12  C   UNL     1      -9.113   1.532 -34.025  1.00  0.00     0.257 C 
HETATM   13  O   UNL     1      -8.845   2.655 -34.439  1.00  0.00    -0.267 OA
HETATM   14  H   UNL     1     -10.649   0.273 -34.059  1.00  0.00     0.171 HD
BRANCH  12  15
HETATM   15  C   UNL     1      -8.028   0.508 -33.881  1.00  0.00     0.035 A 
HETATM   16  C   UNL     1      -7.281   0.358 -32.703  1.00  0.00     0.053 A 
HETATM   17  C   UNL     1      -6.208  -0.535 -32.674  1.00  0.00     0.069 A 
HETATM   18  C   UNL     1      -5.834  -1.234 -33.820  1.00  0.00     0.037 A 
HETATM   19  C   UNL     1      -6.576  -1.096 -34.989  1.00  0.00     0.004 A 
HETATM   20  C   UNL     1      -7.673  -0.233 -35.019  1.00  0.00     0.017 A 
BRANCH  17  21
HETATM   21  O   UNL     1      -5.425  -0.686 -31.563  1.00  0.00    -0.351 OA
BRANCH  21  22
HETATM   22  C   UNL     1      -4.045  -0.928 -31.871  1.00  0.00     0.175 C 
BRANCH  22  23
HETATM   23  C   UNL     1      -3.107   0.085 -31.209  1.00  0.00     0.022 C 
HETATM   24  C   UNL     1      -3.515   1.526 -31.477  1.00  0.00     0.007 C 
ENDBRANCH  22  23
ENDBRANCH  21  22
ENDBRANCH  17  21
ENDBRANCH  12  15
ENDBRANCH   9  11
ENDBRANCH   7   9
ENDBRANCH   1   7
BRANCH   4  25
HETATM   25  N   UNL     1      -7.709   5.933 -29.657  1.00  0.00    -0.378 N 
HETATM   26  C   UNL     1      -7.169   7.095 -30.406  1.00  0.00     0.150 C 
HETATM   27  C   UNL     1      -6.220   6.610 -31.528  1.00  0.00     0.255 C 
HETATM   28  N   UNL     1      -5.085   5.762 -30.931  1.00  0.00    -0.064 N 
HETATM   29  H   UNL     1      -4.534   6.389 -30.335  1.00  0.00     0.280 HD
HETATM   30  C   UNL     1      -5.624   4.639 -30.030  1.00  0.00     0.255 C 
HETATM   31  C   UNL     1      -6.616   5.195 -28.983  1.00  0.00     0.150 C 
BRANCH  28  32
HETATM   32  C   UNL     1      -4.156   5.201 -31.983  1.00  0.00     0.273 C 
BRANCH  32  33
HETATM   33  C   UNL     1      -2.738   5.699 -31.905  1.00  0.00    -0.033 A 
HETATM   34  C   UNL     1      -1.701   4.889 -31.417  1.00  0.00     0.009 A 
HETATM   35  C   UNL     1      -0.391   5.370 -31.363  1.00  0.00     0.001 A 
HETATM   36  C   UNL     1      -0.099   6.655 -31.815  1.00  0.00     0.000 A 
HETATM   37  C   UNL     1      -1.115   7.461 -32.323  1.00  0.00     0.001 A 
HETATM   38  C   UNL     1      -2.426   6.988 -32.368  1.00  0.00     0.009 A 
ENDBRANCH  32  33
ENDBRANCH  28  32
ENDBRANCH   4  25
TORSDOF 10
ENDMDL
MODEL 9
REMARK VINA RESULT:      -8.0      4.438      8.676
REMARK  10 active torsions:
REMARK  status: ('A' for Active; 'I' for Inactive)
REMARK    1  A    between atoms: C_2  and  C_3 
REMARK    2  A    between atoms: C_3  and  O_4 
REMARK    3  A    between atoms: O_4  and  C_5 
REMARK    4  A    between atoms: C_7  and  C_8 
REMARK       I    between atoms: C_8  and  N_9 
REMARK    5  A    between atoms: N_9  and  C_10 
REMARK    6  A    between atoms: C_10  and  N_11 
REMARK    7  A    between atoms: N_11  and  C_12 
REMARK    8  A    between atoms: C_15  and  N_16 
REMARK    9  A    between atoms: N_19  and  C_21 
REMARK   10  A    between atoms: C_21  and  C_22 
ROOT
HETATM    1  C   UNL     1      -8.722   4.762 -30.863  1.00  0.00     0.034 C 
HETATM    2  C   UNL     1      -8.703   3.601 -30.115  1.00  0.00     0.032 C 
HETATM    3  C   UNL     1      -7.656   2.672 -30.224  1.00  0.00     0.031 C 
HETATM    4  C   UNL     1      -6.530   2.892 -31.026  1.00  0.00     0.030 C 
HETATM    5  C   UNL     1      -6.603   4.029 -31.844  1.00  0.00     0.031 C 
HETATM    6  C   UNL     1      -7.674   4.942 -31.768  1.00  0.00     0.032 C 
ENDROOT
BRANCH   1   7
HETATM    7  N   UNL     1      -9.677   5.798 -30.780  1.00  0.00    -0.333 N 
HETATM    8  H   UNL     1      -9.352   6.626 -30.291  1.00  0.00     0.168 HD
BRANCH   7   9
HETATM    9  C   UNL     1     -11.016   5.870 -30.977  1.00  0.00     0.179 C 
HETATM   10  S   UNL     1     -11.828   7.170 -30.298  1.00  0.00    -0.040 SA
BRANCH   9  11
HETATM   11  N   UNL     1     -11.757   4.893 -31.550  1.00  0.00    -0.299 N 
HETATM   12  C   UNL     1     -11.560   4.412 -32.830  1.00  0.00     0.257 C 
HETATM   13  O   UNL     1     -10.788   4.908 -33.643  1.00  0.00    -0.267 OA
HETATM   14  H   UNL     1     -12.743   5.022 -31.356  1.00  0.00     0.171 HD
BRANCH  12  15
HETATM   15  C   UNL     1     -12.314   3.164 -33.177  1.00  0.00     0.035 A 
HETATM   16  C   UNL     1     -13.706   3.059 -33.039  1.00  0.00     0.053 A 
HETATM   17  C   UNL     1     -14.332   1.831 -33.268  1.00  0.00     0.069 A 
HETATM   18  C   UNL     1     -13.583   0.698 -33.573  1.00  0.00     0.037 A 
HETATM   19  C   UNL     1     -12.203   0.797 -33.719  1.00  0.00     0.004 A 
HETATM   20  C   UNL     1     -11.570   2.026 -33.528  1.00  0.00     0.017 A 
BRANCH  17  21
HETATM   21  O   UNL     1     -15.681   1.668 -33.106  1.00  0.00    -0.351 OA
BRANCH  21  22
HETATM   22  C   UNL     1     -16.212   2.406 -31.997  1.00  0.00     0.175 C 
BRANCH  22  23
HETATM   23  C   UNL     1     -17.691   2.759 -32.179  1.00  0.00     0.022 C 
HETATM   24  C   UNL     1     -17.974   4.237 -31.957  1.00  0.00     0.007 C 
ENDBRANCH  22  23
ENDBRANCH  21  22
ENDBRANCH  17  21
ENDBRANCH  12  15
ENDBRANCH   9  11
ENDBRANCH   7   9
ENDBRANCH   1   7
BRANCH   4  25
HETATM   25  N   UNL     1      -5.426   2.020 -31.022  1.00  0.00    -0.378 N 
HETATM   26  C   UNL     1      -4.500   2.070 -32.180  1.00  0.00     0.150 C 
HETATM   27  C   UNL     1      -5.128   1.346 -33.396  1.00  0.00     0.255 C 
HETATM   28  N   UNL     1      -5.472  -0.105 -33.026  1.00  0.00    -0.064 N 
HETATM   29  H   UNL     1      -4.582  -0.578 -32.835  1.00  0.00     0.280 HD
HETATM   30  C   UNL     1      -6.311  -0.185 -31.741  1.00  0.00     0.255 C 
HETATM   31  C   UNL     1      -5.652   0.619 -30.597  1.00  0.00     0.150 C 
BRANCH  28  32
HETATM   32  C   UNL     1      -6.151  -0.852 -34.152  1.00  0.00     0.273 C 
BRANCH  32  33
HETATM   33  C   UNL     1      -5.763  -2.301 -34.273  1.00  0.00    -0.033 A 
HETATM   34  C   UNL     1      -6.656  -3.260 -34.778  1.00  0.00     0.009 A 
HETATM   35  C   UNL     1      -6.270  -4.598 -34.889  1.00  0.00     0.001 A 
HETATM   36  C   UNL     1      -4.985  -4.988 -34.520  1.00  0.00     0.000 A 
HETATM   37  C   UNL     1      -4.082  -4.043 -34.041  1.00  0.00     0.001 A 
HETATM   38  C   UNL     1      -4.467  -2.708 -33.917  1.00  0.00     0.009 A 
ENDBRANCH  32  33
ENDBRANCH  28  32
ENDBRANCH   4  25
TORSDOF 10
ENDMDL
MODEL 10
REMARK VINA RESULT:      -8.0      3.785      7.810
REMARK  10 active torsions:
REMARK  status: ('A' for Active; 'I' for Inactive)
REMARK    1  A    between atoms: C_2  and  C_3 
REMARK    2  A    between atoms: C_3  and  O_4 
REMARK    3  A    between atoms: O_4  and  C_5 
REMARK    4  A    between atoms: C_7  and  C_8 
REMARK       I    between atoms: C_8  and  N_9 
REMARK    5  A    between atoms: N_9  and  C_10 
REMARK    6  A    between atoms: C_10  and  N_11 
REMARK    7  A    between atoms: N_11  and  C_12 
REMARK    8  A    between atoms: C_15  and  N_16 
REMARK    9  A    between atoms: N_19  and  C_21 
REMARK   10  A    between atoms: C_21  and  C_22 
ROOT
HETATM    1  C   UNL     1      -6.262   4.798 -31.259  1.00  0.00     0.034 C 
HETATM    2  C   UNL     1      -7.282   5.093 -30.376  1.00  0.00     0.032 C 
HETATM    3  C   UNL     1      -8.478   5.688 -30.805  1.00  0.00     0.031 C 
HETATM    4  C   UNL     1      -8.754   5.945 -32.154  1.00  0.00     0.030 C 
HETATM    5  C   UNL     1      -7.679   5.723 -33.027  1.00  0.00     0.031 C 
HETATM    6  C   UNL     1      -6.460   5.165 -32.592  1.00  0.00     0.032 C 
ENDROOT
BRANCH   1   7
HETATM    7  N   UNL     1      -5.055   4.133 -30.955  1.00  0.00    -0.333 N 
HETATM    8  H   UNL     1      -4.594   4.469 -30.115  1.00  0.00     0.168 HD
BRANCH   7   9
HETATM    9  C   UNL     1      -4.221   3.318 -31.647  1.00  0.00     0.179 C 
HETATM   10  S   UNL     1      -2.682   3.893 -31.982  1.00  0.00    -0.040 SA
BRANCH   9  11
HETATM   11  N   UNL     1      -4.593   2.145 -32.210  1.00  0.00    -0.299 N 
HETATM   12  C   UNL     1      -5.456   1.237 -31.626  1.00  0.00     0.257 C 
HETATM   13  O   UNL     1      -5.871   1.320 -30.476  1.00  0.00    -0.267 OA
HETATM   14  H   UNL     1      -3.802   1.677 -32.634  1.00  0.00     0.171 HD
BRANCH  12  15
HETATM   15  C   UNL     1      -5.936   0.133 -32.520  1.00  0.00     0.035 A 
HETATM   16  C   UNL     1      -5.067  -0.804 -33.096  1.00  0.00     0.053 A 
HETATM   17  C   UNL     1      -5.565  -1.736 -34.011  1.00  0.00     0.069 A 
HETATM   18  C   UNL     1      -6.901  -1.704 -34.402  1.00  0.00     0.037 A 
HETATM   19  C   UNL     1      -7.770  -0.781 -33.828  1.00  0.00     0.004 A 
HETATM   20  C   UNL     1      -7.292   0.131 -32.885  1.00  0.00     0.017 A 
BRANCH  17  21
HETATM   21  O   UNL     1      -4.751  -2.643 -34.631  1.00  0.00    -0.351 OA
BRANCH  21  22
HETATM   22  C   UNL     1      -5.414  -3.874 -34.950  1.00  0.00     0.175 C 
BRANCH  22  23
HETATM   23  C   UNL     1      -4.759  -5.086 -34.281  1.00  0.00     0.022 C 
HETATM   24  C   UNL     1      -3.526  -4.716 -33.473  1.00  0.00     0.007 C 
ENDBRANCH  22  23
ENDBRANCH  21  22
ENDBRANCH  17  21
ENDBRANCH  12  15
ENDBRANCH   9  11
ENDBRANCH   7   9
ENDBRANCH   1   7
BRANCH   4  25
HETATM   25  N   UNL     1     -10.008   6.415 -32.585  1.00  0.00    -0.378 N 
HETATM   26  C   UNL     1     -11.212   5.645 -32.186  1.00  0.00     0.150 C 
HETATM   27  C   UNL     1     -11.339   4.369 -33.052  1.00  0.00     0.255 C 
HETATM   28  N   UNL     1     -11.393   4.744 -34.541  1.00  0.00    -0.064 N 
HETATM   29  H   UNL     1     -12.260   5.276 -34.678  1.00  0.00     0.280 HD
HETATM   30  C   UNL     1     -10.230   5.666 -34.942  1.00  0.00     0.255 C 
HETATM   31  C   UNL     1     -10.128   6.878 -33.988  1.00  0.00     0.150 C 
BRANCH  28  32
HETATM   32  C   UNL     1     -11.452   3.537 -35.448  1.00  0.00     0.273 C 
BRANCH  32  33
HETATM   33  C   UNL     1     -12.012   2.294 -34.810  1.00  0.00    -0.033 A 
HETATM   34  C   UNL     1     -13.371   1.957 -34.926  1.00  0.00     0.009 A 
HETATM   35  C   UNL     1     -13.864   0.793 -34.334  1.00  0.00     0.001 A 
HETATM   36  C   UNL     1     -13.007  -0.057 -33.639  1.00  0.00     0.000 A 
HETATM   37  C   UNL     1     -11.653   0.253 -33.537  1.00  0.00     0.001 A 
HETATM   38  C   UNL     1     -11.158   1.421 -34.118  1.00  0.00     0.009 A 
ENDBRANCH  32  33
ENDBRANCH  28  32
ENDBRANCH   4  25
TORSDOF 10
ENDMDL
