MODEL 1
REMARK VINA RESULT:      -9.7      0.000      0.000
REMARK  6 active torsions:
REMARK  status: ('A' for Active; 'I' for Inactive)
REMARK    1  A    between atoms: C_3  and  C_4 
REMARK    2  A    between atoms: C_4  and  C_5 
REMARK       I    between atoms: C_5  and  N_6 
REMARK    3  A    between atoms: N_6  and  C_7 
REMARK    4  A    between atoms: C_7  and  C_8 
REMARK    5  A    between atoms: C_8  and  C_9 
REMARK    6  A    between atoms: C_28  and  O_29 
ROOT
HETATM    1  C   UNL     1      -2.232   4.508 -32.346  1.00  0.00     0.222 C 
HETATM    2  N   UNL     1      -2.525   3.717 -31.258  1.00  0.00    -0.360 N 
HETATM    3  O   UNL     1      -2.996   4.651 -33.299  1.00  0.00    -0.273 OA
HETATM    4  H   UNL     1      -1.897   3.714 -30.456  1.00  0.00     0.162 HD
ENDROOT
BRANCH   1   5
HETATM    5  C   UNL     1      -0.879   5.191 -32.298  1.00  0.00     0.148 C 
BRANCH   5   6
HETATM    6  C   UNL     1      -0.742   6.014 -31.045  1.00  0.00     0.033 C 
HETATM    7  C   UNL     1      -1.310   7.219 -30.832  1.00  0.00    -0.036 C 
HETATM    8  C   UNL     1      -2.234   7.892 -31.816  1.00  0.00     0.050 C 
HETATM    9  C   UNL     1      -1.004   7.943 -29.581  1.00  0.00     0.005 A 
HETATM   10  C   UNL     1      -0.008   7.450 -28.732  1.00  0.00     0.099 A 
HETATM   11  C   UNL     1      -1.628   9.142 -29.217  1.00  0.00     0.017 A 
HETATM   12  O   UNL     1       0.572   6.189 -28.991  1.00  0.00    -0.274 OA
HETATM   13  C   UNL     1       0.435   8.138 -27.585  1.00  0.00     0.006 A 
HETATM   14  C   UNL     1       0.125   5.382 -30.021  1.00  0.00     0.295 C 
HETATM   15  O   UNL     1       0.465   4.204 -30.108  1.00  0.00    -0.259 OA
HETATM   16  C   UNL     1       1.553   7.595 -26.741  1.00  0.00     0.054 C 
HETATM   17  C   UNL     1      -0.227   9.324 -27.254  1.00  0.00     0.074 A 
HETATM   18  C   UNL     1      -1.249   9.821 -28.057  1.00  0.00     0.038 A 
BRANCH  17  19
HETATM   19  O   UNL     1       0.066  10.063 -26.144  1.00  0.00    -0.360 OA
HETATM   20  H   UNL     1       0.611  10.826 -26.393  1.00  0.00     0.217 HD
ENDBRANCH  17  19
ENDBRANCH   5   6
ENDBRANCH   1   5
BRANCH   2  21
HETATM   21  C   UNL     1      -3.742   2.924 -31.225  1.00  0.00     0.127 C 
BRANCH  21  22
HETATM   22  C   UNL     1      -3.533   1.539 -31.848  1.00  0.00     0.060 C 
BRANCH  22  23
HETATM   23  C   UNL     1      -4.673   1.106 -32.715  1.00  0.00    -0.029 A 
HETATM   24  C   UNL     1      -4.893  -0.183 -33.297  1.00  0.00    -0.000 A 
HETATM   25  C   UNL     1      -6.066  -0.107 -34.052  1.00  0.00     0.043 A 
HETATM   26  C   UNL     1      -4.198  -1.409 -33.259  1.00  0.00     0.038 A 
HETATM   27  C   UNL     1      -6.579  -1.189 -34.776  1.00  0.00     0.032 A 
HETATM   28  N   UNL     1      -6.545   1.176 -33.927  1.00  0.00    -0.365 N 
HETATM   29  C   UNL     1      -5.872  -2.393 -34.724  1.00  0.00     0.026 A 
HETATM   30  C   UNL     1      -4.702  -2.499 -33.976  1.00  0.00     0.035 A 
HETATM   31 CL   UNL     1      -3.857  -4.001 -33.933  1.00  0.00    -0.084 Cl
HETATM   32  H   UNL     1      -7.385   1.523 -34.369  1.00  0.00     0.165 HD
HETATM   33  C   UNL     1      -5.718   1.912 -33.126  1.00  0.00     0.096 A 
ENDBRANCH  22  23
ENDBRANCH  21  22
ENDBRANCH   2  21
TORSDOF 6
ENDMDL
MODEL 2
REMARK VINA RESULT:      -9.6      3.791     10.105
REMARK  6 active torsions:
REMARK  status: ('A' for Active; 'I' for Inactive)
REMARK    1  A    between atoms: C_3  and  C_4 
REMARK    2  A    between atoms: C_4  and  C_5 
REMARK       I    between atoms: C_5  and  N_6 
REMARK    3  A    between atoms: N_6  and  C_7 
REMARK    4  A    between atoms: C_7  and  C_8 
REMARK    5  A    between atoms: C_8  and  C_9 
REMARK    6  A    between atoms: C_28  and  O_29 
ROOT
HETATM    1  C   UNL     1      -4.098   2.652 -32.173  1.00  0.00     0.222 C 
HETATM    2  N   UNL     1      -5.075   3.616 -32.289  1.00  0.00    -0.360 N 
HETATM    3  O   UNL     1      -3.006   2.730 -32.731  1.00  0.00    -0.273 OA
HETATM    4  H   UNL     1      -5.921   3.544 -31.727  1.00  0.00     0.162 HD
ENDROOT
BRANCH   1   5
HETATM    5  C   UNL     1      -4.470   1.462 -31.309  1.00  0.00     0.148 C 
BRANCH   5   6
HETATM    6  C   UNL     1      -4.554   0.208 -32.138  1.00  0.00     0.033 C 
HETATM    7  C   UNL     1      -5.598  -0.151 -32.913  1.00  0.00    -0.036 C 
HETATM    8  C   UNL     1      -6.825   0.703 -33.111  1.00  0.00     0.050 C 
HETATM    9  C   UNL     1      -5.564  -1.462 -33.595  1.00  0.00     0.005 A 
HETATM   10  C   UNL     1      -4.542  -2.366 -33.289  1.00  0.00     0.099 A 
HETATM   11  C   UNL     1      -6.543  -1.877 -34.506  1.00  0.00     0.017 A 
HETATM   12  O   UNL     1      -3.469  -1.958 -32.467  1.00  0.00    -0.274 OA
HETATM   13  C   UNL     1      -4.499  -3.680 -33.797  1.00  0.00     0.006 A 
HETATM   14  C   UNL     1      -3.355  -0.656 -32.017  1.00  0.00     0.295 C 
HETATM   15  O   UNL     1      -2.319  -0.244 -31.499  1.00  0.00    -0.259 OA
HETATM   16  C   UNL     1      -3.413  -4.632 -33.386  1.00  0.00     0.054 C 
HETATM   17  C   UNL     1      -5.490  -4.044 -34.714  1.00  0.00     0.074 A 
HETATM   18  C   UNL     1      -6.500  -3.155 -35.069  1.00  0.00     0.038 A 
BRANCH  17  19
HETATM   19  O   UNL     1      -5.539  -5.267 -35.319  1.00  0.00    -0.360 OA
HETATM   20  H   UNL     1      -6.395  -5.687 -35.140  1.00  0.00     0.217 HD
ENDBRANCH  17  19
ENDBRANCH   5   6
ENDBRANCH   1   5
BRANCH   2  21
HETATM   21  C   UNL     1      -4.889   4.756 -33.171  1.00  0.00     0.127 C 
BRANCH  21  22
HETATM   22  C   UNL     1      -4.418   5.996 -32.404  1.00  0.00     0.060 C 
BRANCH  22  23
HETATM   23  C   UNL     1      -2.954   6.261 -32.557  1.00  0.00    -0.029 A 
HETATM   24  C   UNL     1      -1.987   6.473 -31.523  1.00  0.00    -0.000 A 
HETATM   25  C   UNL     1      -0.758   6.715 -32.142  1.00  0.00     0.043 A 
HETATM   26  C   UNL     1      -2.043   6.490 -30.114  1.00  0.00     0.038 A 
HETATM   27  C   UNL     1       0.416   6.979 -31.428  1.00  0.00     0.032 A 
HETATM   28  N   UNL     1      -0.968   6.644 -33.499  1.00  0.00    -0.365 N 
HETATM   29  C   UNL     1       0.335   6.993 -30.033  1.00  0.00     0.026 A 
HETATM   30  C   UNL     1      -0.876   6.750 -29.390  1.00  0.00     0.035 A 
HETATM   31 CL   UNL     1      -0.939   6.772 -27.667  1.00  0.00    -0.084 Cl
HETATM   32  H   UNL     1      -0.253   6.781 -34.200  1.00  0.00     0.165 HD
HETATM   33  C   UNL     1      -2.282   6.371 -33.759  1.00  0.00     0.096 A 
ENDBRANCH  22  23
ENDBRANCH  21  22
ENDBRANCH   2  21
TORSDOF 6
ENDMDL
MODEL 3
REMARK VINA RESULT:      -9.6      6.766     10.198
REMARK  6 active torsions:
REMARK  status: ('A' for Active; 'I' for Inactive)
REMARK    1  A    between atoms: C_3  and  C_4 
REMARK    2  A    between atoms: C_4  and  C_5 
REMARK       I    between atoms: C_5  and  N_6 
REMARK    3  A    between atoms: N_6  and  C_7 
REMARK    4  A    between atoms: C_7  and  C_8 
REMARK    5  A    between atoms: C_8  and  C_9 
REMARK    6  A    between atoms: C_28  and  O_29 
ROOT
HETATM    1  C   UNL     1      -6.771   2.107 -32.453  1.00  0.00     0.222 C 
HETATM    2  N   UNL     1      -8.129   1.898 -32.356  1.00  0.00    -0.360 N 
HETATM    3  O   UNL     1      -6.099   2.595 -31.547  1.00  0.00    -0.273 OA
HETATM    4  H   UNL     1      -8.615   1.401 -33.100  1.00  0.00     0.162 HD
ENDROOT
BRANCH   1   5
HETATM    5  C   UNL     1      -6.152   1.701 -33.777  1.00  0.00     0.148 C 
BRANCH   5   6
HETATM    6  C   UNL     1      -5.946   0.211 -33.833  1.00  0.00     0.033 C 
HETATM    7  C   UNL     1      -4.861  -0.449 -33.379  1.00  0.00    -0.036 C 
HETATM    8  C   UNL     1      -3.707   0.224 -32.677  1.00  0.00     0.050 C 
HETATM    9  C   UNL     1      -4.770  -1.909 -33.592  1.00  0.00     0.005 A 
HETATM   10  C   UNL     1      -5.718  -2.541 -34.404  1.00  0.00     0.099 A 
HETATM   11  C   UNL     1      -3.742  -2.698 -33.062  1.00  0.00     0.017 A 
HETATM   12  O   UNL     1      -6.836  -1.817 -34.870  1.00  0.00    -0.274 OA
HETATM   13  C   UNL     1      -5.638  -3.902 -34.761  1.00  0.00     0.006 A 
HETATM   14  C   UNL     1      -7.070  -0.512 -34.478  1.00  0.00     0.295 C 
HETATM   15  O   UNL     1      -8.146   0.040 -34.694  1.00  0.00    -0.259 OA
HETATM   16  C   UNL     1      -6.647  -4.518 -35.687  1.00  0.00     0.054 C 
HETATM   17  C   UNL     1      -4.603  -4.653 -34.196  1.00  0.00     0.074 A 
HETATM   18  C   UNL     1      -3.666  -4.062 -33.353  1.00  0.00     0.038 A 
BRANCH  17  19
HETATM   19  O   UNL     1      -4.438  -5.990 -34.417  1.00  0.00    -0.360 OA
HETATM   20  H   UNL     1      -3.497  -6.189 -34.539  1.00  0.00     0.217 HD
ENDBRANCH  17  19
ENDBRANCH   5   6
ENDBRANCH   1   5
BRANCH   2  21
HETATM   21  C   UNL     1      -8.864   2.339 -31.182  1.00  0.00     0.127 C 
BRANCH  21  22
HETATM   22  C   UNL     1      -9.590   3.665 -31.434  1.00  0.00     0.060 C 
BRANCH  22  23
HETATM   23  C   UNL     1     -10.099   3.800 -32.834  1.00  0.00    -0.029 A 
HETATM   24  C   UNL     1     -11.025   2.948 -33.517  1.00  0.00    -0.000 A 
HETATM   25  C   UNL     1     -11.174   3.447 -34.814  1.00  0.00     0.043 A 
HETATM   26  C   UNL     1     -11.747   1.792 -33.156  1.00  0.00     0.038 A 
HETATM   27  C   UNL     1     -12.001   2.849 -35.771  1.00  0.00     0.032 A 
HETATM   28  N   UNL     1     -10.376   4.563 -34.912  1.00  0.00    -0.365 N 
HETATM   29  C   UNL     1     -12.705   1.703 -35.390  1.00  0.00     0.026 A 
HETATM   30  C   UNL     1     -12.580   1.187 -34.103  1.00  0.00     0.035 A 
HETATM   31 CL   UNL     1     -13.465  -0.226 -33.667  1.00  0.00    -0.084 Cl
HETATM   32  H   UNL     1     -10.281   5.131 -35.743  1.00  0.00     0.165 HD
HETATM   33  C   UNL     1      -9.727   4.784 -33.730  1.00  0.00     0.096 A 
ENDBRANCH  22  23
ENDBRANCH  21  22
ENDBRANCH   2  21
TORSDOF 6
ENDMDL
MODEL 4
REMARK VINA RESULT:      -9.6      4.002     10.468
REMARK  6 active torsions:
REMARK  status: ('A' for Active; 'I' for Inactive)
REMARK    1  A    between atoms: C_3  and  C_4 
REMARK    2  A    between atoms: C_4  and  C_5 
REMARK       I    between atoms: C_5  and  N_6 
REMARK    3  A    between atoms: N_6  and  C_7 
REMARK    4  A    between atoms: C_7  and  C_8 
REMARK    5  A    between atoms: C_8  and  C_9 
REMARK    6  A    between atoms: C_28  and  O_29 
ROOT
HETATM    1  C   UNL     1      -4.356   2.516 -31.893  1.00  0.00     0.222 C 
HETATM    2  N   UNL     1      -3.010   2.760 -32.052  1.00  0.00    -0.360 N 
HETATM    3  O   UNL     1      -5.231   3.247 -32.352  1.00  0.00    -0.273 OA
HETATM    4  H   UNL     1      -2.334   2.069 -31.734  1.00  0.00     0.162 HD
ENDROOT
BRANCH   1   5
HETATM    5  C   UNL     1      -4.693   1.275 -31.089  1.00  0.00     0.148 C 
BRANCH   5   6
HETATM    6  C   UNL     1      -4.759   0.064 -31.981  1.00  0.00     0.033 C 
HETATM    7  C   UNL     1      -5.842  -0.341 -32.675  1.00  0.00    -0.036 C 
HETATM    8  C   UNL     1      -7.146   0.416 -32.705  1.00  0.00     0.050 C 
HETATM    9  C   UNL     1      -5.771  -1.606 -33.436  1.00  0.00     0.005 A 
HETATM   10  C   UNL     1      -4.655  -2.435 -33.282  1.00  0.00     0.099 A 
HETATM   11  C   UNL     1      -6.799  -2.054 -34.275  1.00  0.00     0.017 A 
HETATM   12  O   UNL     1      -3.543  -1.982 -32.541  1.00  0.00    -0.274 OA
HETATM   13  C   UNL     1      -4.559  -3.712 -33.870  1.00  0.00     0.006 A 
HETATM   14  C   UNL     1      -3.488  -0.701 -32.025  1.00  0.00     0.295 C 
HETATM   15  O   UNL     1      -2.442  -0.231 -31.582  1.00  0.00    -0.259 OA
HETATM   16  C   UNL     1      -3.366  -4.589 -33.622  1.00  0.00     0.054 C 
HETATM   17  C   UNL     1      -5.604  -4.110 -34.711  1.00  0.00     0.074 A 
HETATM   18  C   UNL     1      -6.710  -3.292 -34.915  1.00  0.00     0.038 A 
BRANCH  17  19
HETATM   19  O   UNL     1      -5.615  -5.299 -35.382  1.00  0.00    -0.360 OA
HETATM   20  H   UNL     1      -6.531  -5.580 -35.536  1.00  0.00     0.217 HD
ENDBRANCH  17  19
ENDBRANCH   5   6
ENDBRANCH   1   5
BRANCH   2  21
HETATM   21  C   UNL     1      -2.550   3.971 -32.711  1.00  0.00     0.127 C 
BRANCH  21  22
HETATM   22  C   UNL     1      -1.606   4.780 -31.815  1.00  0.00     0.060 C 
BRANCH  22  23
HETATM   23  C   UNL     1      -2.290   5.905 -31.105  1.00  0.00    -0.029 A 
HETATM   24  C   UNL     1      -1.716   6.842 -30.188  1.00  0.00    -0.000 A 
HETATM   25  C   UNL     1      -2.741   7.686 -29.755  1.00  0.00     0.043 A 
HETATM   26  C   UNL     1      -0.418   7.048 -29.677  1.00  0.00     0.038 A 
HETATM   27  C   UNL     1      -2.540   8.721 -28.835  1.00  0.00     0.032 A 
HETATM   28  N   UNL     1      -3.892   7.284 -30.391  1.00  0.00    -0.365 N 
HETATM   29  C   UNL     1      -1.246   8.904 -28.342  1.00  0.00     0.026 A 
HETATM   30  C   UNL     1      -0.203   8.081 -28.759  1.00  0.00     0.035 A 
HETATM   31 CL   UNL     1       1.381   8.336 -28.131  1.00  0.00    -0.084 Cl
HETATM   32  H   UNL     1      -4.799   7.713 -30.268  1.00  0.00     0.165 HD
HETATM   33  C   UNL     1      -3.632   6.216 -31.204  1.00  0.00     0.096 A 
ENDBRANCH  22  23
ENDBRANCH  21  22
ENDBRANCH   2  21
TORSDOF 6
ENDMDL
MODEL 5
REMARK VINA RESULT:      -9.5      4.019     10.604
REMARK  6 active torsions:
REMARK  status: ('A' for Active; 'I' for Inactive)
REMARK    1  A    between atoms: C_3  and  C_4 
REMARK    2  A    between atoms: C_4  and  C_5 
REMARK       I    between atoms: C_5  and  N_6 
REMARK    3  A    between atoms: N_6  and  C_7 
REMARK    4  A    between atoms: C_7  and  C_8 
REMARK    5  A    between atoms: C_8  and  C_9 
REMARK    6  A    between atoms: C_28  and  O_29 
ROOT
HETATM    1  C   UNL     1      -3.822   2.484 -31.762  1.00  0.00     0.222 C 
HETATM    2  N   UNL     1      -3.070   3.408 -31.070  1.00  0.00    -0.360 N 
HETATM    3  O   UNL     1      -4.187   2.648 -32.924  1.00  0.00    -0.273 OA
HETATM    4  H   UNL     1      -2.716   3.175 -30.145  1.00  0.00     0.162 HD
ENDROOT
BRANCH   1   5
HETATM    5  C   UNL     1      -4.189   1.239 -30.978  1.00  0.00     0.148 C 
BRANCH   5   6
HETATM    6  C   UNL     1      -4.381   0.066 -31.902  1.00  0.00     0.033 C 
HETATM    7  C   UNL     1      -5.517  -0.232 -32.565  1.00  0.00    -0.036 C 
HETATM    8  C   UNL     1      -6.758   0.624 -32.523  1.00  0.00     0.050 C 
HETATM    9  C   UNL     1      -5.573  -1.474 -33.365  1.00  0.00     0.005 A 
HETATM   10  C   UNL     1      -4.521  -2.391 -33.278  1.00  0.00     0.099 A 
HETATM   11  C   UNL     1      -6.663  -1.814 -34.176  1.00  0.00     0.017 A 
HETATM   12  O   UNL     1      -3.351  -2.049 -32.567  1.00  0.00    -0.274 OA
HETATM   13  C   UNL     1      -4.547  -3.652 -33.906  1.00  0.00     0.006 A 
HETATM   14  C   UNL     1      -3.177  -0.793 -32.017  1.00  0.00     0.295 C 
HETATM   15  O   UNL     1      -2.082  -0.420 -31.600  1.00  0.00    -0.259 OA
HETATM   16  C   UNL     1      -3.417  -4.627 -33.730  1.00  0.00     0.054 C 
HETATM   17  C   UNL     1      -5.648  -3.942 -34.718  1.00  0.00     0.074 A 
HETATM   18  C   UNL     1      -6.694  -3.034 -34.856  1.00  0.00     0.038 A 
BRANCH  17  19
HETATM   19  O   UNL     1      -5.777  -5.103 -35.422  1.00  0.00    -0.360 OA
HETATM   20  H   UNL     1      -6.595  -5.555 -35.163  1.00  0.00     0.217 HD
ENDBRANCH  17  19
ENDBRANCH   5   6
ENDBRANCH   1   5
BRANCH   2  21
HETATM   21  C   UNL     1      -2.741   4.691 -31.668  1.00  0.00     0.127 C 
BRANCH  21  22
HETATM   22  C   UNL     1      -1.233   4.839 -31.897  1.00  0.00     0.060 C 
BRANCH  22  23
HETATM   23  C   UNL     1      -0.483   5.203 -30.654  1.00  0.00    -0.029 A 
HETATM   24  C   UNL     1      -0.560   6.422 -29.908  1.00  0.00    -0.000 A 
HETATM   25  C   UNL     1       0.344   6.321 -28.847  1.00  0.00     0.043 A 
HETATM   26  C   UNL     1      -1.310   7.609 -30.039  1.00  0.00     0.038 A 
HETATM   27  C   UNL     1       0.542   7.345 -27.914  1.00  0.00     0.032 A 
HETATM   28  N   UNL     1       0.940   5.086 -28.940  1.00  0.00    -0.365 N 
HETATM   29  C   UNL     1      -0.211   8.512 -28.066  1.00  0.00     0.026 A 
HETATM   30  C   UNL     1      -1.123   8.638 -29.111  1.00  0.00     0.035 A 
HETATM   31 CL   UNL     1      -2.037  10.091 -29.267  1.00  0.00    -0.084 Cl
HETATM   32  H   UNL     1       1.644   4.736 -28.304  1.00  0.00     0.165 HD
HETATM   33  C   UNL     1       0.451   4.406 -30.020  1.00  0.00     0.096 A 
ENDBRANCH  22  23
ENDBRANCH  21  22
ENDBRANCH   2  21
TORSDOF 6
ENDMDL
MODEL 6
REMARK VINA RESULT:      -9.5      2.170      3.024
REMARK  6 active torsions:
REMARK  status: ('A' for Active; 'I' for Inactive)
REMARK    1  A    between atoms: C_3  and  C_4 
REMARK    2  A    between atoms: C_4  and  C_5 
REMARK       I    between atoms: C_5  and  N_6 
REMARK    3  A    between atoms: N_6  and  C_7 
REMARK    4  A    between atoms: C_7  and  C_8 
REMARK    5  A    between atoms: C_8  and  C_9 
REMARK    6  A    between atoms: C_28  and  O_29 
ROOT
HETATM    1  C   UNL     1      -2.332   4.713 -33.407  1.00  0.00     0.222 C 
HETATM    2  N   UNL     1      -2.604   3.812 -32.402  1.00  0.00    -0.360 N 
HETATM    3  O   UNL     1      -3.093   4.919 -34.350  1.00  0.00    -0.273 OA
HETATM    4  H   UNL     1      -1.983   3.755 -31.597  1.00  0.00     0.162 HD
ENDROOT
BRANCH   1   5
HETATM    5  C   UNL     1      -1.005   5.436 -33.279  1.00  0.00     0.148 C 
BRANCH   5   6
HETATM    6  C   UNL     1      -1.095   6.537 -32.256  1.00  0.00     0.033 C 
HETATM    7  C   UNL     1      -0.711   6.443 -30.967  1.00  0.00    -0.036 C 
HETATM    8  C   UNL     1      -0.063   5.216 -30.375  1.00  0.00     0.050 C 
HETATM    9  C   UNL     1      -0.951   7.589 -30.064  1.00  0.00     0.005 A 
HETATM   10  C   UNL     1      -1.718   8.667 -30.517  1.00  0.00     0.099 A 
HETATM   11  C   UNL     1      -0.489   7.633 -28.743  1.00  0.00     0.017 A 
HETATM   12  O   UNL     1      -2.111   8.727 -31.871  1.00  0.00    -0.274 OA
HETATM   13  C   UNL     1      -2.100   9.741 -29.688  1.00  0.00     0.006 A 
HETATM   14  C   UNL     1      -1.688   7.787 -32.792  1.00  0.00     0.295 C 
HETATM   15  O   UNL     1      -1.836   7.959 -34.000  1.00  0.00    -0.259 OA
HETATM   16  C   UNL     1      -2.978  10.843 -30.207  1.00  0.00     0.054 C 
HETATM   17  C   UNL     1      -1.603   9.748 -28.381  1.00  0.00     0.074 A 
HETATM   18  C   UNL     1      -0.805   8.710 -27.912  1.00  0.00     0.038 A 
BRANCH  17  19
HETATM   19  O   UNL     1      -1.853  10.751 -27.489  1.00  0.00    -0.360 OA
HETATM   20  H   UNL     1      -1.624  10.458 -26.593  1.00  0.00     0.217 HD
ENDBRANCH  17  19
ENDBRANCH   5   6
ENDBRANCH   1   5
BRANCH   2  21
HETATM   21  C   UNL     1      -3.792   2.976 -32.459  1.00  0.00     0.127 C 
BRANCH  21  22
HETATM   22  C   UNL     1      -3.791   1.914 -31.354  1.00  0.00     0.060 C 
BRANCH  22  23
HETATM   23  C   UNL     1      -3.739   0.515 -31.884  1.00  0.00    -0.029 A 
HETATM   24  C   UNL     1      -4.614  -0.095 -32.838  1.00  0.00    -0.000 A 
HETATM   25  C   UNL     1      -4.199  -1.420 -32.999  1.00  0.00     0.043 A 
HETATM   26  C   UNL     1      -5.728   0.353 -33.577  1.00  0.00     0.038 A 
HETATM   27  C   UNL     1      -4.842  -2.322 -33.853  1.00  0.00     0.032 A 
HETATM   28  N   UNL     1      -3.110  -1.604 -32.180  1.00  0.00    -0.365 N 
HETATM   29  C   UNL     1      -5.945  -1.855 -34.574  1.00  0.00     0.026 A 
HETATM   30  C   UNL     1      -6.377  -0.538 -34.437  1.00  0.00     0.035 A 
HETATM   31 CL   UNL     1      -7.740   0.005 -35.342  1.00  0.00    -0.084 Cl
HETATM   32  H   UNL     1      -2.600  -2.472 -32.088  1.00  0.00     0.165 HD
HETATM   33  C   UNL     1      -2.824  -0.450 -31.508  1.00  0.00     0.096 A 
ENDBRANCH  22  23
ENDBRANCH  21  22
ENDBRANCH   2  21
TORSDOF 6
ENDMDL
MODEL 7
REMARK VINA RESULT:      -9.4      1.204      2.060
REMARK  6 active torsions:
REMARK  status: ('A' for Active; 'I' for Inactive)
REMARK    1  A    between atoms: C_3  and  C_4 
REMARK    2  A    between atoms: C_4  and  C_5 
REMARK       I    between atoms: C_5  and  N_6 
REMARK    3  A    between atoms: N_6  and  C_7 
REMARK    4  A    between atoms: C_7  and  C_8 
REMARK    5  A    between atoms: C_8  and  C_9 
REMARK    6  A    between atoms: C_28  and  O_29 
ROOT
HETATM    1  C   UNL     1      -2.387   4.487 -32.557  1.00  0.00     0.222 C 
HETATM    2  N   UNL     1      -2.492   3.697 -31.435  1.00  0.00    -0.360 N 
HETATM    3  O   UNL     1      -3.285   4.600 -33.388  1.00  0.00    -0.273 OA
HETATM    4  H   UNL     1      -1.755   3.719 -30.734  1.00  0.00     0.162 HD
ENDROOT
BRANCH   1   5
HETATM    5  C   UNL     1      -1.062   5.211 -32.710  1.00  0.00     0.148 C 
BRANCH   5   6
HETATM    6  C   UNL     1      -0.885   6.232 -31.618  1.00  0.00     0.033 C 
HETATM    7  C   UNL     1      -0.111   6.084 -30.523  1.00  0.00    -0.036 C 
HETATM    8  C   UNL     1       0.752   4.874 -30.268  1.00  0.00     0.050 C 
HETATM    9  C   UNL     1      -0.116   7.146 -29.496  1.00  0.00     0.005 A 
HETATM   10  C   UNL     1      -1.042   8.190 -29.595  1.00  0.00     0.099 A 
HETATM   11  C   UNL     1       0.733   7.138 -28.382  1.00  0.00     0.017 A 
HETATM   12  O   UNL     1      -1.841   8.309 -30.752  1.00  0.00    -0.274 OA
HETATM   13  C   UNL     1      -1.200   9.175 -28.600  1.00  0.00     0.006 A 
HETATM   14  C   UNL     1      -1.680   7.466 -31.836  1.00  0.00     0.295 C 
HETATM   15  O   UNL     1      -2.208   7.705 -32.920  1.00  0.00    -0.259 OA
HETATM   16  C   UNL     1      -2.253  10.238 -28.726  1.00  0.00     0.054 C 
HETATM   17  C   UNL     1      -0.320   9.135 -27.514  1.00  0.00     0.074 A 
HETATM   18  C   UNL     1       0.638   8.131 -27.405  1.00  0.00     0.038 A 
BRANCH  17  19
HETATM   19  O   UNL     1      -0.330  10.055 -26.506  1.00  0.00    -0.360 OA
HETATM   20  H   UNL     1      -0.981   9.799 -25.834  1.00  0.00     0.217 HD
ENDBRANCH  17  19
ENDBRANCH   5   6
ENDBRANCH   1   5
BRANCH   2  21
HETATM   21  C   UNL     1      -3.667   2.867 -31.222  1.00  0.00     0.127 C 
BRANCH  21  22
HETATM   22  C   UNL     1      -3.476   1.458 -31.791  1.00  0.00     0.060 C 
BRANCH  22  23
HETATM   23  C   UNL     1      -4.611   1.016 -32.661  1.00  0.00    -0.029 A 
HETATM   24  C   UNL     1      -4.817  -0.273 -33.247  1.00  0.00    -0.000 A 
HETATM   25  C   UNL     1      -5.990  -0.206 -34.004  1.00  0.00     0.043 A 
HETATM   26  C   UNL     1      -4.112  -1.493 -33.211  1.00  0.00     0.038 A 
HETATM   27  C   UNL     1      -6.491  -1.290 -34.732  1.00  0.00     0.032 A 
HETATM   28  N   UNL     1      -6.481   1.073 -33.876  1.00  0.00    -0.365 N 
HETATM   29  C   UNL     1      -5.773  -2.488 -34.682  1.00  0.00     0.026 A 
HETATM   30  C   UNL     1      -4.605  -2.586 -33.932  1.00  0.00     0.035 A 
HETATM   31 CL   UNL     1      -3.746  -4.079 -33.891  1.00  0.00    -0.084 Cl
HETATM   32  H   UNL     1      -7.323   1.413 -34.320  1.00  0.00     0.165 HD
HETATM   33  C   UNL     1      -5.662   1.814 -33.072  1.00  0.00     0.096 A 
ENDBRANCH  22  23
ENDBRANCH  21  22
ENDBRANCH   2  21
TORSDOF 6
ENDMDL
MODEL 8
REMARK VINA RESULT:      -9.4      6.984     10.058
REMARK  6 active torsions:
REMARK  status: ('A' for Active; 'I' for Inactive)
REMARK    1  A    between atoms: C_3  and  C_4 
REMARK    2  A    between atoms: C_4  and  C_5 
REMARK       I    between atoms: C_5  and  N_6 
REMARK    3  A    between atoms: N_6  and  C_7 
REMARK    4  A    between atoms: C_7  and  C_8 
REMARK    5  A    between atoms: C_8  and  C_9 
REMARK    6  A    between atoms: C_28  and  O_29 
ROOT
HETATM    1  C   UNL     1      -7.194   1.749 -32.198  1.00  0.00     0.222 C 
HETATM    2  N   UNL     1      -8.007   2.861 -32.217  1.00  0.00    -0.360 N 
HETATM    3  O   UNL     1      -7.310   0.844 -31.374  1.00  0.00    -0.273 OA
HETATM    4  H   UNL     1      -7.926   3.528 -32.981  1.00  0.00     0.162 HD
ENDROOT
BRANCH   1   5
HETATM    5  C   UNL     1      -6.121   1.720 -33.269  1.00  0.00     0.148 C 
BRANCH   5   6
HETATM    6  C   UNL     1      -5.719   0.303 -33.582  1.00  0.00     0.033 C 
HETATM    7  C   UNL     1      -6.447  -0.579 -34.298  1.00  0.00    -0.036 C 
HETATM    8  C   UNL     1      -7.762  -0.239 -34.953  1.00  0.00     0.050 C 
HETATM    9  C   UNL     1      -5.954  -1.965 -34.439  1.00  0.00     0.005 A 
HETATM   10  C   UNL     1      -4.845  -2.375 -33.692  1.00  0.00     0.099 A 
HETATM   11  C   UNL     1      -6.576  -2.920 -35.252  1.00  0.00     0.017 A 
HETATM   12  O   UNL     1      -4.112  -1.427 -32.947  1.00  0.00    -0.274 OA
HETATM   13  C   UNL     1      -4.383  -3.707 -33.670  1.00  0.00     0.006 A 
HETATM   14  C   UNL     1      -4.410  -0.078 -32.997  1.00  0.00     0.295 C 
HETATM   15  O   UNL     1      -3.645   0.767 -32.537  1.00  0.00    -0.259 OA
HETATM   16  C   UNL     1      -3.225  -4.108 -32.802  1.00  0.00     0.054 C 
HETATM   17  C   UNL     1      -5.026  -4.622 -34.509  1.00  0.00     0.074 A 
HETATM   18  C   UNL     1      -6.109  -4.236 -35.294  1.00  0.00     0.038 A 
BRANCH  17  19
HETATM   19  O   UNL     1      -4.650  -5.929 -34.623  1.00  0.00    -0.360 OA
HETATM   20  H   UNL     1      -4.028  -6.154 -33.913  1.00  0.00     0.217 HD
ENDBRANCH  17  19
ENDBRANCH   5   6
ENDBRANCH   1   5
BRANCH   2  21
HETATM   21  C   UNL     1      -9.007   3.064 -31.181  1.00  0.00     0.127 C 
BRANCH  21  22
HETATM   22  C   UNL     1      -9.881   4.289 -31.471  1.00  0.00     0.060 C 
BRANCH  22  23
HETATM   23  C   UNL     1     -10.330   4.367 -32.896  1.00  0.00    -0.029 A 
HETATM   24  C   UNL     1     -11.141   3.431 -33.613  1.00  0.00    -0.000 A 
HETATM   25  C   UNL     1     -11.269   3.904 -34.921  1.00  0.00     0.043 A 
HETATM   26  C   UNL     1     -11.775   2.218 -33.274  1.00  0.00     0.038 A 
HETATM   27  C   UNL     1     -11.991   3.227 -35.910  1.00  0.00     0.032 A 
HETATM   28  N   UNL     1     -10.570   5.086 -34.994  1.00  0.00    -0.365 N 
HETATM   29  C   UNL     1     -12.609   2.026 -35.550  1.00  0.00     0.026 A 
HETATM   30  C   UNL     1     -12.502   1.533 -34.252  1.00  0.00     0.035 A 
HETATM   31 CL   UNL     1     -13.279   0.050 -33.843  1.00  0.00    -0.084 Cl
HETATM   32  H   UNL     1     -10.484   5.654 -35.826  1.00  0.00     0.165 HD
HETATM   33  C   UNL     1     -10.003   5.373 -33.784  1.00  0.00     0.096 A 
ENDBRANCH  22  23
ENDBRANCH  21  22
ENDBRANCH   2  21
TORSDOF 6
ENDMDL
MODEL 9
REMARK VINA RESULT:      -9.0      3.922     10.351
REMARK  6 active torsions:
REMARK  status: ('A' for Active; 'I' for Inactive)
REMARK    1  A    between atoms: C_3  and  C_4 
REMARK    2  A    between atoms: C_4  and  C_5 
REMARK       I    between atoms: C_5  and  N_6 
REMARK    3  A    between atoms: N_6  and  C_7 
REMARK    4  A    between atoms: C_7  and  C_8 
REMARK    5  A    between atoms: C_8  and  C_9 
REMARK    6  A    between atoms: C_28  and  O_29 
ROOT
HETATM    1  C   UNL     1      -3.312   3.644 -31.726  1.00  0.00     0.222 C 
HETATM    2  N   UNL     1      -2.917   4.812 -31.111  1.00  0.00    -0.360 N 
HETATM    3  O   UNL     1      -3.074   3.391 -32.905  1.00  0.00    -0.273 OA
HETATM    4  H   UNL     1      -3.057   4.924 -30.109  1.00  0.00     0.162 HD
ENDROOT
BRANCH   1   5
HETATM    5  C   UNL     1      -4.083   2.683 -30.843  1.00  0.00     0.148 C 
BRANCH   5   6
HETATM    6  C   UNL     1      -4.599   1.519 -31.646  1.00  0.00     0.033 C 
HETATM    7  C   UNL     1      -3.958   0.347 -31.829  1.00  0.00    -0.036 C 
HETATM    8  C   UNL     1      -2.637   0.008 -31.186  1.00  0.00     0.050 C 
HETATM    9  C   UNL     1      -4.559  -0.665 -32.724  1.00  0.00     0.005 A 
HETATM   10  C   UNL     1      -5.678  -0.322 -33.490  1.00  0.00     0.099 A 
HETATM   11  C   UNL     1      -4.031  -1.951 -32.891  1.00  0.00     0.017 A 
HETATM   12  O   UNL     1      -6.318   0.918 -33.278  1.00  0.00    -0.274 OA
HETATM   13  C   UNL     1      -6.240  -1.178 -34.457  1.00  0.00     0.006 A 
HETATM   14  C   UNL     1      -5.919   1.778 -32.272  1.00  0.00     0.295 C 
HETATM   15  O   UNL     1      -6.607   2.741 -31.940  1.00  0.00    -0.259 OA
HETATM   16  C   UNL     1      -7.404  -0.737 -35.298  1.00  0.00     0.054 C 
HETATM   17  C   UNL     1      -5.688  -2.458 -34.578  1.00  0.00     0.074 A 
HETATM   18  C   UNL     1      -4.598  -2.843 -33.803  1.00  0.00     0.038 A 
BRANCH  17  19
HETATM   19  O   UNL     1      -6.166  -3.403 -35.438  1.00  0.00    -0.360 OA
HETATM   20  H   UNL     1      -6.497  -2.976 -36.244  1.00  0.00     0.217 HD
ENDBRANCH  17  19
ENDBRANCH   5   6
ENDBRANCH   1   5
BRANCH   2  21
HETATM   21  C   UNL     1      -2.263   5.864 -31.871  1.00  0.00     0.127 C 
BRANCH  21  22
HETATM   22  C   UNL     1      -0.741   5.683 -31.897  1.00  0.00     0.060 C 
BRANCH  22  23
HETATM   23  C   UNL     1      -0.132   5.636 -30.532  1.00  0.00    -0.029 A 
HETATM   24  C   UNL     1      -0.186   6.639 -29.512  1.00  0.00    -0.000 A 
HETATM   25  C   UNL     1       0.554   6.170 -28.424  1.00  0.00     0.043 A 
HETATM   26  C   UNL     1      -0.791   7.909 -29.414  1.00  0.00     0.038 A 
HETATM   27  C   UNL     1       0.727   6.904 -27.245  1.00  0.00     0.032 A 
HETATM   28  N   UNL     1       1.032   4.927 -28.766  1.00  0.00    -0.365 N 
HETATM   29  C   UNL     1       0.120   8.161 -27.173  1.00  0.00     0.026 A 
HETATM   30  C   UNL     1      -0.627   8.652 -28.240  1.00  0.00     0.035 A 
HETATM   31 CL   UNL     1      -1.364  10.205 -28.115  1.00  0.00    -0.084 Cl
HETATM   32  H   UNL     1       1.606   4.347 -28.170  1.00  0.00     0.165 HD
HETATM   33  C   UNL     1       0.626   4.596 -30.028  1.00  0.00     0.096 A 
ENDBRANCH  22  23
ENDBRANCH  21  22
ENDBRANCH   2  21
TORSDOF 6
ENDMDL
MODEL 10
REMARK VINA RESULT:      -9.0      3.813      9.962
REMARK  6 active torsions:
REMARK  status: ('A' for Active; 'I' for Inactive)
REMARK    1  A    between atoms: C_3  and  C_4 
REMARK    2  A    between atoms: C_4  and  C_5 
REMARK       I    between atoms: C_5  and  N_6 
REMARK    3  A    between atoms: N_6  and  C_7 
REMARK    4  A    between atoms: C_7  and  C_8 
REMARK    5  A    between atoms: C_8  and  C_9 
REMARK    6  A    between atoms: C_28  and  O_29 
ROOT
HETATM    1  C   UNL     1      -4.620   2.476 -31.634  1.00  0.00     0.222 C 
HETATM    2  N   UNL     1      -5.402   3.449 -31.052  1.00  0.00    -0.360 N 
HETATM    3  O   UNL     1      -4.015   2.642 -32.691  1.00  0.00    -0.273 OA
HETATM    4  H   UNL     1      -5.800   3.288 -30.129  1.00  0.00     0.162 HD
ENDROOT
BRANCH   1   5
HETATM    5  C   UNL     1      -4.567   1.161 -30.881  1.00  0.00     0.148 C 
BRANCH   5   6
HETATM    6  C   UNL     1      -4.674  -0.002 -31.832  1.00  0.00     0.033 C 
HETATM    7  C   UNL     1      -5.782  -0.359 -32.512  1.00  0.00    -0.036 C 
HETATM    8  C   UNL     1      -7.077   0.412 -32.463  1.00  0.00     0.050 C 
HETATM    9  C   UNL     1      -5.750  -1.584 -33.338  1.00  0.00     0.005 A 
HETATM   10  C   UNL     1      -4.640  -2.432 -33.262  1.00  0.00     0.099 A 
HETATM   11  C   UNL     1      -6.808  -1.977 -34.167  1.00  0.00     0.017 A 
HETATM   12  O   UNL     1      -3.501  -2.030 -32.533  1.00  0.00    -0.274 OA
HETATM   13  C   UNL     1      -4.578  -3.678 -33.917  1.00  0.00     0.006 A 
HETATM   14  C   UNL     1      -3.415  -0.777 -31.954  1.00  0.00     0.295 C 
HETATM   15  O   UNL     1      -2.350  -0.342 -31.519  1.00  0.00    -0.259 OA
HETATM   16  C   UNL     1      -3.388  -4.579 -33.751  1.00  0.00     0.054 C 
HETATM   17  C   UNL     1      -5.651  -4.021 -34.745  1.00  0.00     0.074 A 
HETATM   18  C   UNL     1      -6.754  -3.181 -34.873  1.00  0.00     0.038 A 
BRANCH  17  19
HETATM   19  O   UNL     1      -5.698  -5.173 -35.475  1.00  0.00    -0.360 OA
HETATM   20  H   UNL     1      -6.348  -5.780 -35.090  1.00  0.00     0.217 HD
ENDBRANCH  17  19
ENDBRANCH   5   6
ENDBRANCH   1   5
BRANCH   2  21
HETATM   21  C   UNL     1      -5.624   4.719 -31.723  1.00  0.00     0.127 C 
BRANCH  21  22
HETATM   22  C   UNL     1      -5.627   5.890 -30.734  1.00  0.00     0.060 C 
BRANCH  22  23
HETATM   23  C   UNL     1      -4.254   6.294 -30.297  1.00  0.00    -0.029 A 
HETATM   24  C   UNL     1      -3.062   6.345 -31.087  1.00  0.00    -0.000 A 
HETATM   25  C   UNL     1      -2.020   6.746 -30.246  1.00  0.00     0.043 A 
HETATM   26  C   UNL     1      -2.767   6.080 -32.440  1.00  0.00     0.038 A 
HETATM   27  C   UNL     1      -0.699   6.889 -30.684  1.00  0.00     0.032 A 
HETATM   28  N   UNL     1      -2.561   6.938 -28.997  1.00  0.00    -0.365 N 
HETATM   29  C   UNL     1      -0.431   6.620 -32.029  1.00  0.00     0.026 A 
HETATM   30  C   UNL     1      -1.451   6.224 -32.891  1.00  0.00     0.035 A 
HETATM   31 CL   UNL     1      -1.085   5.901 -34.544  1.00  0.00    -0.084 Cl
HETATM   32  H   UNL     1      -2.038   7.230 -28.182  1.00  0.00     0.165 HD
HETATM   33  C   UNL     1      -3.901   6.671 -29.016  1.00  0.00     0.096 A 
ENDBRANCH  22  23
ENDBRANCH  21  22
ENDBRANCH   2  21
TORSDOF 6
ENDMDL
