MODEL 1
REMARK VINA RESULT:      -8.0      0.000      0.000
REMARK  7 active torsions:
REMARK  status: ('A' for Active; 'I' for Inactive)
REMARK    1  A    between atoms: C_2  and  N_3 
REMARK    2  A    between atoms: N_3  and  C_4 
REMARK    3  A    between atoms: C_6  and  N_7 
REMARK    4  A    between atoms: N_7  and  C_8 
REMARK    5  A    between atoms: C_8  and  C_9 
REMARK    6  A    between atoms: C_9  and  C_10 
REMARK    7  A    between atoms: C_13  and  O_14 
ROOT
HETATM    1  C   UNL     1      -6.405  -0.910 -33.952  1.00  0.00     0.119 A 
HETATM    2  N   UNL     1      -5.517  -0.009 -33.492  1.00  0.00    -0.207 NA
HETATM    3  C   UNL     1      -4.267  -0.418 -33.228  1.00  0.00     0.181 A 
HETATM    4  N   UNL     1      -3.867  -1.668 -33.443  1.00  0.00    -0.330 N 
HETATM    5  H   UNL     1      -2.890  -1.875 -33.281  1.00  0.00     0.168 HD
HETATM    6  C   UNL     1      -4.700  -2.600 -33.917  1.00  0.00     0.048 A 
HETATM    7  C   UNL     1      -6.034  -2.250 -34.196  1.00  0.00     0.031 A 
HETATM    8  C   UNL     1      -4.238  -3.907 -34.136  1.00  0.00     0.030 A 
HETATM    9  C   UNL     1      -5.102  -4.880 -34.638  1.00  0.00     0.002 A 
HETATM   10  C   UNL     1      -6.422  -4.553 -34.929  1.00  0.00     0.001 A 
HETATM   11  C   UNL     1      -6.886  -3.253 -34.715  1.00  0.00     0.017 A 
ENDROOT
BRANCH   3  12
HETATM   12  N   UNL     1      -3.305   0.454 -32.730  1.00  0.00    -0.262 NA
HETATM   13  H   UNL     1      -2.358   0.204 -32.997  1.00  0.00     0.130 HD
BRANCH  12  14
HETATM   14  C   UNL     1      -3.404   0.726 -31.287  1.00  0.00     0.100 C 
BRANCH  14  15
HETATM   15  C   UNL     1      -4.342   1.917 -31.051  1.00  0.00     0.053 C 
BRANCH  15  16
HETATM   16  C   UNL     1      -4.041   3.071 -31.971  1.00  0.00    -0.057 A 
HETATM   17  C   UNL     1      -2.793   3.703 -31.930  1.00  0.00     0.010 A 
HETATM   18  C   UNL     1      -2.517   4.772 -32.786  1.00  0.00     0.037 A 
HETATM   19  C   UNL     1      -3.475   5.225 -33.693  1.00  0.00     0.068 A 
HETATM   20  C   UNL     1      -4.724   4.608 -33.729  1.00  0.00     0.037 A 
HETATM   21  C   UNL     1      -5.007   3.538 -32.871  1.00  0.00     0.010 A 
BRANCH  19  22
HETATM   22  O   UNL     1      -3.070   6.270 -34.477  1.00  0.00    -0.356 OA
HETATM   23  C   UNL     1      -1.980   7.050 -33.996  1.00  0.00     0.210 C 
ENDBRANCH  19  22
ENDBRANCH  15  16
ENDBRANCH  14  15
ENDBRANCH  12  14
ENDBRANCH   3  12
BRANCH   1  24
HETATM   24  N   UNL     1      -7.701  -0.489 -34.254  1.00  0.00    -0.273 NA
HETATM   25  H   UNL     1      -8.322  -1.268 -34.461  1.00  0.00     0.129 HD
BRANCH  24  26
HETATM   26  C   UNL     1      -8.346   0.514 -33.397  1.00  0.00     0.053 C 
HETATM   27  C   UNL     1      -9.661  -0.016 -32.831  1.00  0.00     0.026 C 
HETATM   28  C   UNL     1      -8.606   1.758 -34.249  1.00  0.00     0.026 C 
ENDBRANCH  24  26
ENDBRANCH   1  24
TORSDOF 7
ENDMDL
MODEL 2
REMARK VINA RESULT:      -8.0      3.254      6.633
REMARK  7 active torsions:
REMARK  status: ('A' for Active; 'I' for Inactive)
REMARK    1  A    between atoms: C_2  and  N_3 
REMARK    2  A    between atoms: N_3  and  C_4 
REMARK    3  A    between atoms: C_6  and  N_7 
REMARK    4  A    between atoms: N_7  and  C_8 
REMARK    5  A    between atoms: C_8  and  C_9 
REMARK    6  A    between atoms: C_9  and  C_10 
REMARK    7  A    between atoms: C_13  and  O_14 
ROOT
HETATM    1  C   UNL     1      -5.001  -0.768 -33.905  1.00  0.00     0.119 A 
HETATM    2  N   UNL     1      -6.004   0.085 -34.185  1.00  0.00    -0.207 NA
HETATM    3  C   UNL     1      -7.124  -0.402 -34.740  1.00  0.00     0.181 A 
HETATM    4  N   UNL     1      -7.291  -1.699 -34.984  1.00  0.00    -0.330 N 
HETATM    5  H   UNL     1      -8.191  -1.990 -35.342  1.00  0.00     0.168 HD
HETATM    6  C   UNL     1      -6.337  -2.594 -34.708  1.00  0.00     0.048 A 
HETATM    7  C   UNL     1      -5.124  -2.153 -34.146  1.00  0.00     0.031 A 
HETATM    8  C   UNL     1      -6.554  -3.955 -34.975  1.00  0.00     0.030 A 
HETATM    9  C   UNL     1      -5.564  -4.892 -34.681  1.00  0.00     0.002 A 
HETATM   10  C   UNL     1      -4.362  -4.479 -34.116  1.00  0.00     0.001 A 
HETATM   11  C   UNL     1      -4.143  -3.126 -33.847  1.00  0.00     0.017 A 
ENDROOT
BRANCH   3  12
HETATM   12  N   UNL     1      -8.190   0.425 -35.076  1.00  0.00    -0.262 NA
HETATM   13  H   UNL     1      -8.260   0.607 -36.072  1.00  0.00     0.130 HD
BRANCH  12  14
HETATM   14  C   UNL     1      -8.280   1.668 -34.293  1.00  0.00     0.100 C 
BRANCH  14  15
HETATM   15  C   UNL     1      -9.036   1.398 -32.985  1.00  0.00     0.053 C 
BRANCH  15  16
HETATM   16  C   UNL     1     -10.527   1.530 -33.150  1.00  0.00    -0.057 A 
HETATM   17  C   UNL     1     -11.308   0.411 -33.464  1.00  0.00     0.010 A 
HETATM   18  C   UNL     1     -12.691   0.538 -33.614  1.00  0.00     0.037 A 
HETATM   19  C   UNL     1     -13.316   1.775 -33.451  1.00  0.00     0.068 A 
HETATM   20  C   UNL     1     -12.542   2.894 -33.150  1.00  0.00     0.037 A 
HETATM   21  C   UNL     1     -11.154   2.773 -33.003  1.00  0.00     0.010 A 
BRANCH  19  22
HETATM   22  O   UNL     1     -14.673   1.755 -33.616  1.00  0.00    -0.356 OA
HETATM   23  C   UNL     1     -15.212   0.681 -34.379  1.00  0.00     0.210 C 
ENDBRANCH  19  22
ENDBRANCH  15  16
ENDBRANCH  14  15
ENDBRANCH  12  14
ENDBRANCH   3  12
BRANCH   1  24
HETATM   24  N   UNL     1      -3.842  -0.274 -33.304  1.00  0.00    -0.273 NA
HETATM   25  H   UNL     1      -3.220   0.172 -33.974  1.00  0.00     0.129 HD
BRANCH  24  26
HETATM   26  C   UNL     1      -3.952   0.497 -32.060  1.00  0.00     0.053 C 
HETATM   27  C   UNL     1      -3.595   1.963 -32.293  1.00  0.00     0.026 C 
HETATM   28  C   UNL     1      -2.992  -0.120 -31.041  1.00  0.00     0.026 C 
ENDBRANCH  24  26
ENDBRANCH   1  24
TORSDOF 7
ENDMDL
MODEL 3
REMARK VINA RESULT:      -7.9      1.755      2.473
REMARK  7 active torsions:
REMARK  status: ('A' for Active; 'I' for Inactive)
REMARK    1  A    between atoms: C_2  and  N_3 
REMARK    2  A    between atoms: N_3  and  C_4 
REMARK    3  A    between atoms: C_6  and  N_7 
REMARK    4  A    between atoms: N_7  and  C_8 
REMARK    5  A    between atoms: C_8  and  C_9 
REMARK    6  A    between atoms: C_9  and  C_10 
REMARK    7  A    between atoms: C_13  and  O_14 
ROOT
HETATM    1  C   UNL     1      -6.372   0.533 -32.989  1.00  0.00     0.119 A 
HETATM    2  N   UNL     1      -5.432   1.290 -32.393  1.00  0.00    -0.207 NA
HETATM    3  C   UNL     1      -4.181   0.812 -32.310  1.00  0.00     0.181 A 
HETATM    4  N   UNL     1      -3.833  -0.362 -32.830  1.00  0.00    -0.330 N 
HETATM    5  H   UNL     1      -2.855  -0.615 -32.782  1.00  0.00     0.168 HD
HETATM    6  C   UNL     1      -4.720  -1.146 -33.450  1.00  0.00     0.048 A 
HETATM    7  C   UNL     1      -6.057  -0.720 -33.555  1.00  0.00     0.031 A 
HETATM    8  C   UNL     1      -4.310  -2.375 -33.991  1.00  0.00     0.030 A 
HETATM    9  C   UNL     1      -5.231  -3.193 -34.645  1.00  0.00     0.002 A 
HETATM   10  C   UNL     1      -6.556  -2.787 -34.769  1.00  0.00     0.001 A 
HETATM   11  C   UNL     1      -6.967  -1.564 -34.234  1.00  0.00     0.017 A 
ENDROOT
BRANCH   3  12
HETATM   12  N   UNL     1      -3.166   1.531 -31.688  1.00  0.00    -0.262 NA
HETATM   13  H   UNL     1      -2.922   1.172 -30.771  1.00  0.00     0.130 HD
BRANCH  12  14
HETATM   14  C   UNL     1      -3.369   2.989 -31.660  1.00  0.00     0.100 C 
BRANCH  14  15
HETATM   15  C   UNL     1      -2.648   3.631 -32.852  1.00  0.00     0.053 C 
BRANCH  15  16
HETATM   16  C   UNL     1      -2.467   5.116 -32.678  1.00  0.00    -0.057 A 
HETATM   17  C   UNL     1      -2.893   5.750 -31.505  1.00  0.00     0.010 A 
HETATM   18  C   UNL     1      -2.722   7.127 -31.347  1.00  0.00     0.037 A 
HETATM   19  C   UNL     1      -2.123   7.891 -32.349  1.00  0.00     0.068 A 
HETATM   20  C   UNL     1      -1.707   7.267 -33.524  1.00  0.00     0.037 A 
HETATM   21  C   UNL     1      -1.881   5.888 -33.689  1.00  0.00     0.010 A 
BRANCH  19  22
HETATM   22  O   UNL     1      -2.008   9.223 -32.060  1.00  0.00    -0.356 OA
HETATM   23  C   UNL     1      -2.470   9.645 -30.782  1.00  0.00     0.210 C 
ENDBRANCH  19  22
ENDBRANCH  15  16
ENDBRANCH  14  15
ENDBRANCH  12  14
ENDBRANCH   3  12
BRANCH   1  24
HETATM   24  N   UNL     1      -7.671   1.032 -33.103  1.00  0.00    -0.273 NA
HETATM   25  H   UNL     1      -8.056   0.896 -34.034  1.00  0.00     0.129 HD
BRANCH  24  26
HETATM   26  C   UNL     1      -8.650   0.726 -32.053  1.00  0.00     0.053 C 
HETATM   27  C   UNL     1      -9.895   0.067 -32.642  1.00  0.00     0.026 C 
HETATM   28  C   UNL     1      -9.028   2.042 -31.370  1.00  0.00     0.026 C 
ENDBRANCH  24  26
ENDBRANCH   1  24
TORSDOF 7
ENDMDL
MODEL 4
REMARK VINA RESULT:      -7.9      1.441      2.104
REMARK  7 active torsions:
REMARK  status: ('A' for Active; 'I' for Inactive)
REMARK    1  A    between atoms: C_2  and  N_3 
REMARK    2  A    between atoms: N_3  and  C_4 
REMARK    3  A    between atoms: C_6  and  N_7 
REMARK    4  A    between atoms: N_7  and  C_8 
REMARK    5  A    between atoms: C_8  and  C_9 
REMARK    6  A    between atoms: C_9  and  C_10 
REMARK    7  A    between atoms: C_13  and  O_14 
ROOT
HETATM    1  C   UNL     1      -6.385  -0.878 -33.996  1.00  0.00     0.119 A 
HETATM    2  N   UNL     1      -5.515   0.027 -33.509  1.00  0.00    -0.207 NA
HETATM    3  C   UNL     1      -4.277  -0.381 -33.191  1.00  0.00     0.181 A 
HETATM    4  N   UNL     1      -3.870  -1.634 -33.378  1.00  0.00    -0.330 N 
HETATM    5  H   UNL     1      -2.901  -1.840 -33.175  1.00  0.00     0.168 HD
HETATM    6  C   UNL     1      -4.685  -2.570 -33.876  1.00  0.00     0.048 A 
HETATM    7  C   UNL     1      -6.007  -2.221 -34.211  1.00  0.00     0.031 A 
HETATM    8  C   UNL     1      -4.216  -3.879 -34.063  1.00  0.00     0.030 A 
HETATM    9  C   UNL     1      -5.061  -4.857 -34.590  1.00  0.00     0.002 A 
HETATM   10  C   UNL     1      -6.368  -4.531 -34.937  1.00  0.00     0.001 A 
HETATM   11  C   UNL     1      -6.838  -3.228 -34.754  1.00  0.00     0.017 A 
ENDROOT
BRANCH   3  12
HETATM   12  N   UNL     1      -3.334   0.495 -32.664  1.00  0.00    -0.262 NA
HETATM   13  H   UNL     1      -2.393   0.116 -32.655  1.00  0.00     0.130 HD
BRANCH  12  14
HETATM   14  C   UNL     1      -3.693   1.078 -31.360  1.00  0.00     0.100 C 
BRANCH  14  15
HETATM   15  C   UNL     1      -3.520   2.601 -31.414  1.00  0.00     0.053 C 
BRANCH  15  16
HETATM   16  C   UNL     1      -4.648   3.279 -32.147  1.00  0.00    -0.057 A 
HETATM   17  C   UNL     1      -4.402   3.986 -33.329  1.00  0.00     0.010 A 
HETATM   18  C   UNL     1      -5.452   4.612 -34.007  1.00  0.00     0.037 A 
HETATM   19  C   UNL     1      -6.758   4.539 -33.521  1.00  0.00     0.068 A 
HETATM   20  C   UNL     1      -7.007   3.845 -32.338  1.00  0.00     0.037 A 
HETATM   21  C   UNL     1      -5.958   3.220 -31.653  1.00  0.00     0.010 A 
BRANCH  19  22
HETATM   22  O   UNL     1      -7.688   5.185 -34.287  1.00  0.00    -0.356 OA
HETATM   23  C   UNL     1      -8.875   5.617 -33.631  1.00  0.00     0.210 C 
ENDBRANCH  19  22
ENDBRANCH  15  16
ENDBRANCH  14  15
ENDBRANCH  12  14
ENDBRANCH   3  12
BRANCH   1  24
HETATM   24  N   UNL     1      -7.668  -0.459 -34.353  1.00  0.00    -0.273 NA
HETATM   25  H   UNL     1      -8.272  -1.238 -34.605  1.00  0.00     0.129 HD
BRANCH  24  26
HETATM   26  C   UNL     1      -8.360   0.524 -33.511  1.00  0.00     0.053 C 
HETATM   27  C   UNL     1      -9.498  -0.131 -32.731  1.00  0.00     0.026 C 
HETATM   28  C   UNL     1      -8.915   1.616 -34.428  1.00  0.00     0.026 C 
ENDBRANCH  24  26
ENDBRANCH   1  24
TORSDOF 7
ENDMDL
MODEL 5
REMARK VINA RESULT:      -7.9      4.353      7.814
REMARK  7 active torsions:
REMARK  status: ('A' for Active; 'I' for Inactive)
REMARK    1  A    between atoms: C_2  and  N_3 
REMARK    2  A    between atoms: N_3  and  C_4 
REMARK    3  A    between atoms: C_6  and  N_7 
REMARK    4  A    between atoms: N_7  and  C_8 
REMARK    5  A    between atoms: C_8  and  C_9 
REMARK    6  A    between atoms: C_9  and  C_10 
REMARK    7  A    between atoms: C_13  and  O_14 
ROOT
HETATM    1  C   UNL     1      -6.440   0.379 -31.818  1.00  0.00     0.119 A 
HETATM    2  N   UNL     1      -7.719   0.774 -31.674  1.00  0.00    -0.207 NA
HETATM    3  C   UNL     1      -8.648   0.247 -32.485  1.00  0.00     0.181 A 
HETATM    4  N   UNL     1      -8.355  -0.678 -33.396  1.00  0.00    -0.330 N 
HETATM    5  H   UNL     1      -9.126  -1.071 -33.919  1.00  0.00     0.168 HD
HETATM    6  C   UNL     1      -7.106  -1.121 -33.570  1.00  0.00     0.048 A 
HETATM    7  C   UNL     1      -6.074  -0.596 -32.770  1.00  0.00     0.031 A 
HETATM    8  C   UNL     1      -6.839  -2.103 -34.537  1.00  0.00     0.030 A 
HETATM    9  C   UNL     1      -5.539  -2.573 -34.717  1.00  0.00     0.002 A 
HETATM   10  C   UNL     1      -4.505  -2.075 -33.930  1.00  0.00     0.001 A 
HETATM   11  C   UNL     1      -4.767  -1.100 -32.965  1.00  0.00     0.017 A 
ENDROOT
BRANCH   3  12
HETATM   12  N   UNL     1      -9.984   0.625 -32.406  1.00  0.00    -0.262 NA
HETATM   13  H   UNL     1     -10.627  -0.109 -32.685  1.00  0.00     0.130 HD
BRANCH  12  14
HETATM   14  C   UNL     1     -10.305   1.902 -33.063  1.00  0.00     0.100 C 
BRANCH  14  15
HETATM   15  C   UNL     1     -11.207   1.643 -34.277  1.00  0.00     0.053 C 
BRANCH  15  16
HETATM   16  C   UNL     1     -12.669   1.666 -33.917  1.00  0.00    -0.057 A 
HETATM   17  C   UNL     1     -13.165   2.622 -33.024  1.00  0.00     0.010 A 
HETATM   18  C   UNL     1     -14.523   2.641 -32.695  1.00  0.00     0.037 A 
HETATM   19  C   UNL     1     -15.404   1.713 -33.250  1.00  0.00     0.068 A 
HETATM   20  C   UNL     1     -14.913   0.751 -34.131  1.00  0.00     0.037 A 
HETATM   21  C   UNL     1     -13.553   0.725 -34.461  1.00  0.00     0.010 A 
BRANCH  19  22
HETATM   22  O   UNL     1     -16.704   1.852 -32.850  1.00  0.00    -0.356 OA
HETATM   23  C   UNL     1     -17.023   3.011 -32.089  1.00  0.00     0.210 C 
ENDBRANCH  19  22
ENDBRANCH  15  16
ENDBRANCH  14  15
ENDBRANCH  12  14
ENDBRANCH   3  12
BRANCH   1  24
HETATM   24  N   UNL     1      -5.470   0.904 -30.962  1.00  0.00    -0.273 NA
HETATM   25  H   UNL     1      -4.744   0.226 -30.740  1.00  0.00     0.129 HD
BRANCH  24  26
HETATM   26  C   UNL     1      -4.912   2.233 -31.240  1.00  0.00     0.053 C 
HETATM   27  C   UNL     1      -3.393   2.170 -31.381  1.00  0.00     0.026 C 
HETATM   28  C   UNL     1      -5.292   3.151 -30.077  1.00  0.00     0.026 C 
ENDBRANCH  24  26
ENDBRANCH   1  24
TORSDOF 7
ENDMDL
MODEL 6
REMARK VINA RESULT:      -7.7      3.862      7.542
REMARK  7 active torsions:
REMARK  status: ('A' for Active; 'I' for Inactive)
REMARK    1  A    between atoms: C_2  and  N_3 
REMARK    2  A    between atoms: N_3  and  C_4 
REMARK    3  A    between atoms: C_6  and  N_7 
REMARK    4  A    between atoms: N_7  and  C_8 
REMARK    5  A    between atoms: C_8  and  C_9 
REMARK    6  A    between atoms: C_9  and  C_10 
REMARK    7  A    between atoms: C_13  and  O_14 
ROOT
HETATM    1  C   UNL     1      -5.679  -1.571 -34.419  1.00  0.00     0.119 A 
HETATM    2  N   UNL     1      -6.765  -0.975 -34.948  1.00  0.00    -0.207 NA
HETATM    3  C   UNL     1      -7.197   0.171 -34.401  1.00  0.00     0.181 A 
HETATM    4  N   UNL     1      -6.568   0.756 -33.385  1.00  0.00    -0.330 N 
HETATM    5  H   UNL     1      -6.922   1.652 -33.077  1.00  0.00     0.168 HD
HETATM    6  C   UNL     1      -5.475   0.220 -32.833  1.00  0.00     0.048 A 
HETATM    7  C   UNL     1      -4.976  -0.995 -33.340  1.00  0.00     0.031 A 
HETATM    8  C   UNL     1      -4.837   0.871 -31.766  1.00  0.00     0.030 A 
HETATM    9  C   UNL     1      -3.691   0.319 -31.193  1.00  0.00     0.002 A 
HETATM   10  C   UNL     1      -3.176  -0.876 -31.685  1.00  0.00     0.001 A 
HETATM   11  C   UNL     1      -3.807  -1.526 -32.748  1.00  0.00     0.017 A 
ENDROOT
BRANCH   3  12
HETATM   12  N   UNL     1      -8.324   0.829 -34.882  1.00  0.00    -0.262 NA
HETATM   13  H   UNL     1      -8.126   1.759 -35.238  1.00  0.00     0.130 HD
BRANCH  12  14
HETATM   14  C   UNL     1      -9.475   0.836 -33.964  1.00  0.00     0.100 C 
BRANCH  14  15
HETATM   15  C   UNL     1     -10.283   2.125 -34.164  1.00  0.00     0.053 C 
BRANCH  15  16
HETATM   16  C   UNL     1     -11.740   1.944 -33.826  1.00  0.00    -0.057 A 
HETATM   17  C   UNL     1     -12.419   2.909 -33.074  1.00  0.00     0.010 A 
HETATM   18  C   UNL     1     -13.770   2.738 -32.764  1.00  0.00     0.037 A 
HETATM   19  C   UNL     1     -14.464   1.608 -33.200  1.00  0.00     0.068 A 
HETATM   20  C   UNL     1     -13.790   0.638 -33.939  1.00  0.00     0.037 A 
HETATM   21  C   UNL     1     -12.434   0.803 -34.248  1.00  0.00     0.010 A 
BRANCH  19  22
HETATM   22  O   UNL     1     -15.782   1.573 -32.836  1.00  0.00    -0.356 OA
HETATM   23  C   UNL     1     -16.290   2.710 -32.147  1.00  0.00     0.210 C 
ENDBRANCH  19  22
ENDBRANCH  15  16
ENDBRANCH  14  15
ENDBRANCH  12  14
ENDBRANCH   3  12
BRANCH   1  24
HETATM   24  N   UNL     1      -5.207  -2.750 -34.997  1.00  0.00    -0.273 NA
HETATM   25  H   UNL     1      -4.196  -2.746 -35.112  1.00  0.00     0.129 HD
BRANCH  24  26
HETATM   26  C   UNL     1      -5.697  -4.040 -34.495  1.00  0.00     0.053 C 
HETATM   27  C   UNL     1      -4.536  -4.984 -34.189  1.00  0.00     0.026 C 
HETATM   28  C   UNL     1      -6.596  -4.649 -35.573  1.00  0.00     0.026 C 
ENDBRANCH  24  26
ENDBRANCH   1  24
TORSDOF 7
ENDMDL
MODEL 7
REMARK VINA RESULT:      -7.6      2.021      2.679
REMARK  7 active torsions:
REMARK  status: ('A' for Active; 'I' for Inactive)
REMARK    1  A    between atoms: C_2  and  N_3 
REMARK    2  A    between atoms: N_3  and  C_4 
REMARK    3  A    between atoms: C_6  and  N_7 
REMARK    4  A    between atoms: N_7  and  C_8 
REMARK    5  A    between atoms: C_8  and  C_9 
REMARK    6  A    between atoms: C_9  and  C_10 
REMARK    7  A    between atoms: C_13  and  O_14 
ROOT
HETATM    1  C   UNL     1      -8.182   0.126 -32.480  1.00  0.00     0.119 A 
HETATM    2  N   UNL     1      -8.057   0.906 -31.390  1.00  0.00    -0.207 NA
HETATM    3  C   UNL     1      -6.862   0.974 -30.784  1.00  0.00     0.181 A 
HETATM    4  N   UNL     1      -5.792   0.332 -31.247  1.00  0.00    -0.330 N 
HETATM    5  H   UNL     1      -4.915   0.492 -30.769  1.00  0.00     0.168 HD
HETATM    6  C   UNL     1      -5.854  -0.441 -32.336  1.00  0.00     0.048 A 
HETATM    7  C   UNL     1      -7.081  -0.579 -33.011  1.00  0.00     0.031 A 
HETATM    8  C   UNL     1      -4.701  -1.097 -32.796  1.00  0.00     0.030 A 
HETATM    9  C   UNL     1      -4.759  -1.897 -33.936  1.00  0.00     0.002 A 
HETATM   10  C   UNL     1      -5.960  -2.040 -34.624  1.00  0.00     0.001 A 
HETATM   11  C   UNL     1      -7.109  -1.387 -34.171  1.00  0.00     0.017 A 
ENDROOT
BRANCH   3  12
HETATM   12  N   UNL     1      -6.666   1.742 -29.642  1.00  0.00    -0.262 NA
HETATM   13  H   UNL     1      -7.079   1.335 -28.808  1.00  0.00     0.130 HD
BRANCH  12  14
HETATM   14  C   UNL     1      -7.025   3.163 -29.783  1.00  0.00     0.100 C 
BRANCH  14  15
HETATM   15  C   UNL     1      -5.760   4.025 -29.684  1.00  0.00     0.053 C 
BRANCH  15  16
HETATM   16  C   UNL     1      -5.274   4.483 -31.034  1.00  0.00    -0.057 A 
HETATM   17  C   UNL     1      -4.140   3.904 -31.613  1.00  0.00     0.010 A 
HETATM   18  C   UNL     1      -3.693   4.331 -32.867  1.00  0.00     0.037 A 
HETATM   19  C   UNL     1      -4.370   5.335 -33.560  1.00  0.00     0.068 A 
HETATM   20  C   UNL     1      -5.493   5.923 -32.982  1.00  0.00     0.037 A 
HETATM   21  C   UNL     1      -5.941   5.502 -31.724  1.00  0.00     0.010 A 
BRANCH  19  22
HETATM   22  O   UNL     1      -3.833   5.648 -34.778  1.00  0.00    -0.356 OA
HETATM   23  C   UNL     1      -2.476   5.278 -34.997  1.00  0.00     0.210 C 
ENDBRANCH  19  22
ENDBRANCH  15  16
ENDBRANCH  14  15
ENDBRANCH  12  14
ENDBRANCH   3  12
BRANCH   1  24
HETATM   24  N   UNL     1      -9.415   0.068 -33.132  1.00  0.00    -0.273 NA
HETATM   25  H   UNL     1      -9.983  -0.715 -32.814  1.00  0.00     0.129 HD
BRANCH  24  26
HETATM   26  C   UNL     1     -10.206   1.296 -33.279  1.00  0.00     0.053 C 
HETATM   27  C   UNL     1     -11.634   0.977 -33.717  1.00  0.00     0.026 C 
HETATM   28  C   UNL     1      -9.519   2.169 -34.331  1.00  0.00     0.026 C 
ENDBRANCH  24  26
ENDBRANCH   1  24
TORSDOF 7
ENDMDL
MODEL 8
REMARK VINA RESULT:      -7.5      2.119      4.288
REMARK  7 active torsions:
REMARK  status: ('A' for Active; 'I' for Inactive)
REMARK    1  A    between atoms: C_2  and  N_3 
REMARK    2  A    between atoms: N_3  and  C_4 
REMARK    3  A    between atoms: C_6  and  N_7 
REMARK    4  A    between atoms: N_7  and  C_8 
REMARK    5  A    between atoms: C_8  and  C_9 
REMARK    6  A    between atoms: C_9  and  C_10 
REMARK    7  A    between atoms: C_13  and  O_14 
ROOT
HETATM    1  C   UNL     1      -5.056  -0.697 -33.723  1.00  0.00     0.119 A 
HETATM    2  N   UNL     1      -6.092   0.058 -34.137  1.00  0.00    -0.207 NA
HETATM    3  C   UNL     1      -7.076  -0.531 -34.834  1.00  0.00     0.181 A 
HETATM    4  N   UNL     1      -7.081  -1.836 -35.094  1.00  0.00    -0.330 N 
HETATM    5  H   UNL     1      -7.894  -2.208 -35.566  1.00  0.00     0.168 HD
HETATM    6  C   UNL     1      -6.089  -2.636 -34.691  1.00  0.00     0.048 A 
HETATM    7  C   UNL     1      -5.011  -2.084 -33.974  1.00  0.00     0.031 A 
HETATM    8  C   UNL     1      -6.135  -4.009 -34.980  1.00  0.00     0.030 A 
HETATM    9  C   UNL     1      -5.106  -4.849 -34.554  1.00  0.00     0.002 A 
HETATM   10  C   UNL     1      -4.036  -4.326 -33.836  1.00  0.00     0.001 A 
HETATM   11  C   UNL     1      -3.987  -2.961 -33.545  1.00  0.00     0.017 A 
ENDROOT
BRANCH   3  12
HETATM   12  N   UNL     1      -8.164   0.192 -35.311  1.00  0.00    -0.262 NA
HETATM   13  H   UNL     1      -7.903   0.938 -35.948  1.00  0.00     0.130 HD
BRANCH  12  14
HETATM   14  C   UNL     1      -9.093   0.668 -34.273  1.00  0.00     0.100 C 
BRANCH  14  15
HETATM   15  C   UNL     1      -9.081   2.202 -34.237  1.00  0.00     0.053 C 
BRANCH  15  16
HETATM   16  C   UNL     1      -8.199   2.741 -33.141  1.00  0.00    -0.057 A 
HETATM   17  C   UNL     1      -8.335   2.275 -31.828  1.00  0.00     0.010 A 
HETATM   18  C   UNL     1      -7.513   2.776 -30.815  1.00  0.00     0.037 A 
HETATM   19  C   UNL     1      -6.546   3.742 -31.094  1.00  0.00     0.068 A 
HETATM   20  C   UNL     1      -6.414   4.217 -32.397  1.00  0.00     0.037 A 
HETATM   21  C   UNL     1      -7.238   3.722 -33.416  1.00  0.00     0.010 A 
BRANCH  19  22
HETATM   22  O   UNL     1      -5.805   4.136 -30.014  1.00  0.00    -0.356 OA
HETATM   23  C   UNL     1      -6.469   4.924 -29.032  1.00  0.00     0.210 C 
ENDBRANCH  19  22
ENDBRANCH  15  16
ENDBRANCH  14  15
ENDBRANCH  12  14
ENDBRANCH   3  12
BRANCH   1  24
HETATM   24  N   UNL     1      -4.040  -0.099 -32.976  1.00  0.00    -0.273 NA
HETATM   25  H   UNL     1      -3.221   0.115 -33.540  1.00  0.00     0.129 HD
BRANCH  24  26
HETATM   26  C   UNL     1      -4.376   0.996 -32.058  1.00  0.00     0.053 C 
HETATM   27  C   UNL     1      -3.322   2.100 -32.116  1.00  0.00     0.026 C 
HETATM   28  C   UNL     1      -4.448   0.415 -30.645  1.00  0.00     0.026 C 
ENDBRANCH  24  26
ENDBRANCH   1  24
TORSDOF 7
ENDMDL
MODEL 9
REMARK VINA RESULT:      -7.4      1.756      4.047
REMARK  7 active torsions:
REMARK  status: ('A' for Active; 'I' for Inactive)
REMARK    1  A    between atoms: C_2  and  N_3 
REMARK    2  A    between atoms: N_3  and  C_4 
REMARK    3  A    between atoms: C_6  and  N_7 
REMARK    4  A    between atoms: N_7  and  C_8 
REMARK    5  A    between atoms: C_8  and  C_9 
REMARK    6  A    between atoms: C_9  and  C_10 
REMARK    7  A    between atoms: C_13  and  O_14 
ROOT
HETATM    1  C   UNL     1      -5.598  -0.560 -33.610  1.00  0.00     0.119 A 
HETATM    2  N   UNL     1      -4.418  -0.115 -33.138  1.00  0.00    -0.207 NA
HETATM    3  C   UNL     1      -4.424   0.849 -32.205  1.00  0.00     0.181 A 
HETATM    4  N   UNL     1      -5.551   1.350 -31.706  1.00  0.00    -0.330 N 
HETATM    5  H   UNL     1      -5.464   2.025 -30.958  1.00  0.00     0.168 HD
HETATM    6  C   UNL     1      -6.750   0.932 -32.124  1.00  0.00     0.048 A 
HETATM    7  C   UNL     1      -6.822  -0.062 -33.118  1.00  0.00     0.031 A 
HETATM    8  C   UNL     1      -7.916   1.480 -31.567  1.00  0.00     0.030 A 
HETATM    9  C   UNL     1      -9.169   1.042 -31.994  1.00  0.00     0.002 A 
HETATM   10  C   UNL     1      -9.263   0.053 -32.969  1.00  0.00     0.001 A 
HETATM   11  C   UNL     1      -8.106  -0.497 -33.524  1.00  0.00     0.017 A 
ENDROOT
BRANCH   3  12
HETATM   12  N   UNL     1      -3.242   1.370 -31.689  1.00  0.00    -0.262 NA
HETATM   13  H   UNL     1      -2.932   0.903 -30.843  1.00  0.00     0.130 HD
BRANCH  12  14
HETATM   14  C   UNL     1      -3.228   2.834 -31.533  1.00  0.00     0.100 C 
BRANCH  14  15
HETATM   15  C   UNL     1      -2.773   3.486 -32.845  1.00  0.00     0.053 C 
BRANCH  15  16
HETATM   16  C   UNL     1      -2.537   4.966 -32.695  1.00  0.00    -0.057 A 
HETATM   17  C   UNL     1      -3.250   5.706 -31.745  1.00  0.00     0.010 A 
HETATM   18  C   UNL     1      -3.026   7.078 -31.608  1.00  0.00     0.037 A 
HETATM   19  C   UNL     1      -2.090   7.731 -32.411  1.00  0.00     0.068 A 
HETATM   20  C   UNL     1      -1.386   7.002 -33.367  1.00  0.00     0.037 A 
HETATM   21  C   UNL     1      -1.610   5.627 -33.511  1.00  0.00     0.010 A 
BRANCH  19  22
HETATM   22  O   UNL     1      -1.963   9.070 -32.165  1.00  0.00    -0.356 OA
HETATM   23  C   UNL     1      -2.435   9.541 -30.907  1.00  0.00     0.210 C 
ENDBRANCH  19  22
ENDBRANCH  15  16
ENDBRANCH  14  15
ENDBRANCH  12  14
ENDBRANCH   3  12
BRANCH   1  24
HETATM   24  N   UNL     1      -5.603  -1.581 -34.563  1.00  0.00    -0.273 NA
HETATM   25  H   UNL     1      -4.945  -1.406 -35.319  1.00  0.00     0.129 HD
BRANCH  24  26
HETATM   26  C   UNL     1      -5.567  -2.978 -34.115  1.00  0.00     0.053 C 
HETATM   27  C   UNL     1      -4.175  -3.577 -34.302  1.00  0.00     0.026 C 
HETATM   28  C   UNL     1      -6.589  -3.760 -34.943  1.00  0.00     0.026 C 
ENDBRANCH  24  26
ENDBRANCH   1  24
TORSDOF 7
ENDMDL
MODEL 10
REMARK VINA RESULT:      -7.4      2.473      3.183
REMARK  7 active torsions:
REMARK  status: ('A' for Active; 'I' for Inactive)
REMARK    1  A    between atoms: C_2  and  N_3 
REMARK    2  A    between atoms: N_3  and  C_4 
REMARK    3  A    between atoms: C_6  and  N_7 
REMARK    4  A    between atoms: N_7  and  C_8 
REMARK    5  A    between atoms: C_8  and  C_9 
REMARK    6  A    between atoms: C_9  and  C_10 
REMARK    7  A    between atoms: C_13  and  O_14 
ROOT
HETATM    1  C   UNL     1      -6.503   0.842 -33.735  1.00  0.00     0.119 A 
HETATM    2  N   UNL     1      -5.754   1.742 -33.071  1.00  0.00    -0.207 NA
HETATM    3  C   UNL     1      -4.559   1.357 -32.598  1.00  0.00     0.181 A 
HETATM    4  N   UNL     1      -4.075   0.134 -32.797  1.00  0.00    -0.330 N 
HETATM    5  H   UNL     1      -3.138  -0.052 -32.465  1.00  0.00     0.168 HD
HETATM    6  C   UNL     1      -4.767  -0.794 -33.466  1.00  0.00     0.048 A 
HETATM    7  C   UNL     1      -6.040  -0.469 -33.972  1.00  0.00     0.031 A 
HETATM    8  C   UNL     1      -4.220  -2.072 -33.661  1.00  0.00     0.030 A 
HETATM    9  C   UNL     1      -4.935  -3.040 -34.365  1.00  0.00     0.002 A 
HETATM   10  C   UNL     1      -6.191  -2.737 -34.881  1.00  0.00     0.001 A 
HETATM   11  C   UNL     1      -6.738  -1.466 -34.692  1.00  0.00     0.017 A 
ENDROOT
BRANCH   3  12
HETATM   12  N   UNL     1      -3.742   2.228 -31.885  1.00  0.00    -0.262 NA
HETATM   13  H   UNL     1      -3.865   2.162 -30.879  1.00  0.00     0.130 HD
BRANCH  12  14
HETATM   14  C   UNL     1      -3.781   3.627 -32.342  1.00  0.00     0.100 C 
BRANCH  14  15
HETATM   15  C   UNL     1      -2.376   4.064 -32.776  1.00  0.00     0.053 C 
BRANCH  15  16
HETATM   16  C   UNL     1      -1.790   5.102 -31.855  1.00  0.00    -0.057 A 
HETATM   17  C   UNL     1      -2.613   5.812 -30.973  1.00  0.00     0.010 A 
HETATM   18  C   UNL     1      -2.065   6.773 -30.119  1.00  0.00     0.037 A 
HETATM   19  C   UNL     1      -0.695   7.038 -30.129  1.00  0.00     0.068 A 
HETATM   20  C   UNL     1       0.126   6.343 -31.014  1.00  0.00     0.037 A 
HETATM   21  C   UNL     1      -0.418   5.382 -31.875  1.00  0.00     0.010 A 
BRANCH  19  22
HETATM   22  O   UNL     1      -0.293   7.993 -29.236  1.00  0.00    -0.356 OA
HETATM   23  C   UNL     1       0.776   7.647 -28.363  1.00  0.00     0.210 C 
ENDBRANCH  19  22
ENDBRANCH  15  16
ENDBRANCH  14  15
ENDBRANCH  12  14
ENDBRANCH   3  12
BRANCH   1  24
HETATM   24  N   UNL     1      -7.737   1.240 -34.252  1.00  0.00    -0.273 NA
HETATM   25  H   UNL     1      -8.061   0.625 -34.995  1.00  0.00     0.129 HD
BRANCH  24  26
HETATM   26  C   UNL     1      -8.819   1.601 -33.328  1.00  0.00     0.053 C 
HETATM   27  C   UNL     1      -9.140   0.444 -32.384  1.00  0.00     0.026 C 
HETATM   28  C   UNL     1     -10.050   1.952 -34.165  1.00  0.00     0.026 C 
ENDBRANCH  24  26
ENDBRANCH   1  24
TORSDOF 7
ENDMDL
