MODEL 1
REMARK VINA RESULT:     -10.0      0.000      0.000
REMARK  9 active torsions:
REMARK  status: ('A' for Active; 'I' for Inactive)
REMARK    1  A    between atoms: C_2  and  O_3 
REMARK    2  A    between atoms: O_3  and  C_4 
REMARK    3  A    between atoms: C_4  and  C_5 
REMARK    4  A    between atoms: C_8  and  N_9 
REMARK       I    between atoms: N_9  and  C_10 
REMARK    5  A    between atoms: C_10  and  C_11 
REMARK    6  A    between atoms: C_13  and  N_14 
REMARK    7  A    between atoms: N_17  and  C_19 
REMARK    8  A    between atoms: C_19  and  C_20 
REMARK    9  A    between atoms: C_19  and  C_26 
ROOT
HETATM    1  C   UNL     1      -4.173   5.180 -31.240  1.00  0.00     0.200 C 
HETATM    2  N   UNL     1      -5.560   5.014 -30.833  1.00  0.00    -0.211 N 
HETATM    3  C   UNL     1      -6.524   4.928 -31.780  1.00  0.00     0.702 C 
HETATM    4  N   UNL     1      -6.378   5.197 -33.031  1.00  0.00    -0.028 NA
HETATM    5  C   UNL     1      -5.119   5.533 -33.472  1.00  0.00     0.263 C 
HETATM    6  O   UNL     1      -4.822   5.486 -34.662  1.00  0.00    -0.271 OA
HETATM    7  C   UNL     1      -4.127   6.064 -32.468  1.00  0.00     0.141 C 
HETATM    8  H   UNL     1      -5.700   4.458 -29.998  1.00  0.00     0.178 HD
ENDROOT
BRANCH   3   9
HETATM    9  N   UNL     1      -7.743   4.581 -31.246  1.00  0.00    -0.213 N 
HETATM   10  C   UNL     1      -7.777   3.362 -30.403  1.00  0.00     0.169 C 
HETATM   11  C   UNL     1      -7.948   2.090 -31.263  1.00  0.00     0.256 C 
HETATM   12  N   UNL     1      -9.229   2.210 -32.092  1.00  0.00    -0.056 N 
HETATM   13  H   UNL     1     -10.001   2.437 -31.460  1.00  0.00     0.281 HD
HETATM   14  C   UNL     1      -9.103   3.424 -33.015  1.00  0.00     0.256 C 
HETATM   15  C   UNL     1      -8.911   4.692 -32.154  1.00  0.00     0.169 C 
BRANCH  12  16
HETATM   16  C   UNL     1      -9.672   0.939 -32.811  1.00  0.00     0.254 C 
BRANCH  16  17
HETATM   17  C   UNL     1     -10.998   1.082 -33.548  1.00  0.00    -0.023 A 
HETATM   18  C   UNL     1     -11.222   2.114 -34.477  1.00  0.00     0.009 A 
HETATM   19  C   UNL     1     -12.450   2.228 -35.131  1.00  0.00     0.001 A 
HETATM   20  C   UNL     1     -13.468   1.315 -34.872  1.00  0.00     0.000 A 
HETATM   21  C   UNL     1     -13.263   0.284 -33.960  1.00  0.00     0.001 A 
HETATM   22  C   UNL     1     -12.038   0.166 -33.302  1.00  0.00     0.009 A 
ENDBRANCH  16  17
BRANCH  16  23
HETATM   23  C   UNL     1      -8.569   0.245 -33.626  1.00  0.00    -0.023 A 
HETATM   24  C   UNL     1      -8.019   0.759 -34.815  1.00  0.00     0.009 A 
HETATM   25  C   UNL     1      -6.990   0.085 -35.482  1.00  0.00     0.001 A 
HETATM   26  C   UNL     1      -6.491  -1.112 -34.980  1.00  0.00     0.000 A 
HETATM   27  C   UNL     1      -7.015  -1.641 -33.807  1.00  0.00     0.001 A 
HETATM   28  C   UNL     1      -8.038  -0.968 -33.134  1.00  0.00     0.009 A 
ENDBRANCH  16  23
ENDBRANCH  12  16
ENDBRANCH   3   9
BRANCH   1  29
HETATM   29  C   UNL     1      -3.485   3.816 -31.488  1.00  0.00     0.246 C 
HETATM   30  N   UNL     1      -4.403   2.783 -31.623  1.00  0.00    -0.325 N 
HETATM   31  H   UNL     1      -5.387   3.031 -31.634  1.00  0.00     0.169 HD
HETATM   32  O   UNL     1      -2.262   3.724 -31.571  1.00  0.00    -0.271 OA
BRANCH  30  33
HETATM   33  C   UNL     1      -4.148   1.402 -31.740  1.00  0.00     0.034 A 
HETATM   34  C   UNL     1      -4.587   0.440 -30.831  1.00  0.00     0.030 A 
HETATM   35  C   UNL     1      -4.339  -0.921 -31.066  1.00  0.00     0.020 A 
HETATM   36  C   UNL     1      -3.652  -1.336 -32.213  1.00  0.00     0.039 A 
HETATM   37  C   UNL     1      -3.187  -0.371 -33.112  1.00  0.00     0.020 A 
HETATM   38  C   UNL     1      -3.434   0.986 -32.874  1.00  0.00     0.030 A 
BRANCH  36  39
HETATM   39  C   UNL     1      -3.469  -2.795 -32.446  1.00  0.00     0.293 C 
HETATM   40  O   UNL     1      -2.993  -3.552 -31.616  1.00  0.00    -0.259 OA
BRANCH  39  41
HETATM   41  O   UNL     1      -3.943  -3.140 -33.669  1.00  0.00    -0.318 OA
BRANCH  41  42
HETATM   42  C   UNL     1      -4.000  -4.547 -33.948  1.00  0.00     0.174 C 
HETATM   43  C   UNL     1      -5.289  -4.891 -34.669  1.00  0.00     0.034 C 
ENDBRANCH  41  42
ENDBRANCH  39  41
ENDBRANCH  36  39
ENDBRANCH  30  33
ENDBRANCH   1  29
TORSDOF 9
ENDMDL
MODEL 2
REMARK VINA RESULT:     -10.0      2.685      6.537
REMARK  9 active torsions:
REMARK  status: ('A' for Active; 'I' for Inactive)
REMARK    1  A    between atoms: C_2  and  O_3 
REMARK    2  A    between atoms: O_3  and  C_4 
REMARK    3  A    between atoms: C_4  and  C_5 
REMARK    4  A    between atoms: C_8  and  N_9 
REMARK       I    between atoms: N_9  and  C_10 
REMARK    5  A    between atoms: C_10  and  C_11 
REMARK    6  A    between atoms: C_13  and  N_14 
REMARK    7  A    between atoms: N_17  and  C_19 
REMARK    8  A    between atoms: C_19  and  C_20 
REMARK    9  A    between atoms: C_19  and  C_26 
ROOT
HETATM    1  C   UNL     1      -9.533   3.364 -30.669  1.00  0.00     0.200 C 
HETATM    2  N   UNL     1      -9.676   2.199 -31.528  1.00  0.00    -0.211 N 
HETATM    3  C   UNL     1     -10.534   2.247 -32.575  1.00  0.00     0.702 C 
HETATM    4  N   UNL     1     -11.423   3.157 -32.779  1.00  0.00    -0.028 NA
HETATM    5  C   UNL     1     -11.468   4.218 -31.906  1.00  0.00     0.263 C 
HETATM    6  O   UNL     1     -12.040   5.265 -32.196  1.00  0.00    -0.271 OA
HETATM    7  C   UNL     1     -10.882   4.036 -30.528  1.00  0.00     0.141 C 
HETATM    8  H   UNL     1      -8.830   1.659 -31.666  1.00  0.00     0.178 HD
ENDROOT
BRANCH   3   9
HETATM    9  N   UNL     1     -10.412   1.149 -33.395  1.00  0.00    -0.213 N 
HETATM   10  C   UNL     1     -10.052  -0.131 -32.740  1.00  0.00     0.169 C 
HETATM   11  C   UNL     1      -8.523  -0.263 -32.567  1.00  0.00     0.256 C 
HETATM   12  N   UNL     1      -7.848  -0.147 -33.935  1.00  0.00    -0.056 N 
HETATM   13  H   UNL     1      -8.292  -0.816 -34.570  1.00  0.00     0.281 HD
HETATM   14  C   UNL     1      -8.168   1.229 -34.524  1.00  0.00     0.256 C 
HETATM   15  C   UNL     1      -9.698   1.366 -34.677  1.00  0.00     0.169 C 
BRANCH  12  16
HETATM   16  C   UNL     1      -6.363  -0.498 -33.972  1.00  0.00     0.254 C 
BRANCH  16  17
HETATM   17  C   UNL     1      -5.557   0.124 -32.838  1.00  0.00    -0.023 A 
HETATM   18  C   UNL     1      -5.858  -0.131 -31.488  1.00  0.00     0.009 A 
HETATM   19  C   UNL     1      -5.111   0.459 -30.468  1.00  0.00     0.001 A 
HETATM   20  C   UNL     1      -4.053   1.309 -30.779  1.00  0.00     0.000 A 
HETATM   21  C   UNL     1      -3.737   1.570 -32.109  1.00  0.00     0.001 A 
HETATM   22  C   UNL     1      -4.483   0.983 -33.133  1.00  0.00     0.009 A 
ENDBRANCH  16  17
BRANCH  16  23
HETATM   23  C   UNL     1      -6.061  -1.985 -34.219  1.00  0.00    -0.023 A 
HETATM   24  C   UNL     1      -7.024  -2.936 -34.605  1.00  0.00     0.009 A 
HETATM   25  C   UNL     1      -6.664  -4.267 -34.846  1.00  0.00     0.001 A 
HETATM   26  C   UNL     1      -5.342  -4.675 -34.707  1.00  0.00     0.000 A 
HETATM   27  C   UNL     1      -4.372  -3.755 -34.329  1.00  0.00     0.001 A 
HETATM   28  C   UNL     1      -4.725  -2.424 -34.093  1.00  0.00     0.009 A 
ENDBRANCH  16  23
ENDBRANCH  12  16
ENDBRANCH   3   9
BRANCH   1  29
HETATM   29  C   UNL     1      -8.459   4.340 -31.207  1.00  0.00     0.246 C 
HETATM   30  N   UNL     1      -7.487   3.689 -31.954  1.00  0.00    -0.325 N 
HETATM   31  H   UNL     1      -7.622   2.700 -32.136  1.00  0.00     0.169 HD
HETATM   32  O   UNL     1      -8.526   5.547 -30.988  1.00  0.00    -0.271 OA
BRANCH  30  33
HETATM   33  C   UNL     1      -6.302   4.226 -32.498  1.00  0.00     0.034 A 
HETATM   34  C   UNL     1      -5.237   4.712 -31.741  1.00  0.00     0.030 A 
HETATM   35  C   UNL     1      -4.070   5.168 -32.372  1.00  0.00     0.020 A 
HETATM   36  C   UNL     1      -3.954   5.142 -33.767  1.00  0.00     0.039 A 
HETATM   37  C   UNL     1      -5.032   4.681 -34.529  1.00  0.00     0.020 A 
HETATM   38  C   UNL     1      -6.195   4.228 -33.897  1.00  0.00     0.030 A 
BRANCH  36  39
HETATM   39  C   UNL     1      -2.672   5.580 -34.384  1.00  0.00     0.293 C 
HETATM   40  O   UNL     1      -1.911   4.821 -34.960  1.00  0.00    -0.259 OA
BRANCH  39  41
HETATM   41  O   UNL     1      -2.516   6.920 -34.246  1.00  0.00    -0.318 OA
BRANCH  41  42
HETATM   42  C   UNL     1      -1.375   7.347 -33.487  1.00  0.00     0.174 C 
HETATM   43  C   UNL     1      -1.816   8.059 -32.223  1.00  0.00     0.034 C 
ENDBRANCH  41  42
ENDBRANCH  39  41
ENDBRANCH  36  39
ENDBRANCH  30  33
ENDBRANCH   1  29
TORSDOF 9
ENDMDL
MODEL 3
REMARK VINA RESULT:      -9.7      1.159      3.231
REMARK  9 active torsions:
REMARK  status: ('A' for Active; 'I' for Inactive)
REMARK    1  A    between atoms: C_2  and  O_3 
REMARK    2  A    between atoms: O_3  and  C_4 
REMARK    3  A    between atoms: C_4  and  C_5 
REMARK    4  A    between atoms: C_8  and  N_9 
REMARK       I    between atoms: N_9  and  C_10 
REMARK    5  A    between atoms: C_10  and  C_11 
REMARK    6  A    between atoms: C_13  and  N_14 
REMARK    7  A    between atoms: N_17  and  C_19 
REMARK    8  A    between atoms: C_19  and  C_20 
REMARK    9  A    between atoms: C_19  and  C_26 
ROOT
HETATM    1  C   UNL     1      -3.358   4.688 -31.321  1.00  0.00     0.200 C 
HETATM    2  N   UNL     1      -4.777   4.819 -31.029  1.00  0.00    -0.211 N 
HETATM    3  C   UNL     1      -5.595   5.387 -31.948  1.00  0.00     0.702 C 
HETATM    4  N   UNL     1      -5.216   6.039 -32.992  1.00  0.00    -0.028 NA
HETATM    5  C   UNL     1      -3.867   6.110 -33.251  1.00  0.00     0.263 C 
HETATM    6  O   UNL     1      -3.440   6.415 -34.360  1.00  0.00    -0.271 OA
HETATM    7  C   UNL     1      -2.908   5.902 -32.105  1.00  0.00     0.141 C 
HETATM    8  H   UNL     1      -5.174   4.066 -30.480  1.00  0.00     0.178 HD
ENDROOT
BRANCH   3   9
HETATM    9  N   UNL     1      -6.921   5.260 -31.608  1.00  0.00    -0.213 N 
HETATM   10  C   UNL     1      -7.338   3.958 -31.034  1.00  0.00     0.169 C 
HETATM   11  C   UNL     1      -7.668   2.936 -32.144  1.00  0.00     0.256 C 
HETATM   12  N   UNL     1      -8.766   3.506 -33.045  1.00  0.00    -0.056 N 
HETATM   13  H   UNL     1      -9.547   3.801 -32.454  1.00  0.00     0.281 HD
HETATM   14  C   UNL     1      -8.250   4.795 -33.690  1.00  0.00     0.256 C 
HETATM   15  C   UNL     1      -7.901   5.808 -32.577  1.00  0.00     0.169 C 
BRANCH  12  16
HETATM   16  C   UNL     1      -9.378   2.527 -34.043  1.00  0.00     0.254 C 
BRANCH  16  17
HETATM   17  C   UNL     1      -8.677   1.175 -34.084  1.00  0.00    -0.023 A 
HETATM   18  C   UNL     1      -8.862   0.212 -33.075  1.00  0.00     0.009 A 
HETATM   19  C   UNL     1      -8.200  -1.015 -33.132  1.00  0.00     0.001 A 
HETATM   20  C   UNL     1      -7.347  -1.301 -34.194  1.00  0.00     0.000 A 
HETATM   21  C   UNL     1      -7.155  -0.363 -35.204  1.00  0.00     0.001 A 
HETATM   22  C   UNL     1      -7.814   0.866 -35.152  1.00  0.00     0.009 A 
ENDBRANCH  16  17
BRANCH  16  23
HETATM   23  C   UNL     1     -10.912   2.441 -33.999  1.00  0.00    -0.023 A 
HETATM   24  C   UNL     1     -11.692   1.714 -34.917  1.00  0.00     0.009 A 
HETATM   25  C   UNL     1     -13.085   1.654 -34.790  1.00  0.00     0.001 A 
HETATM   26  C   UNL     1     -13.725   2.318 -33.750  1.00  0.00     0.000 A 
HETATM   27  C   UNL     1     -12.978   3.042 -32.828  1.00  0.00     0.001 A 
HETATM   28  C   UNL     1     -11.588   3.098 -32.947  1.00  0.00     0.009 A 
ENDBRANCH  16  23
ENDBRANCH  12  16
ENDBRANCH   3   9
BRANCH   1  29
HETATM   29  C   UNL     1      -3.049   3.371 -32.072  1.00  0.00     0.246 C 
HETATM   30  N   UNL     1      -3.730   2.289 -31.533  1.00  0.00    -0.325 N 
HETATM   31  H   UNL     1      -4.397   2.478 -30.793  1.00  0.00     0.169 HD
HETATM   32  O   UNL     1      -2.298   3.353 -33.045  1.00  0.00    -0.271 OA
BRANCH  30  33
HETATM   33  C   UNL     1      -3.610   0.927 -31.876  1.00  0.00     0.034 A 
HETATM   34  C   UNL     1      -2.852  -0.001 -31.163  1.00  0.00     0.030 A 
HETATM   35  C   UNL     1      -2.845  -1.351 -31.544  1.00  0.00     0.020 A 
HETATM   36  C   UNL     1      -3.598  -1.790 -32.640  1.00  0.00     0.039 A 
HETATM   37  C   UNL     1      -4.336  -0.856 -33.373  1.00  0.00     0.020 A 
HETATM   38  C   UNL     1      -4.340   0.490 -32.992  1.00  0.00     0.030 A 
BRANCH  36  39
HETATM   39  C   UNL     1      -3.604  -3.243 -32.965  1.00  0.00     0.293 C 
HETATM   40  O   UNL     1      -3.183  -4.101 -32.208  1.00  0.00    -0.259 OA
BRANCH  39  41
HETATM   41  O   UNL     1      -4.176  -3.453 -34.177  1.00  0.00    -0.318 OA
BRANCH  41  42
HETATM   42  C   UNL     1      -4.782  -4.739 -34.374  1.00  0.00     0.174 C 
HETATM   43  C   UNL     1      -6.211  -4.582 -34.855  1.00  0.00     0.034 C 
ENDBRANCH  41  42
ENDBRANCH  39  41
ENDBRANCH  36  39
ENDBRANCH  30  33
ENDBRANCH   1  29
TORSDOF 9
ENDMDL
MODEL 4
REMARK VINA RESULT:      -9.4      2.496      6.264
REMARK  9 active torsions:
REMARK  status: ('A' for Active; 'I' for Inactive)
REMARK    1  A    between atoms: C_2  and  O_3 
REMARK    2  A    between atoms: O_3  and  C_4 
REMARK    3  A    between atoms: C_4  and  C_5 
REMARK    4  A    between atoms: C_8  and  N_9 
REMARK       I    between atoms: N_9  and  C_10 
REMARK    5  A    between atoms: C_10  and  C_11 
REMARK    6  A    between atoms: C_13  and  N_14 
REMARK    7  A    between atoms: N_17  and  C_19 
REMARK    8  A    between atoms: C_19  and  C_20 
REMARK    9  A    between atoms: C_19  and  C_26 
ROOT
HETATM    1  C   UNL     1     -11.282   3.549 -33.601  1.00  0.00     0.200 C 
HETATM    2  N   UNL     1     -10.221   4.535 -33.741  1.00  0.00    -0.211 N 
HETATM    3  C   UNL     1      -9.598   5.003 -32.633  1.00  0.00     0.702 C 
HETATM    4  N   UNL     1      -9.993   4.832 -31.419  1.00  0.00    -0.028 NA
HETATM    5  C   UNL     1     -11.101   4.045 -31.208  1.00  0.00     0.263 C 
HETATM    6  O   UNL     1     -11.351   3.568 -30.105  1.00  0.00    -0.271 OA
HETATM    7  C   UNL     1     -12.072   3.858 -32.347  1.00  0.00     0.141 C 
HETATM    8  H   UNL     1      -9.646   4.434 -34.569  1.00  0.00     0.178 HD
ENDROOT
BRANCH   3   9
HETATM    9  N   UNL     1      -8.501   5.772 -32.942  1.00  0.00    -0.213 N 
HETATM   10  C   UNL     1      -7.545   5.201 -33.921  1.00  0.00     0.169 C 
HETATM   11  C   UNL     1      -6.524   4.270 -33.230  1.00  0.00     0.256 C 
HETATM   12  N   UNL     1      -5.783   5.051 -32.143  1.00  0.00    -0.056 N 
HETATM   13  H   UNL     1      -5.407   5.905 -32.560  1.00  0.00     0.281 HD
HETATM   14  C   UNL     1      -6.801   5.533 -31.106  1.00  0.00     0.256 C 
HETATM   15  C   UNL     1      -7.832   6.447 -31.803  1.00  0.00     0.169 C 
BRANCH  12  16
HETATM   16  C   UNL     1      -4.575   4.348 -31.531  1.00  0.00     0.254 C 
BRANCH  16  17
HETATM   17  C   UNL     1      -4.733   2.836 -31.423  1.00  0.00    -0.023 A 
HETATM   18  C   UNL     1      -5.447   2.239 -30.368  1.00  0.00     0.009 A 
HETATM   19  C   UNL     1      -5.569   0.852 -30.286  1.00  0.00     0.001 A 
HETATM   20  C   UNL     1      -4.984   0.040 -31.256  1.00  0.00     0.000 A 
HETATM   21  C   UNL     1      -4.279   0.613 -32.310  1.00  0.00     0.001 A 
HETATM   22  C   UNL     1      -4.153   2.001 -32.395  1.00  0.00     0.009 A 
ENDBRANCH  16  17
BRANCH  16  23
HETATM   23  C   UNL     1      -3.217   4.801 -32.092  1.00  0.00    -0.023 A 
HETATM   24  C   UNL     1      -2.007   4.751 -31.375  1.00  0.00     0.009 A 
HETATM   25  C   UNL     1      -0.803   5.149 -31.968  1.00  0.00     0.001 A 
HETATM   26  C   UNL     1      -0.782   5.606 -33.281  1.00  0.00     0.000 A 
HETATM   27  C   UNL     1      -1.963   5.664 -34.011  1.00  0.00     0.001 A 
HETATM   28  C   UNL     1      -3.166   5.261 -33.426  1.00  0.00     0.009 A 
ENDBRANCH  16  23
ENDBRANCH  12  16
ENDBRANCH   3   9
BRANCH   1  29
HETATM   29  C   UNL     1     -10.721   2.107 -33.587  1.00  0.00     0.246 C 
HETATM   30  N   UNL     1      -9.338   2.082 -33.694  1.00  0.00    -0.325 N 
HETATM   31  H   UNL     1      -8.852   2.972 -33.682  1.00  0.00     0.169 HD
HETATM   32  O   UNL     1     -11.464   1.135 -33.466  1.00  0.00    -0.271 OA
BRANCH  30  33
HETATM   33  C   UNL     1      -8.496   0.959 -33.832  1.00  0.00     0.034 A 
HETATM   34  C   UNL     1      -8.440  -0.099 -32.926  1.00  0.00     0.030 A 
HETATM   35  C   UNL     1      -7.617  -1.206 -33.182  1.00  0.00     0.020 A 
HETATM   36  C   UNL     1      -6.842  -1.269 -34.346  1.00  0.00     0.039 A 
HETATM   37  C   UNL     1      -6.877  -0.196 -35.243  1.00  0.00     0.020 A 
HETATM   38  C   UNL     1      -7.697   0.907 -34.984  1.00  0.00     0.030 A 
BRANCH  36  39
HETATM   39  C   UNL     1      -6.034  -2.493 -34.599  1.00  0.00     0.293 C 
HETATM   40  O   UNL     1      -6.495  -3.514 -35.080  1.00  0.00    -0.259 OA
BRANCH  39  41
HETATM   41  O   UNL     1      -4.737  -2.279 -34.262  1.00  0.00    -0.318 OA
BRANCH  41  42
HETATM   42  C   UNL     1      -4.004  -3.430 -33.816  1.00  0.00     0.174 C 
HETATM   43  C   UNL     1      -3.426  -3.187 -32.436  1.00  0.00     0.034 C 
ENDBRANCH  41  42
ENDBRANCH  39  41
ENDBRANCH  36  39
ENDBRANCH  30  33
ENDBRANCH   1  29
TORSDOF 9
ENDMDL
MODEL 5
REMARK VINA RESULT:      -9.3      2.876      7.430
REMARK  9 active torsions:
REMARK  status: ('A' for Active; 'I' for Inactive)
REMARK    1  A    between atoms: C_2  and  O_3 
REMARK    2  A    between atoms: O_3  and  C_4 
REMARK    3  A    between atoms: C_4  and  C_5 
REMARK    4  A    between atoms: C_8  and  N_9 
REMARK       I    between atoms: N_9  and  C_10 
REMARK    5  A    between atoms: C_10  and  C_11 
REMARK    6  A    between atoms: C_13  and  N_14 
REMARK    7  A    between atoms: N_17  and  C_19 
REMARK    8  A    between atoms: C_19  and  C_20 
REMARK    9  A    between atoms: C_19  and  C_26 
ROOT
HETATM    1  C   UNL     1      -8.421   4.682 -33.326  1.00  0.00     0.200 C 
HETATM    2  N   UNL     1      -7.853   5.790 -32.573  1.00  0.00    -0.211 N 
HETATM    3  C   UNL     1      -7.781   5.708 -31.223  1.00  0.00     0.702 C 
HETATM    4  N   UNL     1      -8.369   4.828 -30.490  1.00  0.00    -0.028 NA
HETATM    5  C   UNL     1      -9.076   3.833 -31.123  1.00  0.00     0.263 C 
HETATM    6  O   UNL     1      -9.386   2.796 -30.544  1.00  0.00    -0.271 OA
HETATM    7  C   UNL     1      -9.561   4.084 -32.529  1.00  0.00     0.141 C 
HETATM    8  H   UNL     1      -7.096   6.279 -33.034  1.00  0.00     0.178 HD
ENDROOT
BRANCH   3   9
HETATM    9  N   UNL     1      -7.050   6.739 -30.681  1.00  0.00    -0.213 N 
HETATM   10  C   UNL     1      -6.226   7.535 -31.623  1.00  0.00     0.169 C 
HETATM   11  C   UNL     1      -4.852   6.873 -31.865  1.00  0.00     0.256 C 
HETATM   12  N   UNL     1      -4.131   6.702 -30.526  1.00  0.00    -0.056 N 
HETATM   13  H   UNL     1      -4.120   7.607 -30.049  1.00  0.00     0.281 HD
HETATM   14  C   UNL     1      -4.973   5.793 -29.627  1.00  0.00     0.256 C 
HETATM   15  C   UNL     1      -6.354   6.448 -29.404  1.00  0.00     0.169 C 
BRANCH  12  16
HETATM   16  C   UNL     1      -2.665   6.287 -30.612  1.00  0.00     0.254 C 
BRANCH  16  17
HETATM   17  C   UNL     1      -2.180   6.037 -32.035  1.00  0.00    -0.023 A 
HETATM   18  C   UNL     1      -1.546   7.041 -32.790  1.00  0.00     0.009 A 
HETATM   19  C   UNL     1      -1.121   6.789 -34.095  1.00  0.00     0.001 A 
HETATM   20  C   UNL     1      -1.320   5.534 -34.665  1.00  0.00     0.000 A 
HETATM   21  C   UNL     1      -1.941   4.527 -33.932  1.00  0.00     0.001 A 
HETATM   22  C   UNL     1      -2.369   4.775 -32.627  1.00  0.00     0.009 A 
ENDBRANCH  16  17
BRANCH  16  23
HETATM   23  C   UNL     1      -1.706   7.134 -29.759  1.00  0.00    -0.023 A 
HETATM   24  C   UNL     1      -2.023   8.400 -29.233  1.00  0.00     0.009 A 
HETATM   25  C   UNL     1      -1.109   9.097 -28.434  1.00  0.00     0.001 A 
HETATM   26  C   UNL     1       0.136   8.547 -28.147  1.00  0.00     0.000 A 
HETATM   27  C   UNL     1       0.473   7.298 -28.653  1.00  0.00     0.001 A 
HETATM   28  C   UNL     1      -0.439   6.597 -29.445  1.00  0.00     0.009 A 
ENDBRANCH  16  23
ENDBRANCH  12  16
ENDBRANCH   3   9
BRANCH   1  29
HETATM   29  C   UNL     1      -7.349   3.623 -33.678  1.00  0.00     0.246 C 
HETATM   30  N   UNL     1      -7.812   2.327 -33.497  1.00  0.00    -0.325 N 
HETATM   31  H   UNL     1      -8.789   2.211 -33.249  1.00  0.00     0.169 HD
HETATM   32  O   UNL     1      -6.238   3.952 -34.090  1.00  0.00    -0.271 OA
BRANCH  30  33
HETATM   33  C   UNL     1      -7.089   1.122 -33.602  1.00  0.00     0.034 A 
HETATM   34  C   UNL     1      -7.164   0.251 -34.689  1.00  0.00     0.030 A 
HETATM   35  C   UNL     1      -6.356  -0.895 -34.734  1.00  0.00     0.020 A 
HETATM   36  C   UNL     1      -5.462  -1.182 -33.695  1.00  0.00     0.039 A 
HETATM   37  C   UNL     1      -5.406  -0.325 -32.592  1.00  0.00     0.020 A 
HETATM   38  C   UNL     1      -6.214   0.816 -32.549  1.00  0.00     0.030 A 
BRANCH  36  39
HETATM   39  C   UNL     1      -4.584  -2.378 -33.821  1.00  0.00     0.293 C 
HETATM   40  O   UNL     1      -3.758  -2.695 -32.981  1.00  0.00    -0.259 OA
BRANCH  39  41
HETATM   41  O   UNL     1      -4.873  -3.057 -34.958  1.00  0.00    -0.318 OA
BRANCH  41  42
HETATM   42  C   UNL     1      -5.335  -4.406 -34.787  1.00  0.00     0.174 C 
HETATM   43  C   UNL     1      -6.762  -4.543 -35.283  1.00  0.00     0.034 C 
ENDBRANCH  41  42
ENDBRANCH  39  41
ENDBRANCH  36  39
ENDBRANCH  30  33
ENDBRANCH   1  29
TORSDOF 9
ENDMDL
MODEL 6
REMARK VINA RESULT:      -9.3      2.815      6.688
REMARK  9 active torsions:
REMARK  status: ('A' for Active; 'I' for Inactive)
REMARK    1  A    between atoms: C_2  and  O_3 
REMARK    2  A    between atoms: O_3  and  C_4 
REMARK    3  A    between atoms: C_4  and  C_5 
REMARK    4  A    between atoms: C_8  and  N_9 
REMARK       I    between atoms: N_9  and  C_10 
REMARK    5  A    between atoms: C_10  and  C_11 
REMARK    6  A    between atoms: C_13  and  N_14 
REMARK    7  A    between atoms: N_17  and  C_19 
REMARK    8  A    between atoms: C_19  and  C_20 
REMARK    9  A    between atoms: C_19  and  C_26 
ROOT
HETATM    1  C   UNL     1      -9.896   4.015 -30.473  1.00  0.00     0.200 C 
HETATM    2  N   UNL     1     -10.069   2.716 -31.104  1.00  0.00    -0.211 N 
HETATM    3  C   UNL     1     -10.130   2.635 -32.455  1.00  0.00     0.702 C 
HETATM    4  N   UNL     1     -10.271   3.629 -33.262  1.00  0.00    -0.028 NA
HETATM    5  C   UNL     1     -10.288   4.895 -32.726  1.00  0.00     0.263 C 
HETATM    6  O   UNL     1     -10.093   5.889 -33.418  1.00  0.00    -0.271 OA
HETATM    7  C   UNL     1     -10.658   5.050 -31.271  1.00  0.00     0.141 C 
HETATM    8  H   UNL     1      -9.618   1.943 -30.629  1.00  0.00     0.178 HD
ENDROOT
BRANCH   3   9
HETATM    9  N   UNL     1     -10.100   1.334 -32.897  1.00  0.00    -0.213 N 
HETATM   10  C   UNL     1      -9.479   0.339 -31.990  1.00  0.00     0.169 C 
HETATM   11  C   UNL     1      -7.946   0.291 -32.174  1.00  0.00     0.256 C 
HETATM   12  N   UNL     1      -7.623  -0.033 -33.635  1.00  0.00    -0.056 N 
HETATM   13  H   UNL     1      -8.138  -0.877 -33.899  1.00  0.00     0.281 HD
HETATM   14  C   UNL     1      -8.199   1.075 -34.521  1.00  0.00     0.256 C 
HETATM   15  C   UNL     1      -9.729   1.134 -34.319  1.00  0.00     0.169 C 
BRANCH  12  16
HETATM   16  C   UNL     1      -6.161  -0.356 -33.933  1.00  0.00     0.254 C 
BRANCH  16  17
HETATM   17  C   UNL     1      -5.181   0.270 -32.948  1.00  0.00    -0.023 A 
HETATM   18  C   UNL     1      -4.864   1.640 -32.987  1.00  0.00     0.009 A 
HETATM   19  C   UNL     1      -3.955   2.186 -32.080  1.00  0.00     0.001 A 
HETATM   20  C   UNL     1      -3.352   1.376 -31.120  1.00  0.00     0.000 A 
HETATM   21  C   UNL     1      -3.658   0.020 -31.064  1.00  0.00     0.001 A 
HETATM   22  C   UNL     1      -4.565  -0.532 -31.970  1.00  0.00     0.009 A 
ENDBRANCH  16  17
BRANCH  16  23
HETATM   23  C   UNL     1      -5.882  -1.834 -34.248  1.00  0.00    -0.023 A 
HETATM   24  C   UNL     1      -4.599  -2.412 -34.268  1.00  0.00     0.009 A 
HETATM   25  C   UNL     1      -4.428  -3.776 -34.529  1.00  0.00     0.001 A 
HETATM   26  C   UNL     1      -5.529  -4.589 -34.776  1.00  0.00     0.000 A 
HETATM   27  C   UNL     1      -6.807  -4.044 -34.760  1.00  0.00     0.001 A 
HETATM   28  C   UNL     1      -6.983  -2.684 -34.493  1.00  0.00     0.009 A 
ENDBRANCH  16  23
ENDBRANCH  12  16
ENDBRANCH   3   9
BRANCH   1  29
HETATM   29  C   UNL     1      -8.400   4.385 -30.332  1.00  0.00     0.246 C 
HETATM   30  N   UNL     1      -8.000   5.318 -31.278  1.00  0.00    -0.325 N 
HETATM   31  H   UNL     1      -8.716   5.711 -31.879  1.00  0.00     0.169 HD
HETATM   32  O   UNL     1      -7.702   3.894 -29.448  1.00  0.00    -0.271 OA
BRANCH  30  33
HETATM   33  C   UNL     1      -6.699   5.800 -31.530  1.00  0.00     0.034 A 
HETATM   34  C   UNL     1      -5.928   5.445 -32.636  1.00  0.00     0.030 A 
HETATM   35  C   UNL     1      -4.667   6.028 -32.836  1.00  0.00     0.020 A 
HETATM   36  C   UNL     1      -4.164   6.973 -31.933  1.00  0.00     0.039 A 
HETATM   37  C   UNL     1      -4.923   7.309 -30.809  1.00  0.00     0.020 A 
HETATM   38  C   UNL     1      -6.180   6.725 -30.611  1.00  0.00     0.030 A 
BRANCH  36  39
HETATM   39  C   UNL     1      -2.848   7.605 -32.224  1.00  0.00     0.293 C 
HETATM   40  O   UNL     1      -2.562   8.743 -31.889  1.00  0.00    -0.259 OA
BRANCH  39  41
HETATM   41  O   UNL     1      -2.033   6.727 -32.859  1.00  0.00    -0.318 OA
BRANCH  41  42
HETATM   42  C   UNL     1      -0.882   6.289 -32.122  1.00  0.00     0.174 C 
HETATM   43  C   UNL     1      -1.101   4.889 -31.581  1.00  0.00     0.034 C 
ENDBRANCH  41  42
ENDBRANCH  39  41
ENDBRANCH  36  39
ENDBRANCH  30  33
ENDBRANCH   1  29
TORSDOF 9
ENDMDL
MODEL 7
REMARK VINA RESULT:      -8.8      3.156      6.809
REMARK  9 active torsions:
REMARK  status: ('A' for Active; 'I' for Inactive)
REMARK    1  A    between atoms: C_2  and  O_3 
REMARK    2  A    between atoms: O_3  and  C_4 
REMARK    3  A    between atoms: C_4  and  C_5 
REMARK    4  A    between atoms: C_8  and  N_9 
REMARK       I    between atoms: N_9  and  C_10 
REMARK    5  A    between atoms: C_10  and  C_11 
REMARK    6  A    between atoms: C_13  and  N_14 
REMARK    7  A    between atoms: N_17  and  C_19 
REMARK    8  A    between atoms: C_19  and  C_20 
REMARK    9  A    between atoms: C_19  and  C_26 
ROOT
HETATM    1  C   UNL     1      -5.745   6.328 -32.454  1.00  0.00     0.200 C 
HETATM    2  N   UNL     1      -5.190   5.028 -32.108  1.00  0.00    -0.211 N 
HETATM    3  C   UNL     1      -4.902   4.752 -30.814  1.00  0.00     0.702 C 
HETATM    4  N   UNL     1      -4.861   5.609 -29.853  1.00  0.00    -0.028 NA
HETATM    5  C   UNL     1      -5.210   6.909 -30.135  1.00  0.00     0.263 C 
HETATM    6  O   UNL     1      -5.511   7.701 -29.247  1.00  0.00    -0.271 OA
HETATM    7  C   UNL     1      -5.117   7.379 -31.565  1.00  0.00     0.141 C 
HETATM    8  H   UNL     1      -5.527   4.254 -32.668  1.00  0.00     0.178 HD
ENDROOT
BRANCH   3   9
HETATM    9  N   UNL     1      -4.572   3.430 -30.628  1.00  0.00    -0.213 N 
HETATM   10  C   UNL     1      -3.663   2.826 -31.632  1.00  0.00     0.169 C 
HETATM   11  C   UNL     1      -4.446   2.314 -32.861  1.00  0.00     0.256 C 
HETATM   12  N   UNL     1      -5.498   1.300 -32.403  1.00  0.00    -0.056 N 
HETATM   13  H   UNL     1      -5.033   0.589 -31.834  1.00  0.00     0.281 HD
HETATM   14  C   UNL     1      -6.469   2.000 -31.448  1.00  0.00     0.256 C 
HETATM   15  C   UNL     1      -5.680   2.529 -30.230  1.00  0.00     0.169 C 
BRANCH  12  16
HETATM   16  C   UNL     1      -6.193   0.520 -33.516  1.00  0.00     0.254 C 
BRANCH  16  17
HETATM   17  C   UNL     1      -5.599  -0.863 -33.758  1.00  0.00    -0.023 A 
HETATM   18  C   UNL     1      -4.485  -1.328 -33.035  1.00  0.00     0.009 A 
HETATM   19  C   UNL     1      -3.954  -2.595 -33.284  1.00  0.00     0.001 A 
HETATM   20  C   UNL     1      -4.526  -3.415 -34.254  1.00  0.00     0.000 A 
HETATM   21  C   UNL     1      -5.631  -2.973 -34.975  1.00  0.00     0.001 A 
HETATM   22  C   UNL     1      -6.165  -1.706 -34.732  1.00  0.00     0.009 A 
ENDBRANCH  16  17
BRANCH  16  23
HETATM   23  C   UNL     1      -7.728   0.545 -33.455  1.00  0.00    -0.023 A 
HETATM   24  C   UNL     1      -8.495  -0.135 -32.489  1.00  0.00     0.009 A 
HETATM   25  C   UNL     1      -9.891  -0.035 -32.478  1.00  0.00     0.001 A 
HETATM   26  C   UNL     1     -10.548   0.740 -33.427  1.00  0.00     0.000 A 
HETATM   27  C   UNL     1      -9.815   1.422 -34.390  1.00  0.00     0.001 A 
HETATM   28  C   UNL     1      -8.421   1.331 -34.401  1.00  0.00     0.009 A 
ENDBRANCH  16  23
ENDBRANCH  12  16
ENDBRANCH   3   9
BRANCH   1  29
HETATM   29  C   UNL     1      -7.289   6.334 -32.349  1.00  0.00     0.246 C 
HETATM   30  N   UNL     1      -7.829   5.063 -32.489  1.00  0.00    -0.325 N 
HETATM   31  H   UNL     1      -7.181   4.285 -32.554  1.00  0.00     0.169 HD
HETATM   32  O   UNL     1      -7.910   7.374 -32.139  1.00  0.00    -0.271 OA
BRANCH  30  33
HETATM   33  C   UNL     1      -9.189   4.699 -32.565  1.00  0.00     0.034 A 
HETATM   34  C   UNL     1      -9.898   4.083 -31.535  1.00  0.00     0.030 A 
HETATM   35  C   UNL     1     -11.268   3.817 -31.680  1.00  0.00     0.020 A 
HETATM   36  C   UNL     1     -11.944   4.165 -32.856  1.00  0.00     0.039 A 
HETATM   37  C   UNL     1     -11.229   4.758 -33.900  1.00  0.00     0.020 A 
HETATM   38  C   UNL     1      -9.862   5.020 -33.753  1.00  0.00     0.030 A 
BRANCH  36  39
HETATM   39  C   UNL     1     -13.410   3.916 -32.935  1.00  0.00     0.293 C 
HETATM   40  O   UNL     1     -14.238   4.808 -33.020  1.00  0.00    -0.259 OA
BRANCH  39  41
HETATM   41  O   UNL     1     -13.662   2.584 -32.942  1.00  0.00    -0.318 OA
BRANCH  41  42
HETATM   42  C   UNL     1     -13.813   1.978 -34.235  1.00  0.00     0.174 C 
HETATM   43  C   UNL     1     -14.171   0.511 -34.093  1.00  0.00     0.034 C 
ENDBRANCH  41  42
ENDBRANCH  39  41
ENDBRANCH  36  39
ENDBRANCH  30  33
ENDBRANCH   1  29
TORSDOF 9
ENDMDL
MODEL 8
REMARK VINA RESULT:      -8.6      2.577      6.447
REMARK  9 active torsions:
REMARK  status: ('A' for Active; 'I' for Inactive)
REMARK    1  A    between atoms: C_2  and  O_3 
REMARK    2  A    between atoms: O_3  and  C_4 
REMARK    3  A    between atoms: C_4  and  C_5 
REMARK    4  A    between atoms: C_8  and  N_9 
REMARK       I    between atoms: N_9  and  C_10 
REMARK    5  A    between atoms: C_10  and  C_11 
REMARK    6  A    between atoms: C_13  and  N_14 
REMARK    7  A    between atoms: N_17  and  C_19 
REMARK    8  A    between atoms: C_19  and  C_20 
REMARK    9  A    between atoms: C_19  and  C_26 
ROOT
HETATM    1  C   UNL     1     -11.437   4.078 -33.263  1.00  0.00     0.200 C 
HETATM    2  N   UNL     1     -10.322   5.010 -33.186  1.00  0.00    -0.211 N 
HETATM    3  C   UNL     1      -9.694   5.199 -32.001  1.00  0.00     0.702 C 
HETATM    4  N   UNL     1     -10.117   4.797 -30.853  1.00  0.00    -0.028 NA
HETATM    5  C   UNL     1     -11.268   4.046 -30.819  1.00  0.00     0.263 C 
HETATM    6  O   UNL     1     -11.561   3.362 -29.843  1.00  0.00    -0.271 OA
HETATM    7  C   UNL     1     -12.229   4.159 -31.976  1.00  0.00     0.141 C 
HETATM    8  H   UNL     1      -9.741   5.055 -34.014  1.00  0.00     0.178 HD
ENDROOT
BRANCH   3   9
HETATM    9  N   UNL     1      -8.552   5.953 -32.136  1.00  0.00    -0.213 N 
HETATM   10  C   UNL     1      -7.943   6.001 -33.486  1.00  0.00     0.169 C 
HETATM   11  C   UNL     1      -7.007   4.795 -33.723  1.00  0.00     0.256 C 
HETATM   12  N   UNL     1      -5.924   4.776 -32.641  1.00  0.00    -0.056 N 
HETATM   13  H   UNL     1      -5.479   5.697 -32.616  1.00  0.00     0.281 HD
HETATM   14  C   UNL     1      -6.599   4.626 -31.275  1.00  0.00     0.256 C 
HETATM   15  C   UNL     1      -7.549   5.822 -31.051  1.00  0.00     0.169 C 
BRANCH  12  16
HETATM   16  C   UNL     1      -4.779   3.794 -32.869  1.00  0.00     0.254 C 
BRANCH  16  17
HETATM   17  C   UNL     1      -3.398   4.398 -32.643  1.00  0.00    -0.023 A 
HETATM   18  C   UNL     1      -2.907   4.663 -31.352  1.00  0.00     0.009 A 
HETATM   19  C   UNL     1      -1.642   5.225 -31.173  1.00  0.00     0.001 A 
HETATM   20  C   UNL     1      -0.850   5.530 -32.277  1.00  0.00     0.000 A 
HETATM   21  C   UNL     1      -1.317   5.270 -33.562  1.00  0.00     0.001 A 
HETATM   22  C   UNL     1      -2.582   4.708 -33.746  1.00  0.00     0.009 A 
ENDBRANCH  16  17
BRANCH  16  23
HETATM   23  C   UNL     1      -4.978   2.415 -32.219  1.00  0.00    -0.023 A 
HETATM   24  C   UNL     1      -6.091   2.063 -31.433  1.00  0.00     0.009 A 
HETATM   25  C   UNL     1      -6.219   0.773 -30.904  1.00  0.00     0.001 A 
HETATM   26  C   UNL     1      -5.243  -0.187 -31.146  1.00  0.00     0.000 A 
HETATM   27  C   UNL     1      -4.135   0.135 -31.921  1.00  0.00     0.001 A 
HETATM   28  C   UNL     1      -4.007   1.418 -32.456  1.00  0.00     0.009 A 
ENDBRANCH  16  23
ENDBRANCH  12  16
ENDBRANCH   3   9
BRANCH   1  29
HETATM   29  C   UNL     1     -10.954   2.637 -33.552  1.00  0.00     0.246 C 
HETATM   30  N   UNL     1      -9.572   2.525 -33.491  1.00  0.00    -0.325 N 
HETATM   31  H   UNL     1      -9.050   3.341 -33.190  1.00  0.00     0.169 HD
HETATM   32  O   UNL     1     -11.753   1.730 -33.779  1.00  0.00    -0.271 OA
BRANCH  30  33
HETATM   33  C   UNL     1      -8.775   1.406 -33.809  1.00  0.00     0.034 A 
HETATM   34  C   UNL     1      -7.744   1.415 -34.748  1.00  0.00     0.030 A 
HETATM   35  C   UNL     1      -6.961   0.268 -34.949  1.00  0.00     0.020 A 
HETATM   36  C   UNL     1      -7.199  -0.900 -34.213  1.00  0.00     0.039 A 
HETATM   37  C   UNL     1      -8.250  -0.919 -33.291  1.00  0.00     0.020 A 
HETATM   38  C   UNL     1      -9.030   0.226 -33.094  1.00  0.00     0.030 A 
BRANCH  36  39
HETATM   39  C   UNL     1      -6.300  -2.068 -34.422  1.00  0.00     0.293 C 
HETATM   40  O   UNL     1      -5.089  -1.973 -34.525  1.00  0.00    -0.259 OA
BRANCH  39  41
HETATM   41  O   UNL     1      -7.018  -3.219 -34.432  1.00  0.00    -0.318 OA
BRANCH  41  42
HETATM   42  C   UNL     1      -6.574  -4.231 -35.348  1.00  0.00     0.174 C 
HETATM   43  C   UNL     1      -5.541  -5.124 -34.689  1.00  0.00     0.034 C 
ENDBRANCH  41  42
ENDBRANCH  39  41
ENDBRANCH  36  39
ENDBRANCH  30  33
ENDBRANCH   1  29
TORSDOF 9
ENDMDL
MODEL 9
REMARK VINA RESULT:      -8.5      3.128      6.346
REMARK  9 active torsions:
REMARK  status: ('A' for Active; 'I' for Inactive)
REMARK    1  A    between atoms: C_2  and  O_3 
REMARK    2  A    between atoms: O_3  and  C_4 
REMARK    3  A    between atoms: C_4  and  C_5 
REMARK    4  A    between atoms: C_8  and  N_9 
REMARK       I    between atoms: N_9  and  C_10 
REMARK    5  A    between atoms: C_10  and  C_11 
REMARK    6  A    between atoms: C_13  and  N_14 
REMARK    7  A    between atoms: N_17  and  C_19 
REMARK    8  A    between atoms: C_19  and  C_20 
REMARK    9  A    between atoms: C_19  and  C_26 
ROOT
HETATM    1  C   UNL     1      -6.735   7.331 -32.165  1.00  0.00     0.200 C 
HETATM    2  N   UNL     1      -6.002   6.344 -32.943  1.00  0.00    -0.211 N 
HETATM    3  C   UNL     1      -5.205   5.453 -32.306  1.00  0.00     0.702 C 
HETATM    4  N   UNL     1      -4.844   5.515 -31.071  1.00  0.00    -0.028 NA
HETATM    5  C   UNL     1      -5.364   6.529 -30.300  1.00  0.00     0.263 C 
HETATM    6  O   UNL     1      -5.340   6.480 -29.074  1.00  0.00    -0.271 OA
HETATM    7  C   UNL     1      -5.878   7.764 -30.996  1.00  0.00     0.141 C 
HETATM    8  H   UNL     1      -6.479   6.007 -33.771  1.00  0.00     0.178 HD
ENDROOT
BRANCH   3   9
HETATM    9  N   UNL     1      -4.741   4.476 -33.154  1.00  0.00    -0.213 N 
HETATM   10  C   UNL     1      -5.638   4.079 -34.265  1.00  0.00     0.169 C 
HETATM   11  C   UNL     1      -6.654   3.007 -33.811  1.00  0.00     0.256 C 
HETATM   12  N   UNL     1      -5.897   1.793 -33.268  1.00  0.00    -0.056 N 
HETATM   13  H   UNL     1      -5.212   1.500 -33.969  1.00  0.00     0.281 HD
HETATM   14  C   UNL     1      -5.063   2.235 -32.062  1.00  0.00     0.256 C 
HETATM   15  C   UNL     1      -4.063   3.321 -32.515  1.00  0.00     0.169 C 
BRANCH  12  16
HETATM   16  C   UNL     1      -6.742   0.551 -33.003  1.00  0.00     0.254 C 
BRANCH  16  17
HETATM   17  C   UNL     1      -8.220   0.734 -33.326  1.00  0.00    -0.023 A 
HETATM   18  C   UNL     1      -8.650   1.524 -34.408  1.00  0.00     0.009 A 
HETATM   19  C   UNL     1     -10.010   1.683 -34.677  1.00  0.00     0.001 A 
HETATM   20  C   UNL     1     -10.960   1.057 -33.874  1.00  0.00     0.000 A 
HETATM   21  C   UNL     1     -10.553   0.268 -32.802  1.00  0.00     0.001 A 
HETATM   22  C   UNL     1      -9.194   0.106 -32.528  1.00  0.00     0.009 A 
ENDBRANCH  16  17
BRANCH  16  23
HETATM   23  C   UNL     1      -6.139  -0.761 -33.531  1.00  0.00    -0.023 A 
HETATM   24  C   UNL     1      -6.764  -1.597 -34.475  1.00  0.00     0.009 A 
HETATM   25  C   UNL     1      -6.134  -2.759 -34.936  1.00  0.00     0.001 A 
HETATM   26  C   UNL     1      -4.874  -3.111 -34.464  1.00  0.00     0.000 A 
HETATM   27  C   UNL     1      -4.234  -2.301 -33.533  1.00  0.00     0.001 A 
HETATM   28  C   UNL     1      -4.857  -1.137 -33.076  1.00  0.00     0.009 A 
ENDBRANCH  16  23
ENDBRANCH  12  16
ENDBRANCH   3   9
BRANCH   1  29
HETATM   29  C   UNL     1      -8.107   6.785 -31.702  1.00  0.00     0.246 C 
HETATM   30  N   UNL     1      -8.603   5.815 -32.562  1.00  0.00    -0.325 N 
HETATM   31  H   UNL     1      -8.002   5.514 -33.322  1.00  0.00     0.169 HD
HETATM   32  O   UNL     1      -8.636   7.186 -30.667  1.00  0.00    -0.271 OA
BRANCH  30  33
HETATM   33  C   UNL     1      -9.863   5.184 -32.528  1.00  0.00     0.034 A 
HETATM   34  C   UNL     1     -10.294   4.340 -31.505  1.00  0.00     0.030 A 
HETATM   35  C   UNL     1     -11.592   3.809 -31.526  1.00  0.00     0.020 A 
HETATM   36  C   UNL     1     -12.475   4.117 -32.568  1.00  0.00     0.039 A 
HETATM   37  C   UNL     1     -12.036   4.941 -33.608  1.00  0.00     0.020 A 
HETATM   38  C   UNL     1     -10.740   5.468 -33.586  1.00  0.00     0.030 A 
BRANCH  36  39
HETATM   39  C   UNL     1     -13.861   3.576 -32.511  1.00  0.00     0.293 C 
HETATM   40  O   UNL     1     -14.854   4.282 -32.452  1.00  0.00    -0.259 OA
BRANCH  39  41
HETATM   41  O   UNL     1     -13.842   2.222 -32.578  1.00  0.00    -0.318 OA
BRANCH  41  42
HETATM   42  C   UNL     1     -15.028   1.600 -33.095  1.00  0.00     0.174 C 
HETATM   43  C   UNL     1     -14.687   0.707 -34.272  1.00  0.00     0.034 C 
ENDBRANCH  41  42
ENDBRANCH  39  41
ENDBRANCH  36  39
ENDBRANCH  30  33
ENDBRANCH   1  29
TORSDOF 9
ENDMDL
MODEL 10
REMARK VINA RESULT:      -8.4      3.268      7.875
REMARK  9 active torsions:
REMARK  status: ('A' for Active; 'I' for Inactive)
REMARK    1  A    between atoms: C_2  and  O_3 
REMARK    2  A    between atoms: O_3  and  C_4 
REMARK    3  A    between atoms: C_4  and  C_5 
REMARK    4  A    between atoms: C_8  and  N_9 
REMARK       I    between atoms: N_9  and  C_10 
REMARK    5  A    between atoms: C_10  and  C_11 
REMARK    6  A    between atoms: C_13  and  N_14 
REMARK    7  A    between atoms: N_17  and  C_19 
REMARK    8  A    between atoms: C_19  and  C_20 
REMARK    9  A    between atoms: C_19  and  C_26 
ROOT
HETATM    1  C   UNL     1      -7.833   6.563 -32.469  1.00  0.00     0.200 C 
HETATM    2  N   UNL     1      -7.072   7.517 -31.676  1.00  0.00    -0.211 N 
HETATM    3  C   UNL     1      -6.933   7.313 -30.344  1.00  0.00     0.702 C 
HETATM    4  N   UNL     1      -7.594   6.461 -29.640  1.00  0.00    -0.028 NA
HETATM    5  C   UNL     1      -8.470   5.628 -30.296  1.00  0.00     0.263 C 
HETATM    6  O   UNL     1      -8.887   4.597 -29.776  1.00  0.00    -0.271 OA
HETATM    7  C   UNL     1      -8.996   6.060 -31.641  1.00  0.00     0.141 C 
HETATM    8  H   UNL     1      -6.282   7.937 -32.150  1.00  0.00     0.178 HD
ENDROOT
BRANCH   3   9
HETATM    9  N   UNL     1      -6.034   8.186 -29.779  1.00  0.00    -0.213 N 
HETATM   10  C   UNL     1      -5.387   9.158 -30.693  1.00  0.00     0.169 C 
HETATM   11  C   UNL     1      -4.146   8.543 -31.378  1.00  0.00     0.256 C 
HETATM   12  N   UNL     1      -3.161   8.069 -30.308  1.00  0.00    -0.056 N 
HETATM   13  H   UNL     1      -2.986   8.845 -29.665  1.00  0.00     0.281 HD
HETATM   14  C   UNL     1      -3.844   6.997 -29.454  1.00  0.00     0.256 C 
HETATM   15  C   UNL     1      -5.095   7.608 -28.787  1.00  0.00     0.169 C 
BRANCH  12  16
HETATM   16  C   UNL     1      -1.781   7.659 -30.814  1.00  0.00     0.254 C 
BRANCH  16  17
HETATM   17  C   UNL     1      -0.787   7.345 -29.702  1.00  0.00    -0.023 A 
HETATM   18  C   UNL     1      -0.376   8.323 -28.777  1.00  0.00     0.009 A 
HETATM   19  C   UNL     1       0.543   8.012 -27.774  1.00  0.00     0.001 A 
HETATM   20  C   UNL     1       1.063   6.724 -27.677  1.00  0.00     0.000 A 
HETATM   21  C   UNL     1       0.664   5.742 -28.579  1.00  0.00     0.001 A 
HETATM   22  C   UNL     1      -0.254   6.048 -29.585  1.00  0.00     0.009 A 
ENDBRANCH  16  17
BRANCH  16  23
HETATM   23  C   UNL     1      -1.796   6.630 -31.956  1.00  0.00    -0.023 A 
HETATM   24  C   UNL     1      -2.404   5.363 -31.873  1.00  0.00     0.009 A 
HETATM   25  C   UNL     1      -2.406   4.493 -32.969  1.00  0.00     0.001 A 
HETATM   26  C   UNL     1      -1.803   4.867 -34.165  1.00  0.00     0.000 A 
HETATM   27  C   UNL     1      -1.197   6.113 -34.274  1.00  0.00     0.001 A 
HETATM   28  C   UNL     1      -1.198   6.987 -33.184  1.00  0.00     0.009 A 
ENDBRANCH  16  23
ENDBRANCH  12  16
ENDBRANCH   3   9
BRANCH   1  29
HETATM   29  C   UNL     1      -6.942   5.403 -32.973  1.00  0.00     0.246 C 
HETATM   30  N   UNL     1      -7.567   4.170 -32.848  1.00  0.00    -0.325 N 
HETATM   31  H   UNL     1      -8.532   4.165 -32.536  1.00  0.00     0.169 HD
HETATM   32  O   UNL     1      -5.827   5.614 -33.445  1.00  0.00    -0.271 OA
BRANCH  30  33
HETATM   33  C   UNL     1      -7.025   2.891 -33.091  1.00  0.00     0.034 A 
HETATM   34  C   UNL     1      -7.311   2.116 -34.214  1.00  0.00     0.030 A 
HETATM   35  C   UNL     1      -6.672   0.881 -34.402  1.00  0.00     0.020 A 
HETATM   36  C   UNL     1      -5.739   0.408 -33.471  1.00  0.00     0.039 A 
HETATM   37  C   UNL     1      -5.472   1.172 -32.331  1.00  0.00     0.020 A 
HETATM   38  C   UNL     1      -6.112   2.402 -32.145  1.00  0.00     0.030 A 
BRANCH  36  39
HETATM   39  C   UNL     1      -5.045  -0.879 -33.749  1.00  0.00     0.293 C 
HETATM   40  O   UNL     1      -3.836  -1.021 -33.662  1.00  0.00    -0.259 OA
BRANCH  39  41
HETATM   41  O   UNL     1      -5.946  -1.843 -34.060  1.00  0.00    -0.318 OA
BRANCH  41  42
HETATM   42  C   UNL     1      -5.411  -3.044 -34.638  1.00  0.00     0.174 C 
HETATM   43  C   UNL     1      -6.530  -3.998 -35.006  1.00  0.00     0.034 C 
ENDBRANCH  41  42
ENDBRANCH  39  41
ENDBRANCH  36  39
ENDBRANCH  30  33
ENDBRANCH   1  29
TORSDOF 9
ENDMDL
