MODEL 1
REMARK VINA RESULT:      -7.3      0.000      0.000
REMARK  5 active torsions:
REMARK  status: ('A' for Active; 'I' for Inactive)
REMARK    1  A    between atoms: C_7  and  O_8 
REMARK    2  A    between atoms: O_8  and  C_9 
REMARK    3  A    between atoms: C_12  and  N_13 
REMARK    4  A    between atoms: N_13  and  C_16 
REMARK    5  A    between atoms: C_16  and  C_17 
ROOT
HETATM    1  C   UNL     1      -2.354   4.263 -32.847  1.00  0.00     0.028 A 
HETATM    2  C   UNL     1      -2.975   5.465 -33.173  1.00  0.00     0.062 A 
HETATM    3  C   UNL     1      -2.237   6.570 -33.693  1.00  0.00     0.101 C 
HETATM    4  N   UNL     1      -1.660   7.481 -34.119  1.00  0.00    -0.191 NA
HETATM    5  C   UNL     1      -4.349   5.564 -32.978  1.00  0.00     0.142 A 
HETATM    6  N   UNL     1      -5.133   4.564 -32.491  1.00  0.00    -0.236 NA
HETATM    7  C   UNL     1      -4.492   3.412 -32.186  1.00  0.00     0.164 A 
HETATM    8  C   UNL     1      -3.126   3.218 -32.345  1.00  0.00     0.059 A 
ENDROOT
BRANCH   7   9
HETATM    9  O   UNL     1      -5.181   2.332 -31.687  1.00  0.00    -0.329 OA
BRANCH   9  10
HETATM   10  C   UNL     1      -6.308   1.815 -32.387  1.00  0.00     0.130 C 
HETATM   11  C   UNL     1      -7.173   0.856 -31.557  1.00  0.00     0.034 C 
HETATM   12  C   UNL     1      -8.420   0.424 -32.326  1.00  0.00     0.035 C 
HETATM   13  C   UNL     1      -8.108  -0.124 -33.723  1.00  0.00     0.186 C 
HETATM   14  C   UNL     1      -7.243   0.851 -34.531  1.00  0.00     0.035 C 
HETATM   15  C   UNL     1      -5.979   1.288 -33.791  1.00  0.00     0.034 C 
BRANCH  13  16
HETATM   16  N   UNL     1      -7.398  -1.444 -33.638  1.00  0.00    -0.067 N 
HETATM   17  H   UNL     1      -6.595  -1.344 -33.003  1.00  0.00     0.278 HD
HETATM   18  H   UNL     1      -7.992  -2.164 -33.199  1.00  0.00     0.278 HD
BRANCH  16  19
HETATM   19  C   UNL     1      -6.871  -1.985 -34.933  1.00  0.00     0.280 C 
BRANCH  19  20
HETATM   20  C   UNL     1      -5.997  -3.165 -34.720  1.00  0.00     0.027 A 
HETATM   21  S   UNL     1      -4.413  -3.006 -34.077  1.00  0.00    -0.084 SA
HETATM   22  C   UNL     1      -4.212  -4.707 -34.188  1.00  0.00     0.166 A 
HETATM   23  N   UNL     1      -5.236  -5.368 -34.682  1.00  0.00    -0.265 NA
HETATM   24  C   UNL     1      -6.263  -4.497 -34.969  1.00  0.00     0.133 A 
ENDBRANCH  19  20
ENDBRANCH  16  19
ENDBRANCH  13  16
ENDBRANCH   9  10
ENDBRANCH   7   9
TORSDOF 5
ENDMDL
MODEL 2
REMARK VINA RESULT:      -7.2      3.187      5.590
REMARK  5 active torsions:
REMARK  status: ('A' for Active; 'I' for Inactive)
REMARK    1  A    between atoms: C_7  and  O_8 
REMARK    2  A    between atoms: O_8  and  C_9 
REMARK    3  A    between atoms: C_12  and  N_13 
REMARK    4  A    between atoms: N_13  and  C_16 
REMARK    5  A    between atoms: C_16  and  C_17 
ROOT
HETATM    1  C   UNL     1     -10.262   0.321 -33.182  1.00  0.00     0.028 A 
HETATM    2  C   UNL     1     -10.901   1.485 -33.598  1.00  0.00     0.062 A 
HETATM    3  C   UNL     1     -11.929   1.460 -34.588  1.00  0.00     0.101 C 
HETATM    4  N   UNL     1     -12.768   1.465 -35.389  1.00  0.00    -0.191 NA
HETATM    5  C   UNL     1     -10.511   2.688 -33.018  1.00  0.00     0.142 A 
HETATM    6  N   UNL     1      -9.544   2.808 -32.068  1.00  0.00    -0.236 NA
HETATM    7  C   UNL     1      -8.947   1.655 -31.690  1.00  0.00     0.164 A 
HETATM    8  C   UNL     1      -9.267   0.408 -32.211  1.00  0.00     0.059 A 
ENDROOT
BRANCH   7   9
HETATM    9  O   UNL     1      -7.957   1.653 -30.736  1.00  0.00    -0.329 OA
BRANCH   9  10
HETATM   10  C   UNL     1      -6.597   1.459 -31.114  1.00  0.00     0.130 C 
HETATM   11  C   UNL     1      -6.276   1.919 -32.543  1.00  0.00     0.034 C 
HETATM   12  C   UNL     1      -4.785   1.785 -32.848  1.00  0.00     0.035 C 
HETATM   13  C   UNL     1      -4.227   0.392 -32.538  1.00  0.00     0.186 C 
HETATM   14  C   UNL     1      -4.563  -0.044 -31.107  1.00  0.00     0.035 C 
HETATM   15  C   UNL     1      -6.052   0.064 -30.779  1.00  0.00     0.034 C 
BRANCH  13  16
HETATM   16  N   UNL     1      -4.770  -0.631 -33.494  1.00  0.00    -0.067 N 
HETATM   17  H   UNL     1      -5.758  -0.803 -33.265  1.00  0.00     0.278 HD
HETATM   18  H   UNL     1      -4.784  -0.271 -34.462  1.00  0.00     0.278 HD
BRANCH  16  19
HETATM   19  C   UNL     1      -4.078  -1.960 -33.489  1.00  0.00     0.280 C 
BRANCH  19  20
HETATM   20  C   UNL     1      -4.919  -3.020 -34.097  1.00  0.00     0.027 A 
HETATM   21  S   UNL     1      -6.537  -2.715 -34.583  1.00  0.00    -0.084 SA
HETATM   22  C   UNL     1      -6.672  -4.344 -35.107  1.00  0.00     0.166 A 
HETATM   23  N   UNL     1      -5.603  -5.088 -34.928  1.00  0.00    -0.265 NA
HETATM   24  C   UNL     1      -4.594  -4.334 -34.371  1.00  0.00     0.133 A 
ENDBRANCH  19  20
ENDBRANCH  16  19
ENDBRANCH  13  16
ENDBRANCH   9  10
ENDBRANCH   7   9
TORSDOF 5
ENDMDL
MODEL 3
REMARK VINA RESULT:      -7.1      3.018      8.055
REMARK  5 active torsions:
REMARK  status: ('A' for Active; 'I' for Inactive)
REMARK    1  A    between atoms: C_7  and  O_8 
REMARK    2  A    between atoms: O_8  and  C_9 
REMARK    3  A    between atoms: C_12  and  N_13 
REMARK    4  A    between atoms: N_13  and  C_16 
REMARK    5  A    between atoms: C_16  and  C_17 
ROOT
HETATM    1  C   UNL     1      -6.474  -1.740 -34.433  1.00  0.00     0.028 A 
HETATM    2  C   UNL     1      -5.713  -2.901 -34.525  1.00  0.00     0.062 A 
HETATM    3  C   UNL     1      -6.237  -4.094 -35.109  1.00  0.00     0.101 C 
HETATM    4  N   UNL     1      -6.640  -5.074 -35.580  1.00  0.00    -0.191 NA
HETATM    5  C   UNL     1      -4.414  -2.871 -34.030  1.00  0.00     0.142 A 
HETATM    6  N   UNL     1      -3.830  -1.782 -33.461  1.00  0.00    -0.236 NA
HETATM    7  C   UNL     1      -4.602  -0.673 -33.390  1.00  0.00     0.164 A 
HETATM    8  C   UNL     1      -5.909  -0.606 -33.855  1.00  0.00     0.059 A 
ENDROOT
BRANCH   7   9
HETATM    9  O   UNL     1      -4.119   0.489 -32.835  1.00  0.00    -0.329 OA
BRANCH   9  10
HETATM   10  C   UNL     1      -5.012   1.419 -32.231  1.00  0.00     0.130 C 
HETATM   11  C   UNL     1      -4.918   2.839 -32.807  1.00  0.00     0.034 C 
HETATM   12  C   UNL     1      -5.972   3.758 -32.194  1.00  0.00     0.035 C 
HETATM   13  C   UNL     1      -5.970   3.744 -30.662  1.00  0.00     0.186 C 
HETATM   14  C   UNL     1      -6.062   2.316 -30.112  1.00  0.00     0.035 C 
HETATM   15  C   UNL     1      -5.008   1.377 -30.696  1.00  0.00     0.034 C 
BRANCH  13  16
HETATM   16  N   UNL     1      -4.728   4.391 -30.119  1.00  0.00    -0.067 N 
HETATM   17  H   UNL     1      -4.859   4.559 -29.112  1.00  0.00     0.278 HD
HETATM   18  H   UNL     1      -3.917   3.756 -30.176  1.00  0.00     0.278 HD
BRANCH  16  19
HETATM   19  C   UNL     1      -4.352   5.703 -30.739  1.00  0.00     0.280 C 
BRANCH  19  20
HETATM   20  C   UNL     1      -2.991   5.663 -31.328  1.00  0.00     0.027 A 
HETATM   21  S   UNL     1      -2.333   7.012 -32.161  1.00  0.00    -0.084 SA
HETATM   22  C   UNL     1      -0.894   6.118 -32.442  1.00  0.00     0.166 A 
HETATM   23  N   UNL     1      -0.887   4.892 -31.970  1.00  0.00    -0.265 NA
HETATM   24  C   UNL     1      -2.072   4.633 -31.316  1.00  0.00     0.133 A 
ENDBRANCH  19  20
ENDBRANCH  16  19
ENDBRANCH  13  16
ENDBRANCH   9  10
ENDBRANCH   7   9
TORSDOF 5
ENDMDL
MODEL 4
REMARK VINA RESULT:      -7.1      4.721      7.756
REMARK  5 active torsions:
REMARK  status: ('A' for Active; 'I' for Inactive)
REMARK    1  A    between atoms: C_7  and  O_8 
REMARK    2  A    between atoms: O_8  and  C_9 
REMARK    3  A    between atoms: C_12  and  N_13 
REMARK    4  A    between atoms: N_13  and  C_16 
REMARK    5  A    between atoms: C_16  and  C_17 
ROOT
HETATM    1  C   UNL     1     -14.754   0.715 -33.612  1.00  0.00     0.028 A 
HETATM    2  C   UNL     1     -15.036   1.881 -32.906  1.00  0.00     0.062 A 
HETATM    3  C   UNL     1     -16.357   2.180 -32.455  1.00  0.00     0.101 C 
HETATM    4  N   UNL     1     -17.421   2.444 -32.077  1.00  0.00    -0.191 NA
HETATM    5  C   UNL     1     -13.988   2.757 -32.647  1.00  0.00     0.142 A 
HETATM    6  N   UNL     1     -12.699   2.555 -33.034  1.00  0.00    -0.236 NA
HETATM    7  C   UNL     1     -12.465   1.411 -33.717  1.00  0.00     0.164 A 
HETATM    8  C   UNL     1     -13.446   0.476 -34.025  1.00  0.00     0.059 A 
ENDROOT
BRANCH   7   9
HETATM    9  O   UNL     1     -11.201   1.098 -34.159  1.00  0.00    -0.329 OA
BRANCH   9  10
HETATM   10  C   UNL     1     -10.066   1.397 -33.353  1.00  0.00     0.130 C 
HETATM   11  C   UNL     1      -9.090   2.393 -33.994  1.00  0.00     0.034 C 
HETATM   12  C   UNL     1      -7.955   2.753 -33.038  1.00  0.00     0.035 C 
HETATM   13  C   UNL     1      -7.246   1.527 -32.452  1.00  0.00     0.186 C 
HETATM   14  C   UNL     1      -8.242   0.549 -31.820  1.00  0.00     0.035 C 
HETATM   15  C   UNL     1      -9.381   0.158 -32.761  1.00  0.00     0.034 C 
BRANCH  13  16
HETATM   16  N   UNL     1      -6.461   0.803 -33.508  1.00  0.00    -0.067 N 
HETATM   17  H   UNL     1      -7.103   0.194 -34.034  1.00  0.00     0.278 HD
HETATM   18  H   UNL     1      -6.084   1.456 -34.212  1.00  0.00     0.278 HD
BRANCH  16  19
HETATM   19  C   UNL     1      -5.343  -0.062 -33.011  1.00  0.00     0.280 C 
BRANCH  19  20
HETATM   20  C   UNL     1      -5.307  -1.370 -33.709  1.00  0.00     0.027 A 
HETATM   21  S   UNL     1      -6.683  -1.988 -34.530  1.00  0.00    -0.084 SA
HETATM   22  C   UNL     1      -5.778  -3.380 -34.969  1.00  0.00     0.166 A 
HETATM   23  N   UNL     1      -4.539  -3.412 -34.532  1.00  0.00    -0.265 NA
HETATM   24  C   UNL     1      -4.259  -2.260 -33.831  1.00  0.00     0.133 A 
ENDBRANCH  19  20
ENDBRANCH  16  19
ENDBRANCH  13  16
ENDBRANCH   9  10
ENDBRANCH   7   9
TORSDOF 5
ENDMDL
MODEL 5
REMARK VINA RESULT:      -7.0      3.553      7.066
REMARK  5 active torsions:
REMARK  status: ('A' for Active; 'I' for Inactive)
REMARK    1  A    between atoms: C_7  and  O_8 
REMARK    2  A    between atoms: O_8  and  C_9 
REMARK    3  A    between atoms: C_12  and  N_13 
REMARK    4  A    between atoms: N_13  and  C_16 
REMARK    5  A    between atoms: C_16  and  C_17 
ROOT
HETATM    1  C   UNL     1      -6.291  -1.575 -34.632  1.00  0.00     0.028 A 
HETATM    2  C   UNL     1      -5.629  -2.793 -34.513  1.00  0.00     0.062 A 
HETATM    3  C   UNL     1      -6.171  -3.995 -35.060  1.00  0.00     0.101 C 
HETATM    4  N   UNL     1      -6.590  -4.984 -35.497  1.00  0.00    -0.191 NA
HETATM    5  C   UNL     1      -4.410  -2.811 -33.843  1.00  0.00     0.142 A 
HETATM    6  N   UNL     1      -3.816  -1.717 -33.293  1.00  0.00    -0.236 NA
HETATM    7  C   UNL     1      -4.491  -0.552 -33.429  1.00  0.00     0.164 A 
HETATM    8  C   UNL     1      -5.712  -0.435 -34.080  1.00  0.00     0.059 A 
ENDROOT
BRANCH   7   9
HETATM    9  O   UNL     1      -3.988   0.619 -32.915  1.00  0.00    -0.329 OA
BRANCH   9  10
HETATM   10  C   UNL     1      -4.622   1.245 -31.804  1.00  0.00     0.130 C 
HETATM   11  C   UNL     1      -5.364   0.270 -30.878  1.00  0.00     0.034 C 
HETATM   12  C   UNL     1      -5.927   0.987 -29.653  1.00  0.00     0.035 C 
HETATM   13  C   UNL     1      -6.768   2.218 -30.006  1.00  0.00     0.186 C 
HETATM   14  C   UNL     1      -6.006   3.174 -30.931  1.00  0.00     0.035 C 
HETATM   15  C   UNL     1      -5.444   2.487 -32.175  1.00  0.00     0.034 C 
BRANCH  13  16
HETATM   16  N   UNL     1      -8.053   1.820 -30.675  1.00  0.00    -0.067 N 
HETATM   17  H   UNL     1      -7.836   1.163 -31.437  1.00  0.00     0.278 HD
HETATM   18  H   UNL     1      -8.662   1.288 -30.034  1.00  0.00     0.278 HD
BRANCH  16  19
HETATM   19  C   UNL     1      -8.850   2.940 -31.272  1.00  0.00     0.280 C 
BRANCH  19  20
HETATM   20  C   UNL     1      -9.886   2.438 -32.208  1.00  0.00     0.027 A 
HETATM   21  S   UNL     1      -9.751   0.898 -32.956  1.00  0.00    -0.084 SA
HETATM   22  C   UNL     1     -11.242   1.175 -33.761  1.00  0.00     0.166 A 
HETATM   23  N   UNL     1     -11.812   2.334 -33.518  1.00  0.00    -0.265 NA
HETATM   24  C   UNL     1     -11.053   3.050 -32.618  1.00  0.00     0.133 A 
ENDBRANCH  19  20
ENDBRANCH  16  19
ENDBRANCH  13  16
ENDBRANCH   9  10
ENDBRANCH   7   9
TORSDOF 5
ENDMDL
MODEL 6
REMARK VINA RESULT:      -6.9      3.212      4.069
REMARK  5 active torsions:
REMARK  status: ('A' for Active; 'I' for Inactive)
REMARK    1  A    between atoms: C_7  and  O_8 
REMARK    2  A    between atoms: O_8  and  C_9 
REMARK    3  A    between atoms: C_12  and  N_13 
REMARK    4  A    between atoms: N_13  and  C_16 
REMARK    5  A    between atoms: C_16  and  C_17 
ROOT
HETATM    1  C   UNL     1      -1.095   7.148 -30.412  1.00  0.00     0.028 A 
HETATM    2  C   UNL     1       0.020   6.743 -29.684  1.00  0.00     0.062 A 
HETATM    3  C   UNL     1       0.694   7.631 -28.793  1.00  0.00     0.101 C 
HETATM    4  N   UNL     1       1.257   8.334 -28.063  1.00  0.00    -0.191 NA
HETATM    5  C   UNL     1       0.465   5.435 -29.845  1.00  0.00     0.142 A 
HETATM    6  N   UNL     1      -0.114   4.518 -30.667  1.00  0.00    -0.236 NA
HETATM    7  C   UNL     1      -1.194   4.951 -31.358  1.00  0.00     0.164 A 
HETATM    8  C   UNL     1      -1.712   6.236 -31.264  1.00  0.00     0.059 A 
ENDROOT
BRANCH   7   9
HETATM    9  O   UNL     1      -1.863   4.113 -32.219  1.00  0.00    -0.329 OA
BRANCH   9  10
HETATM   10  C   UNL     1      -3.232   3.793 -31.990  1.00  0.00     0.130 C 
HETATM   11  C   UNL     1      -3.445   2.508 -31.178  1.00  0.00     0.034 C 
HETATM   12  C   UNL     1      -4.925   2.282 -30.875  1.00  0.00     0.035 C 
HETATM   13  C   UNL     1      -5.814   2.344 -32.121  1.00  0.00     0.186 C 
HETATM   14  C   UNL     1      -5.580   3.636 -32.914  1.00  0.00     0.035 C 
HETATM   15  C   UNL     1      -4.109   3.880 -33.246  1.00  0.00     0.034 C 
BRANCH  13  16
HETATM   16  N   UNL     1      -5.561   1.171 -33.023  1.00  0.00    -0.067 N 
HETATM   17  H   UNL     1      -6.188   1.242 -33.837  1.00  0.00     0.278 HD
HETATM   18  H   UNL     1      -4.610   1.201 -33.422  1.00  0.00     0.278 HD
BRANCH  16  19
HETATM   19  C   UNL     1      -5.782  -0.180 -32.413  1.00  0.00     0.280 C 
BRANCH  19  20
HETATM   20  C   UNL     1      -5.487  -1.271 -33.374  1.00  0.00     0.027 A 
HETATM   21  S   UNL     1      -6.676  -1.849 -34.470  1.00  0.00    -0.084 SA
HETATM   22  C   UNL     1      -5.535  -2.971 -35.093  1.00  0.00     0.166 A 
HETATM   23  N   UNL     1      -4.349  -2.947 -34.528  1.00  0.00    -0.265 NA
HETATM   24  C   UNL     1      -4.309  -1.967 -33.561  1.00  0.00     0.133 A 
ENDBRANCH  19  20
ENDBRANCH  16  19
ENDBRANCH  13  16
ENDBRANCH   9  10
ENDBRANCH   7   9
TORSDOF 5
ENDMDL
MODEL 7
REMARK VINA RESULT:      -6.8      4.011      8.786
REMARK  5 active torsions:
REMARK  status: ('A' for Active; 'I' for Inactive)
REMARK    1  A    between atoms: C_7  and  O_8 
REMARK    2  A    between atoms: O_8  and  C_9 
REMARK    3  A    between atoms: C_12  and  N_13 
REMARK    4  A    between atoms: N_13  and  C_16 
REMARK    5  A    between atoms: C_16  and  C_17 
ROOT
HETATM    1  C   UNL     1      -6.532  -1.754 -34.631  1.00  0.00     0.028 A 
HETATM    2  C   UNL     1      -5.653  -2.832 -34.578  1.00  0.00     0.062 A 
HETATM    3  C   UNL     1      -5.996  -4.104 -35.127  1.00  0.00     0.101 C 
HETATM    4  N   UNL     1      -6.251  -5.146 -35.566  1.00  0.00    -0.191 NA
HETATM    5  C   UNL     1      -4.417  -2.636 -33.972  1.00  0.00     0.142 A 
HETATM    6  N   UNL     1      -4.002  -1.461 -33.425  1.00  0.00    -0.236 NA
HETATM    7  C   UNL     1      -4.885  -0.438 -33.497  1.00  0.00     0.164 A 
HETATM    8  C   UNL     1      -6.142  -0.536 -34.081  1.00  0.00     0.059 A 
ENDROOT
BRANCH   7   9
HETATM    9  O   UNL     1      -4.577   0.798 -32.979  1.00  0.00    -0.329 OA
BRANCH   9  10
HETATM   10  C   UNL     1      -5.502   1.471 -32.130  1.00  0.00     0.130 C 
HETATM   11  C   UNL     1      -5.599   2.981 -32.387  1.00  0.00     0.034 C 
HETATM   12  C   UNL     1      -6.683   3.622 -31.523  1.00  0.00     0.035 C 
HETATM   13  C   UNL     1      -6.547   3.286 -30.034  1.00  0.00     0.186 C 
HETATM   14  C   UNL     1      -6.450   1.773 -29.805  1.00  0.00     0.035 C 
HETATM   15  C   UNL     1      -5.362   1.106 -30.646  1.00  0.00     0.034 C 
BRANCH  13  16
HETATM   16  N   UNL     1      -5.334   3.943 -29.441  1.00  0.00    -0.067 N 
HETATM   17  H   UNL     1      -5.414   3.915 -28.416  1.00  0.00     0.278 HD
HETATM   18  H   UNL     1      -4.476   3.409 -29.653  1.00  0.00     0.278 HD
BRANCH  16  19
HETATM   19  C   UNL     1      -5.113   5.374 -29.827  1.00  0.00     0.280 C 
BRANCH  19  20
HETATM   20  C   UNL     1      -5.050   6.260 -28.639  1.00  0.00     0.027 A 
HETATM   21  S   UNL     1      -4.595   7.911 -28.772  1.00  0.00    -0.084 SA
HETATM   22  C   UNL     1      -4.792   8.087 -27.075  1.00  0.00     0.166 A 
HETATM   23  N   UNL     1      -5.156   7.001 -26.431  1.00  0.00    -0.265 NA
HETATM   24  C   UNL     1      -5.323   5.961 -27.319  1.00  0.00     0.133 A 
ENDBRANCH  19  20
ENDBRANCH  16  19
ENDBRANCH  13  16
ENDBRANCH   9  10
ENDBRANCH   7   9
TORSDOF 5
ENDMDL
MODEL 8
REMARK VINA RESULT:      -6.7      4.490      7.697
REMARK  5 active torsions:
REMARK  status: ('A' for Active; 'I' for Inactive)
REMARK    1  A    between atoms: C_7  and  O_8 
REMARK    2  A    between atoms: O_8  and  C_9 
REMARK    3  A    between atoms: C_12  and  N_13 
REMARK    4  A    between atoms: N_13  and  C_16 
REMARK    5  A    between atoms: C_16  and  C_17 
ROOT
HETATM    1  C   UNL     1      -4.248  -1.571 -33.104  1.00  0.00     0.028 A 
HETATM    2  C   UNL     1      -4.567  -2.666 -33.901  1.00  0.00     0.062 A 
HETATM    3  C   UNL     1      -3.884  -3.913 -33.768  1.00  0.00     0.101 C 
HETATM    4  N   UNL     1      -3.344  -4.935 -33.676  1.00  0.00    -0.191 NA
HETATM    5  C   UNL     1      -5.580  -2.516 -34.842  1.00  0.00     0.142 A 
HETATM    6  N   UNL     1      -6.287  -1.370 -35.039  1.00  0.00    -0.236 NA
HETATM    7  C   UNL     1      -5.948  -0.329 -34.245  1.00  0.00     0.164 A 
HETATM    8  C   UNL     1      -4.951  -0.382 -33.279  1.00  0.00     0.059 A 
ENDROOT
BRANCH   7   9
HETATM    9  O   UNL     1      -6.593   0.880 -34.352  1.00  0.00    -0.329 OA
BRANCH   9  10
HETATM   10  C   UNL     1      -7.707   1.175 -33.515  1.00  0.00     0.130 C 
HETATM   11  C   UNL     1      -9.019   0.517 -33.968  1.00  0.00     0.034 C 
HETATM   12  C   UNL     1     -10.146   0.782 -32.971  1.00  0.00     0.035 C 
HETATM   13  C   UNL     1     -10.318   2.267 -32.634  1.00  0.00     0.186 C 
HETATM   14  C   UNL     1      -8.994   2.899 -32.186  1.00  0.00     0.035 C 
HETATM   15  C   UNL     1      -7.851   2.664 -33.173  1.00  0.00     0.034 C 
BRANCH  13  16
HETATM   16  N   UNL     1     -10.844   3.031 -33.814  1.00  0.00    -0.067 N 
HETATM   17  H   UNL     1     -10.140   3.728 -34.094  1.00  0.00     0.278 HD
HETATM   18  H   UNL     1     -10.951   2.421 -34.640  1.00  0.00     0.278 HD
BRANCH  16  19
HETATM   19  C   UNL     1     -12.130   3.767 -33.594  1.00  0.00     0.280 C 
BRANCH  19  20
HETATM   20  C   UNL     1     -13.273   2.837 -33.424  1.00  0.00     0.027 A 
HETATM   21  S   UNL     1     -13.590   1.586 -34.557  1.00  0.00    -0.084 SA
HETATM   22  C   UNL     1     -14.945   1.101 -33.620  1.00  0.00     0.166 A 
HETATM   23  N   UNL     1     -15.174   1.816 -32.542  1.00  0.00    -0.265 NA
HETATM   24  C   UNL     1     -14.214   2.795 -32.414  1.00  0.00     0.133 A 
ENDBRANCH  19  20
ENDBRANCH  16  19
ENDBRANCH  13  16
ENDBRANCH   9  10
ENDBRANCH   7   9
TORSDOF 5
ENDMDL
MODEL 9
REMARK VINA RESULT:      -6.6      3.198      8.615
REMARK  5 active torsions:
REMARK  status: ('A' for Active; 'I' for Inactive)
REMARK    1  A    between atoms: C_7  and  O_8 
REMARK    2  A    between atoms: O_8  and  C_9 
REMARK    3  A    between atoms: C_12  and  N_13 
REMARK    4  A    between atoms: N_13  and  C_16 
REMARK    5  A    between atoms: C_16  and  C_17 
ROOT
HETATM    1  C   UNL     1      -7.125  -1.645 -33.900  1.00  0.00     0.028 A 
HETATM    2  C   UNL     1      -6.040  -2.460 -34.210  1.00  0.00     0.062 A 
HETATM    3  C   UNL     1      -6.203  -3.673 -34.945  1.00  0.00     0.101 C 
HETATM    4  N   UNL     1      -6.310  -4.662 -35.541  1.00  0.00    -0.191 NA
HETATM    5  C   UNL     1      -4.779  -2.058 -33.785  1.00  0.00     0.142 A 
HETATM    6  N   UNL     1      -4.527  -0.919 -33.084  1.00  0.00    -0.236 NA
HETATM    7  C   UNL     1      -5.607  -0.154 -32.801  1.00  0.00     0.164 A 
HETATM    8  C   UNL     1      -6.905  -0.472 -33.182  1.00  0.00     0.059 A 
ENDROOT
BRANCH   7   9
HETATM    9  O   UNL     1      -5.476   1.020 -32.099  1.00  0.00    -0.329 OA
BRANCH   9  10
HETATM   10  C   UNL     1      -4.873   2.157 -32.709  1.00  0.00     0.130 C 
HETATM   11  C   UNL     1      -3.441   2.436 -32.230  1.00  0.00     0.034 C 
HETATM   12  C   UNL     1      -2.814   3.597 -32.999  1.00  0.00     0.035 C 
HETATM   13  C   UNL     1      -3.687   4.856 -33.010  1.00  0.00     0.186 C 
HETATM   14  C   UNL     1      -5.111   4.550 -33.491  1.00  0.00     0.035 C 
HETATM   15  C   UNL     1      -5.770   3.402 -32.727  1.00  0.00     0.034 C 
BRANCH  13  16
HETATM   16  N   UNL     1      -3.762   5.474 -31.643  1.00  0.00    -0.067 N 
HETATM   17  H   UNL     1      -4.741   5.722 -31.448  1.00  0.00     0.278 HD
HETATM   18  H   UNL     1      -3.512   4.793 -30.909  1.00  0.00     0.278 HD
BRANCH  16  19
HETATM   19  C   UNL     1      -2.944   6.714 -31.443  1.00  0.00     0.280 C 
BRANCH  19  20
HETATM   20  C   UNL     1      -1.874   6.510 -30.436  1.00  0.00     0.027 A 
HETATM   21  S   UNL     1      -0.500   5.535 -30.770  1.00  0.00    -0.084 SA
HETATM   22  C   UNL     1       0.099   5.865 -29.195  1.00  0.00     0.166 A 
HETATM   23  N   UNL     1      -0.662   6.633 -28.448  1.00  0.00    -0.265 NA
HETATM   24  C   UNL     1      -1.779   7.020 -29.157  1.00  0.00     0.133 A 
ENDBRANCH  19  20
ENDBRANCH  16  19
ENDBRANCH  13  16
ENDBRANCH   9  10
ENDBRANCH   7   9
TORSDOF 5
ENDMDL
MODEL 10
REMARK VINA RESULT:      -6.6      3.865      5.955
REMARK  5 active torsions:
REMARK  status: ('A' for Active; 'I' for Inactive)
REMARK    1  A    between atoms: C_7  and  O_8 
REMARK    2  A    between atoms: O_8  and  C_9 
REMARK    3  A    between atoms: C_12  and  N_13 
REMARK    4  A    between atoms: N_13  and  C_16 
REMARK    5  A    between atoms: C_16  and  C_17 
ROOT
HETATM    1  C   UNL     1       0.125   7.350 -29.711  1.00  0.00     0.028 A 
HETATM    2  C   UNL     1       0.646   6.549 -28.699  1.00  0.00     0.062 A 
HETATM    3  C   UNL     1       1.090   7.103 -27.461  1.00  0.00     0.101 C 
HETATM    4  N   UNL     1       1.455   7.529 -26.446  1.00  0.00    -0.191 NA
HETATM    5  C   UNL     1       0.723   5.178 -28.926  1.00  0.00     0.142 A 
HETATM    6  N   UNL     1       0.322   4.562 -30.071  1.00  0.00    -0.236 NA
HETATM    7  C   UNL     1      -0.178   5.375 -31.030  1.00  0.00     0.164 A 
HETATM    8  C   UNL     1      -0.294   6.752 -30.897  1.00  0.00     0.059 A 
ENDROOT
BRANCH   7   9
HETATM    9  O   UNL     1      -0.615   4.865 -32.229  1.00  0.00    -0.329 OA
BRANCH   9  10
HETATM   10  C   UNL     1      -1.834   5.327 -32.803  1.00  0.00     0.130 C 
HETATM   11  C   UNL     1      -3.049   5.198 -31.873  1.00  0.00     0.034 C 
HETATM   12  C   UNL     1      -4.299   5.809 -32.504  1.00  0.00     0.035 C 
HETATM   13  C   UNL     1      -4.581   5.285 -33.916  1.00  0.00     0.186 C 
HETATM   14  C   UNL     1      -3.352   5.424 -34.823  1.00  0.00     0.035 C 
HETATM   15  C   UNL     1      -2.089   4.806 -34.224  1.00  0.00     0.034 C 
BRANCH  13  16
HETATM   16  N   UNL     1      -4.997   3.843 -33.884  1.00  0.00    -0.067 N 
HETATM   17  H   UNL     1      -5.223   3.545 -34.843  1.00  0.00     0.278 HD
HETATM   18  H   UNL     1      -4.216   3.232 -33.596  1.00  0.00     0.278 HD
BRANCH  16  19
HETATM   19  C   UNL     1      -6.189   3.528 -33.032  1.00  0.00     0.280 C 
BRANCH  19  20
HETATM   20  C   UNL     1      -6.264   2.083 -32.706  1.00  0.00     0.027 A 
HETATM   21  S   UNL     1      -6.598   1.538 -31.111  1.00  0.00    -0.084 SA
HETATM   22  C   UNL     1      -6.494  -0.086 -31.660  1.00  0.00     0.166 A 
HETATM   23  N   UNL     1      -6.215  -0.237 -32.936  1.00  0.00    -0.265 NA
HETATM   24  C   UNL     1      -6.103   0.996 -33.541  1.00  0.00     0.133 A 
ENDBRANCH  19  20
ENDBRANCH  16  19
ENDBRANCH  13  16
ENDBRANCH   9  10
ENDBRANCH   7   9
TORSDOF 5
ENDMDL
