MODEL 1
REMARK VINA RESULT:      -8.8      0.000      0.000
REMARK  8 active torsions:
REMARK  status: ('A' for Active; 'I' for Inactive)
REMARK    1  A    between atoms: C_2  and  C_3 
REMARK    2  A    between atoms: C_3  and  C_4 
REMARK    3  A    between atoms: C_7  and  C_8 
REMARK    4  A    between atoms: C_8  and  N_9 
REMARK    5  A    between atoms: C_8  and  C_26 
REMARK    6  A    between atoms: N_9  and  C_12 
REMARK    7  A    between atoms: C_12  and  C_13 
REMARK       I    between atoms: C_13  and  N_14 
REMARK    8  A    between atoms: N_14  and  C_15 
ROOT
HETATM    1  N   UNL     1      -6.507   3.755 -31.698  1.00  0.00    -0.054 N 
HETATM    2  H   UNL     1      -6.504   2.899 -31.127  1.00  0.00     0.278 HD
HETATM    3  H   UNL     1      -5.778   4.339 -31.265  1.00  0.00     0.278 HD
ENDROOT
BRANCH   1   4
HETATM    4  C   UNL     1      -6.098   3.397 -33.091  1.00  0.00     0.259 C 
BRANCH   4   5
HETATM    5  C   UNL     1      -6.301   1.911 -33.348  1.00  0.00    -0.023 A 
HETATM    6  C   UNL     1      -6.716   1.485 -34.624  1.00  0.00     0.010 A 
HETATM    7  C   UNL     1      -6.961   0.136 -34.885  1.00  0.00     0.007 A 
HETATM    8  C   UNL     1      -6.809  -0.823 -33.879  1.00  0.00    -0.058 A 
HETATM    9  C   UNL     1      -6.393  -0.411 -32.609  1.00  0.00     0.007 A 
HETATM   10  C   UNL     1      -6.148   0.938 -32.345  1.00  0.00     0.010 A 
BRANCH   8  11
HETATM   11  C   UNL     1      -7.052  -2.284 -34.171  1.00  0.00     0.038 C 
BRANCH  11  12
HETATM   12  C   UNL     1      -5.856  -2.926 -34.876  1.00  0.00     0.000 C 
HETATM   13  C   UNL     1      -6.199  -4.312 -35.400  1.00  0.00     0.005 C 
ENDBRANCH  11  12
ENDBRANCH   8  11
ENDBRANCH   4   5
BRANCH   4  14
HETATM   14  C   UNL     1      -4.755   3.977 -33.498  1.00  0.00     0.017 A 
HETATM   15  S   UNL     1      -3.351   3.597 -32.563  1.00  0.00    -0.104 SA
HETATM   16  C   UNL     1      -2.344   4.569 -33.537  1.00  0.00     0.050 A 
HETATM   17  C   UNL     1      -3.049   5.207 -34.531  1.00  0.00     0.008 A 
HETATM   18  C   UNL     1      -4.438   4.886 -34.494  1.00  0.00     0.017 A 
ENDBRANCH   4  14
ENDBRANCH   1   4
BRANCH   1  19
HETATM   19  C   UNL     1      -7.826   4.443 -31.473  1.00  0.00     0.336 C 
BRANCH  19  20
HETATM   20  C   UNL     1      -8.950   3.405 -31.487  1.00  0.00     0.248 C 
HETATM   21  N   UNL     1      -9.488   3.163 -32.735  1.00  0.00    -0.326 N 
HETATM   22  H   UNL     1      -9.065   3.612 -33.541  1.00  0.00     0.169 HD
HETATM   23  O   UNL     1      -9.269   2.887 -30.418  1.00  0.00    -0.271 OA
BRANCH  21  24
HETATM   24  C   UNL     1     -10.581   2.316 -33.038  1.00  0.00     0.037 A 
HETATM   25  C   UNL     1     -11.857   2.787 -33.374  1.00  0.00     0.061 A 
HETATM   26  C   UNL     1     -12.817   1.844 -33.668  1.00  0.00     0.065 A 
HETATM   27  C   UNL     1     -12.558   0.476 -33.636  1.00  0.00     0.063 A 
HETATM   28  N   UNL     1     -14.145   2.018 -34.042  1.00  0.00    -0.306 N 
HETATM   29  N   UNL     1     -13.724  -0.191 -33.988  1.00  0.00    -0.307 N 
HETATM   30  C   UNL     1     -11.323  -0.021 -33.308  1.00  0.00     0.034 A 
HETATM   31  C   UNL     1     -14.725   0.757 -34.246  1.00  0.00     0.325 A 
HETATM   32  H   UNL     1     -13.869  -1.185 -34.062  1.00  0.00     0.170 HD
HETATM   33  O   UNL     1     -15.871   0.532 -34.584  1.00  0.00    -0.247 OA
HETATM   34  C   UNL     1     -10.326   0.918 -33.008  1.00  0.00     0.032 A 
HETATM   35  H   UNL     1     -14.646   2.882 -34.163  1.00  0.00     0.170 HD
ENDBRANCH  21  24
ENDBRANCH  19  20
ENDBRANCH   1  19
TORSDOF 8
ENDMDL
MODEL 2
REMARK VINA RESULT:      -8.6      3.031      7.546
REMARK  8 active torsions:
REMARK  status: ('A' for Active; 'I' for Inactive)
REMARK    1  A    between atoms: C_2  and  C_3 
REMARK    2  A    between atoms: C_3  and  C_4 
REMARK    3  A    between atoms: C_7  and  C_8 
REMARK    4  A    between atoms: C_8  and  N_9 
REMARK    5  A    between atoms: C_8  and  C_26 
REMARK    6  A    between atoms: N_9  and  C_12 
REMARK    7  A    between atoms: C_12  and  C_13 
REMARK       I    between atoms: C_13  and  N_14 
REMARK    8  A    between atoms: N_14  and  C_15 
ROOT
HETATM    1  N   UNL     1     -10.228   2.995 -34.783  1.00  0.00    -0.054 N 
HETATM    2  H   UNL     1      -9.412   2.799 -35.379  1.00  0.00     0.278 HD
HETATM    3  H   UNL     1     -11.014   3.018 -35.446  1.00  0.00     0.278 HD
ENDROOT
BRANCH   1   4
HETATM    4  C   UNL     1     -10.408   1.853 -33.835  1.00  0.00     0.259 C 
BRANCH   4   5
HETATM    5  C   UNL     1      -9.208   0.918 -33.881  1.00  0.00    -0.023 A 
HETATM    6  C   UNL     1      -8.719   0.368 -32.681  1.00  0.00     0.010 A 
HETATM    7  C   UNL     1      -7.590  -0.453 -32.675  1.00  0.00     0.007 A 
HETATM    8  C   UNL     1      -6.913  -0.739 -33.864  1.00  0.00    -0.058 A 
HETATM    9  C   UNL     1      -7.392  -0.201 -35.063  1.00  0.00     0.007 A 
HETATM   10  C   UNL     1      -8.521   0.621 -35.071  1.00  0.00     0.010 A 
BRANCH   8  11
HETATM   11  C   UNL     1      -5.707  -1.647 -33.859  1.00  0.00     0.038 C 
BRANCH  11  12
HETATM   12  C   UNL     1      -5.756  -2.660 -35.004  1.00  0.00     0.000 C 
HETATM   13  C   UNL     1      -6.768  -3.761 -34.727  1.00  0.00     0.005 C 
ENDBRANCH  11  12
ENDBRANCH   8  11
ENDBRANCH   4   5
BRANCH   4  14
HETATM   14  C   UNL     1     -11.777   1.201 -33.923  1.00  0.00     0.017 A 
HETATM   15  S   UNL     1     -13.096   2.092 -34.598  1.00  0.00    -0.104 SA
HETATM   16  C   UNL     1     -14.195   0.816 -34.330  1.00  0.00     0.050 A 
HETATM   17  C   UNL     1     -13.599  -0.255 -33.705  1.00  0.00     0.008 A 
HETATM   18  C   UNL     1     -12.216  -0.024 -33.449  1.00  0.00     0.017 A 
ENDBRANCH   4  14
ENDBRANCH   1   4
BRANCH   1  19
HETATM   19  C   UNL     1     -10.061   4.386 -34.234  1.00  0.00     0.336 C 
BRANCH  19  20
HETATM   20  C   UNL     1      -8.740   4.476 -33.467  1.00  0.00     0.248 C 
HETATM   21  N   UNL     1      -7.629   4.110 -34.200  1.00  0.00    -0.326 N 
HETATM   22  H   UNL     1      -7.747   3.891 -35.183  1.00  0.00     0.169 HD
HETATM   23  O   UNL     1      -8.777   4.858 -32.298  1.00  0.00    -0.271 OA
BRANCH  21  24
HETATM   24  C   UNL     1      -6.296   4.022 -33.732  1.00  0.00     0.037 A 
HETATM   25  C   UNL     1      -5.341   5.030 -33.918  1.00  0.00     0.061 A 
HETATM   26  C   UNL     1      -4.089   4.815 -33.386  1.00  0.00     0.065 A 
HETATM   27  C   UNL     1      -3.759   3.654 -32.692  1.00  0.00     0.063 A 
HETATM   28  N   UNL     1      -2.966   5.635 -33.404  1.00  0.00    -0.306 N 
HETATM   29  N   UNL     1      -2.435   3.756 -32.286  1.00  0.00    -0.307 N 
HETATM   30  C   UNL     1      -4.665   2.644 -32.495  1.00  0.00     0.034 A 
HETATM   31  C   UNL     1      -1.925   4.988 -32.721  1.00  0.00     0.325 A 
HETATM   32  H   UNL     1      -1.896   3.086 -31.762  1.00  0.00     0.170 HD
HETATM   33  O   UNL     1      -0.801   5.416 -32.538  1.00  0.00    -0.247 OA
HETATM   34  C   UNL     1      -5.949   2.839 -33.023  1.00  0.00     0.032 A 
HETATM   35  H   UNL     1      -2.871   6.546 -33.820  1.00  0.00     0.170 HD
ENDBRANCH  21  24
ENDBRANCH  19  20
ENDBRANCH   1  19
TORSDOF 8
ENDMDL
MODEL 3
REMARK VINA RESULT:      -8.4      3.487      8.448
REMARK  8 active torsions:
REMARK  status: ('A' for Active; 'I' for Inactive)
REMARK    1  A    between atoms: C_2  and  C_3 
REMARK    2  A    between atoms: C_3  and  C_4 
REMARK    3  A    between atoms: C_7  and  C_8 
REMARK    4  A    between atoms: C_8  and  N_9 
REMARK    5  A    between atoms: C_8  and  C_26 
REMARK    6  A    between atoms: N_9  and  C_12 
REMARK    7  A    between atoms: C_12  and  C_13 
REMARK       I    between atoms: C_13  and  N_14 
REMARK    8  A    between atoms: N_14  and  C_15 
ROOT
HETATM    1  N   UNL     1      -7.156   2.521 -32.649  1.00  0.00    -0.054 N 
HETATM    2  H   UNL     1      -7.762   3.278 -32.302  1.00  0.00     0.278 HD
HETATM    3  H   UNL     1      -6.363   2.524 -31.993  1.00  0.00     0.278 HD
ENDROOT
BRANCH   1   4
HETATM    4  C   UNL     1      -7.898   1.229 -32.530  1.00  0.00     0.259 C 
BRANCH   4   5
HETATM    5  C   UNL     1      -7.103   0.090 -33.152  1.00  0.00    -0.023 A 
HETATM    6  C   UNL     1      -6.024  -0.464 -32.438  1.00  0.00     0.010 A 
HETATM    7  C   UNL     1      -5.239  -1.475 -32.995  1.00  0.00     0.007 A 
HETATM    8  C   UNL     1      -5.503  -1.953 -34.281  1.00  0.00    -0.058 A 
HETATM    9  C   UNL     1      -6.575  -1.413 -34.999  1.00  0.00     0.007 A 
HETATM   10  C   UNL     1      -7.362  -0.401 -34.444  1.00  0.00     0.010 A 
BRANCH   8  11
HETATM   11  C   UNL     1      -4.667  -3.064 -34.872  1.00  0.00     0.038 C 
BRANCH  11  12
HETATM   12  C   UNL     1      -5.259  -4.441 -34.567  1.00  0.00     0.000 C 
HETATM   13  C   UNL     1      -6.571  -4.656 -35.306  1.00  0.00     0.005 C 
ENDBRANCH  11  12
ENDBRANCH   8  11
ENDBRANCH   4   5
BRANCH   4  14
HETATM   14  C   UNL     1      -9.360   1.329 -32.929  1.00  0.00     0.017 A 
HETATM   15  S   UNL     1     -10.101   2.887 -33.041  1.00  0.00    -0.104 SA
HETATM   16  C   UNL     1     -11.616   2.222 -33.457  1.00  0.00     0.050 A 
HETATM   17  C   UNL     1     -11.587   0.847 -33.475  1.00  0.00     0.008 A 
HETATM   18  C   UNL     1     -10.298   0.334 -33.148  1.00  0.00     0.017 A 
ENDBRANCH   4  14
ENDBRANCH   1   4
BRANCH   1  19
HETATM   19  C   UNL     1      -6.630   2.946 -33.993  1.00  0.00     0.336 C 
BRANCH  19  20
HETATM   20  C   UNL     1      -5.539   4.002 -33.802  1.00  0.00     0.248 C 
HETATM   21  N   UNL     1      -4.453   3.573 -33.068  1.00  0.00    -0.326 N 
HETATM   22  H   UNL     1      -4.412   2.600 -32.783  1.00  0.00     0.169 HD
HETATM   23  O   UNL     1      -5.715   5.110 -34.306  1.00  0.00    -0.271 OA
BRANCH  21  24
HETATM   24  C   UNL     1      -3.337   4.349 -32.671  1.00  0.00     0.037 A 
HETATM   25  C   UNL     1      -3.145   4.823 -31.367  1.00  0.00     0.061 A 
HETATM   26  C   UNL     1      -1.998   5.545 -31.123  1.00  0.00     0.065 A 
HETATM   27  C   UNL     1      -1.056   5.812 -32.113  1.00  0.00     0.063 A 
HETATM   28  N   UNL     1      -1.547   6.118 -29.940  1.00  0.00    -0.306 N 
HETATM   29  N   UNL     1      -0.027   6.549 -31.542  1.00  0.00    -0.307 N 
HETATM   30  C   UNL     1      -1.212   5.369 -33.401  1.00  0.00     0.034 A 
HETATM   31  C   UNL     1      -0.317   6.748 -30.183  1.00  0.00     0.325 A 
HETATM   32  H   UNL     1       0.806   6.896 -31.988  1.00  0.00     0.170 HD
HETATM   33  O   UNL     1       0.366   7.346 -29.373  1.00  0.00    -0.247 OA
HETATM   34  C   UNL     1      -2.369   4.626 -33.676  1.00  0.00     0.032 A 
HETATM   35  H   UNL     1      -1.991   6.105 -29.037  1.00  0.00     0.170 HD
ENDBRANCH  21  24
ENDBRANCH  19  20
ENDBRANCH   1  19
TORSDOF 8
ENDMDL
MODEL 4
REMARK VINA RESULT:      -8.3      3.344      7.189
REMARK  8 active torsions:
REMARK  status: ('A' for Active; 'I' for Inactive)
REMARK    1  A    between atoms: C_2  and  C_3 
REMARK    2  A    between atoms: C_3  and  C_4 
REMARK    3  A    between atoms: C_7  and  C_8 
REMARK    4  A    between atoms: C_8  and  N_9 
REMARK    5  A    between atoms: C_8  and  C_26 
REMARK    6  A    between atoms: N_9  and  C_12 
REMARK    7  A    between atoms: C_12  and  C_13 
REMARK       I    between atoms: C_13  and  N_14 
REMARK    8  A    between atoms: N_14  and  C_15 
ROOT
HETATM    1  N   UNL     1      -9.074   1.507 -30.822  1.00  0.00    -0.054 N 
HETATM    2  H   UNL     1      -9.824   1.238 -30.172  1.00  0.00     0.278 HD
HETATM    3  H   UNL     1      -8.222   1.144 -30.375  1.00  0.00     0.278 HD
ENDROOT
BRANCH   1   4
HETATM    4  C   UNL     1      -9.297   0.800 -32.121  1.00  0.00     0.259 C 
BRANCH   4   5
HETATM    5  C   UNL     1      -8.032   0.080 -32.568  1.00  0.00    -0.023 A 
HETATM    6  C   UNL     1      -6.942  -0.007 -31.683  1.00  0.00     0.010 A 
HETATM    7  C   UNL     1      -5.747  -0.614 -32.073  1.00  0.00     0.007 A 
HETATM    8  C   UNL     1      -5.606  -1.142 -33.360  1.00  0.00    -0.058 A 
HETATM    9  C   UNL     1      -6.684  -1.064 -34.247  1.00  0.00     0.007 A 
HETATM   10  C   UNL     1      -7.880  -0.457 -33.859  1.00  0.00     0.010 A 
BRANCH   8  11
HETATM   11  C   UNL     1      -4.320  -1.820 -33.772  1.00  0.00     0.038 C 
BRANCH  11  12
HETATM   12  C   UNL     1      -4.586  -3.101 -34.564  1.00  0.00     0.000 C 
HETATM   13  C   UNL     1      -3.891  -4.297 -33.934  1.00  0.00     0.005 C 
ENDBRANCH  11  12
ENDBRANCH   8  11
ENDBRANCH   4   5
BRANCH   4  14
HETATM   14  C   UNL     1      -9.994   1.654 -33.165  1.00  0.00     0.017 A 
HETATM   15  S   UNL     1     -11.660   1.361 -33.522  1.00  0.00    -0.104 SA
HETATM   16  C   UNL     1     -11.700   2.581 -34.714  1.00  0.00     0.050 A 
HETATM   17  C   UNL     1     -10.473   3.180 -34.877  1.00  0.00     0.008 A 
HETATM   18  C   UNL     1      -9.487   2.632 -34.006  1.00  0.00     0.017 A 
ENDBRANCH   4  14
ENDBRANCH   1   4
BRANCH   1  19
HETATM   19  C   UNL     1      -8.984   3.009 -30.810  1.00  0.00     0.336 C 
BRANCH  19  20
HETATM   20  C   UNL     1      -7.513   3.431 -30.833  1.00  0.00     0.248 C 
HETATM   21  N   UNL     1      -6.984   3.586 -32.098  1.00  0.00    -0.326 N 
HETATM   22  H   UNL     1      -7.602   3.492 -32.897  1.00  0.00     0.169 HD
HETATM   23  O   UNL     1      -6.944   3.595 -29.755  1.00  0.00    -0.271 OA
BRANCH  21  24
HETATM   24  C   UNL     1      -5.641   3.893 -32.424  1.00  0.00     0.037 A 
HETATM   25  C   UNL     1      -5.233   5.129 -32.944  1.00  0.00     0.061 A 
HETATM   26  C   UNL     1      -3.888   5.292 -33.190  1.00  0.00     0.065 A 
HETATM   27  C   UNL     1      -2.954   4.288 -32.947  1.00  0.00     0.063 A 
HETATM   28  N   UNL     1      -3.205   6.398 -33.684  1.00  0.00    -0.306 N 
HETATM   29  N   UNL     1      -1.700   4.774 -33.292  1.00  0.00    -0.307 N 
HETATM   30  C   UNL     1      -3.317   3.066 -32.443  1.00  0.00     0.034 A 
HETATM   31  C   UNL     1      -1.838   6.092 -33.753  1.00  0.00     0.325 A 
HETATM   32  H   UNL     1      -0.814   4.298 -33.232  1.00  0.00     0.170 HD
HETATM   33  O   UNL     1      -0.948   6.827 -34.135  1.00  0.00    -0.247 OA
HETATM   34  C   UNL     1      -4.680   2.874 -32.179  1.00  0.00     0.032 A 
HETATM   35  H   UNL     1      -3.586   7.290 -33.955  1.00  0.00     0.170 HD
ENDBRANCH  21  24
ENDBRANCH  19  20
ENDBRANCH   1  19
TORSDOF 8
ENDMDL
MODEL 5
REMARK VINA RESULT:      -8.3      1.848      2.486
REMARK  8 active torsions:
REMARK  status: ('A' for Active; 'I' for Inactive)
REMARK    1  A    between atoms: C_2  and  C_3 
REMARK    2  A    between atoms: C_3  and  C_4 
REMARK    3  A    between atoms: C_7  and  C_8 
REMARK    4  A    between atoms: C_8  and  N_9 
REMARK    5  A    between atoms: C_8  and  C_26 
REMARK    6  A    between atoms: N_9  and  C_12 
REMARK    7  A    between atoms: C_12  and  C_13 
REMARK       I    between atoms: C_13  and  N_14 
REMARK    8  A    between atoms: N_14  and  C_15 
ROOT
HETATM    1  N   UNL     1      -4.480   2.912 -30.746  1.00  0.00    -0.054 N 
HETATM    2  H   UNL     1      -3.972   2.056 -30.485  1.00  0.00     0.278 HD
HETATM    3  H   UNL     1      -3.827   3.668 -30.500  1.00  0.00     0.278 HD
ENDROOT
BRANCH   1   4
HETATM    4  C   UNL     1      -4.697   2.900 -32.226  1.00  0.00     0.259 C 
BRANCH   4   5
HETATM    5  C   UNL     1      -4.726   1.475 -32.757  1.00  0.00    -0.023 A 
HETATM    6  C   UNL     1      -5.833   1.046 -33.513  1.00  0.00     0.010 A 
HETATM    7  C   UNL     1      -5.921  -0.269 -33.975  1.00  0.00     0.007 A 
HETATM    8  C   UNL     1      -4.912  -1.192 -33.687  1.00  0.00    -0.058 A 
HETATM    9  C   UNL     1      -3.805  -0.776 -32.939  1.00  0.00     0.007 A 
HETATM   10  C   UNL     1      -3.715   0.539 -32.476  1.00  0.00     0.010 A 
BRANCH   8  11
HETATM   11  C   UNL     1      -4.997  -2.607 -34.208  1.00  0.00     0.038 C 
BRANCH  11  12
HETATM   12  C   UNL     1      -6.406  -2.944 -34.698  1.00  0.00     0.000 C 
HETATM   13  C   UNL     1      -6.520  -4.407 -35.097  1.00  0.00     0.005 C 
ENDBRANCH  11  12
ENDBRANCH   8  11
ENDBRANCH   4   5
BRANCH   4  14
HETATM   14  C   UNL     1      -3.815   3.884 -32.976  1.00  0.00     0.017 A 
HETATM   15  S   UNL     1      -4.522   4.910 -34.174  1.00  0.00    -0.104 SA
HETATM   16  C   UNL     1      -3.022   5.625 -34.558  1.00  0.00     0.050 A 
HETATM   17  C   UNL     1      -1.991   5.079 -33.831  1.00  0.00     0.008 A 
HETATM   18  C   UNL     1      -2.442   4.063 -32.939  1.00  0.00     0.017 A 
ENDBRANCH   4  14
ENDBRANCH   1   4
BRANCH   1  19
HETATM   19  C   UNL     1      -5.669   3.028 -29.831  1.00  0.00     0.336 C 
BRANCH  19  20
HETATM   20  C   UNL     1      -6.880   3.516 -30.628  1.00  0.00     0.248 C 
HETATM   21  N   UNL     1      -7.820   2.541 -30.890  1.00  0.00    -0.326 N 
HETATM   22  H   UNL     1      -7.691   1.620 -30.484  1.00  0.00     0.169 HD
HETATM   23  O   UNL     1      -6.914   4.701 -30.957  1.00  0.00    -0.271 OA
BRANCH  21  24
HETATM   24  C   UNL     1      -8.996   2.683 -31.665  1.00  0.00     0.037 A 
HETATM   25  C   UNL     1      -9.184   2.068 -32.911  1.00  0.00     0.061 A 
HETATM   26  C   UNL     1     -10.392   2.278 -33.538  1.00  0.00     0.065 A 
HETATM   27  C   UNL     1     -11.397   3.066 -32.985  1.00  0.00     0.063 A 
HETATM   28  N   UNL     1     -10.854   1.790 -34.756  1.00  0.00    -0.306 N 
HETATM   29  N   UNL     1     -12.476   3.066 -33.859  1.00  0.00    -0.307 N 
HETATM   30  C   UNL     1     -11.248   3.687 -31.771  1.00  0.00     0.034 A 
HETATM   31  C   UNL     1     -12.154   2.272 -34.971  1.00  0.00     0.325 A 
HETATM   32  H   UNL     1     -13.360   3.536 -33.752  1.00  0.00     0.170 HD
HETATM   33  O   UNL     1     -12.864   2.042 -35.931  1.00  0.00    -0.247 OA
HETATM   34  C   UNL     1     -10.029   3.486 -31.108  1.00  0.00     0.032 A 
HETATM   35  H   UNL     1     -10.374   1.187 -35.403  1.00  0.00     0.170 HD
ENDBRANCH  21  24
ENDBRANCH  19  20
ENDBRANCH   1  19
TORSDOF 8
ENDMDL
MODEL 6
REMARK VINA RESULT:      -8.2      2.149      2.747
REMARK  8 active torsions:
REMARK  status: ('A' for Active; 'I' for Inactive)
REMARK    1  A    between atoms: C_2  and  C_3 
REMARK    2  A    between atoms: C_3  and  C_4 
REMARK    3  A    between atoms: C_7  and  C_8 
REMARK    4  A    between atoms: C_8  and  N_9 
REMARK    5  A    between atoms: C_8  and  C_26 
REMARK    6  A    between atoms: N_9  and  C_12 
REMARK    7  A    between atoms: C_12  and  C_13 
REMARK       I    between atoms: C_13  and  N_14 
REMARK    8  A    between atoms: N_14  and  C_15 
ROOT
HETATM    1  N   UNL     1      -7.630   3.543 -34.221  1.00  0.00    -0.054 N 
HETATM    2  H   UNL     1      -7.223   3.699 -35.153  1.00  0.00     0.278 HD
HETATM    3  H   UNL     1      -8.328   2.805 -34.380  1.00  0.00     0.278 HD
ENDROOT
BRANCH   1   4
HETATM    4  C   UNL     1      -6.557   3.030 -33.315  1.00  0.00     0.259 C 
BRANCH   4   5
HETATM    5  C   UNL     1      -6.225   1.580 -33.638  1.00  0.00    -0.023 A 
HETATM    6  C   UNL     1      -6.976   0.906 -34.619  1.00  0.00     0.010 A 
HETATM    7  C   UNL     1      -6.735  -0.439 -34.908  1.00  0.00     0.007 A 
HETATM    8  C   UNL     1      -5.746  -1.148 -34.220  1.00  0.00    -0.058 A 
HETATM    9  C   UNL     1      -4.991  -0.486 -33.245  1.00  0.00     0.007 A 
HETATM   10  C   UNL     1      -5.231   0.859 -32.954  1.00  0.00     0.010 A 
BRANCH   8  11
HETATM   11  C   UNL     1      -5.472  -2.596 -34.551  1.00  0.00     0.038 C 
BRANCH  11  12
HETATM   12  C   UNL     1      -6.765  -3.374 -34.799  1.00  0.00     0.000 C 
HETATM   13  C   UNL     1      -6.482  -4.750 -35.379  1.00  0.00     0.005 C 
ENDBRANCH  11  12
ENDBRANCH   8  11
ENDBRANCH   4   5
BRANCH   4  14
HETATM   14  C   UNL     1      -6.789   3.361 -31.851  1.00  0.00     0.017 A 
HETATM   15  S   UNL     1      -5.761   4.510 -31.070  1.00  0.00    -0.104 SA
HETATM   16  C   UNL     1      -6.556   4.321 -29.573  1.00  0.00     0.050 A 
HETATM   17  C   UNL     1      -7.557   3.380 -29.637  1.00  0.00     0.008 A 
HETATM   18  C   UNL     1      -7.675   2.811 -30.939  1.00  0.00     0.017 A 
ENDBRANCH   4  14
ENDBRANCH   1   4
BRANCH   1  19
HETATM   19  C   UNL     1      -8.377   4.793 -33.841  1.00  0.00     0.336 C 
BRANCH  19  20
HETATM   20  C   UNL     1      -9.882   4.546 -33.970  1.00  0.00     0.248 C 
HETATM   21  N   UNL     1     -10.303   3.327 -33.480  1.00  0.00    -0.326 N 
HETATM   22  H   UNL     1      -9.628   2.732 -33.011  1.00  0.00     0.169 HD
HETATM   23  O   UNL     1     -10.569   5.429 -34.481  1.00  0.00    -0.271 OA
BRANCH  21  24
HETATM   24  C   UNL     1     -11.616   2.799 -33.533  1.00  0.00     0.037 A 
HETATM   25  C   UNL     1     -12.696   3.332 -32.816  1.00  0.00     0.061 A 
HETATM   26  C   UNL     1     -13.921   2.727 -32.987  1.00  0.00     0.065 A 
HETATM   27  C   UNL     1     -14.106   1.630 -33.824  1.00  0.00     0.063 A 
HETATM   28  N   UNL     1     -15.152   3.045 -32.423  1.00  0.00    -0.306 N 
HETATM   29  N   UNL     1     -15.447   1.271 -33.775  1.00  0.00    -0.307 N 
HETATM   30  C   UNL     1     -13.072   1.079 -34.537  1.00  0.00     0.034 A 
HETATM   31  C   UNL     1     -16.115   2.146 -32.906  1.00  0.00     0.325 A 
HETATM   32  H   UNL     1     -15.905   0.522 -34.268  1.00  0.00     0.170 HD
HETATM   33  O   UNL     1     -17.299   2.132 -32.627  1.00  0.00    -0.247 OA
HETATM   34  C   UNL     1     -11.814   1.679 -34.385  1.00  0.00     0.032 A 
HETATM   35  H   UNL     1     -15.364   3.788 -31.778  1.00  0.00     0.170 HD
ENDBRANCH  21  24
ENDBRANCH  19  20
ENDBRANCH   1  19
TORSDOF 8
ENDMDL
MODEL 7
REMARK VINA RESULT:      -7.9      1.700      2.000
REMARK  8 active torsions:
REMARK  status: ('A' for Active; 'I' for Inactive)
REMARK    1  A    between atoms: C_2  and  C_3 
REMARK    2  A    between atoms: C_3  and  C_4 
REMARK    3  A    between atoms: C_7  and  C_8 
REMARK    4  A    between atoms: C_8  and  N_9 
REMARK    5  A    between atoms: C_8  and  C_26 
REMARK    6  A    between atoms: N_9  and  C_12 
REMARK    7  A    between atoms: C_12  and  C_13 
REMARK       I    between atoms: C_13  and  N_14 
REMARK    8  A    between atoms: N_14  and  C_15 
ROOT
HETATM    1  N   UNL     1      -7.008   2.480 -32.256  1.00  0.00    -0.054 N 
HETATM    2  H   UNL     1      -7.412   1.559 -32.036  1.00  0.00     0.278 HD
HETATM    3  H   UNL     1      -6.705   2.838 -31.340  1.00  0.00     0.278 HD
ENDROOT
BRANCH   1   4
HETATM    4  C   UNL     1      -5.815   2.277 -33.133  1.00  0.00     0.259 C 
BRANCH   4   5
HETATM    5  C   UNL     1      -5.666   0.810 -33.513  1.00  0.00    -0.023 A 
HETATM    6  C   UNL     1      -6.624   0.219 -34.358  1.00  0.00     0.010 A 
HETATM    7  C   UNL     1      -6.551  -1.135 -34.689  1.00  0.00     0.007 A 
HETATM    8  C   UNL     1      -5.527  -1.938 -34.177  1.00  0.00    -0.058 A 
HETATM    9  C   UNL     1      -4.568  -1.360 -33.339  1.00  0.00     0.007 A 
HETATM   10  C   UNL     1      -4.639  -0.005 -33.006  1.00  0.00     0.010 A 
BRANCH   8  11
HETATM   11  C   UNL     1      -5.437  -3.397 -34.555  1.00  0.00     0.038 C 
BRANCH  11  12
HETATM   12  C   UNL     1      -3.993  -3.901 -34.522  1.00  0.00     0.000 C 
HETATM   13  C   UNL     1      -3.793  -4.939 -33.429  1.00  0.00     0.005 C 
ENDBRANCH  11  12
ENDBRANCH   8  11
ENDBRANCH   4   5
BRANCH   4  14
HETATM   14  C   UNL     1      -4.564   2.974 -32.628  1.00  0.00     0.017 A 
HETATM   15  S   UNL     1      -4.462   3.427 -30.962  1.00  0.00    -0.104 SA
HETATM   16  C   UNL     1      -2.922   4.131 -31.168  1.00  0.00     0.050 A 
HETATM   17  C   UNL     1      -2.498   4.068 -32.474  1.00  0.00     0.008 A 
HETATM   18  C   UNL     1      -3.450   3.426 -33.318  1.00  0.00     0.017 A 
ENDBRANCH   4  14
ENDBRANCH   1   4
BRANCH   1  19
HETATM   19  C   UNL     1      -8.130   3.362 -32.735  1.00  0.00     0.336 C 
BRANCH  19  20
HETATM   20  C   UNL     1      -9.460   2.619 -32.586  1.00  0.00     0.248 C 
HETATM   21  N   UNL     1     -10.448   3.041 -33.452  1.00  0.00    -0.326 N 
HETATM   22  H   UNL     1     -10.214   3.733 -34.156  1.00  0.00     0.169 HD
HETATM   23  O   UNL     1      -9.533   1.733 -31.736  1.00  0.00    -0.271 OA
BRANCH  21  24
HETATM   24  C   UNL     1     -11.790   2.591 -33.491  1.00  0.00     0.037 A 
HETATM   25  C   UNL     1     -12.833   3.199 -32.780  1.00  0.00     0.061 A 
HETATM   26  C   UNL     1     -14.093   2.665 -32.936  1.00  0.00     0.065 A 
HETATM   27  C   UNL     1     -14.346   1.567 -33.754  1.00  0.00     0.063 A 
HETATM   28  N   UNL     1     -15.300   3.065 -32.373  1.00  0.00    -0.306 N 
HETATM   29  N   UNL     1     -15.705   1.290 -33.694  1.00  0.00    -0.307 N 
HETATM   30  C   UNL     1     -13.350   0.944 -34.461  1.00  0.00     0.034 A 
HETATM   31  C   UNL     1     -16.317   2.217 -32.838  1.00  0.00     0.325 A 
HETATM   32  H   UNL     1     -16.209   0.560 -34.173  1.00  0.00     0.170 HD
HETATM   33  O   UNL     1     -17.498   2.277 -32.554  1.00  0.00    -0.247 OA
HETATM   34  C   UNL     1     -12.058   1.470 -34.324  1.00  0.00     0.032 A 
HETATM   35  H   UNL     1     -15.465   3.829 -31.740  1.00  0.00     0.170 HD
ENDBRANCH  21  24
ENDBRANCH  19  20
ENDBRANCH   1  19
TORSDOF 8
ENDMDL
MODEL 8
REMARK VINA RESULT:      -7.8      4.587      8.744
REMARK  8 active torsions:
REMARK  status: ('A' for Active; 'I' for Inactive)
REMARK    1  A    between atoms: C_2  and  C_3 
REMARK    2  A    between atoms: C_3  and  C_4 
REMARK    3  A    between atoms: C_7  and  C_8 
REMARK    4  A    between atoms: C_8  and  N_9 
REMARK    5  A    between atoms: C_8  and  C_26 
REMARK    6  A    between atoms: N_9  and  C_12 
REMARK    7  A    between atoms: C_12  and  C_13 
REMARK       I    between atoms: C_13  and  N_14 
REMARK    8  A    between atoms: N_14  and  C_15 
ROOT
HETATM    1  N   UNL     1      -5.932   3.966 -34.054  1.00  0.00    -0.054 N 
HETATM    2  H   UNL     1      -6.284   3.357 -34.806  1.00  0.00     0.278 HD
HETATM    3  H   UNL     1      -6.710   4.617 -33.883  1.00  0.00     0.278 HD
ENDROOT
BRANCH   1   4
HETATM    4  C   UNL     1      -5.703   3.130 -32.836  1.00  0.00     0.259 C 
BRANCH   4   5
HETATM    5  C   UNL     1      -5.649   1.652 -33.197  1.00  0.00    -0.023 A 
HETATM    6  C   UNL     1      -4.645   0.844 -32.632  1.00  0.00     0.010 A 
HETATM    7  C   UNL     1      -4.530  -0.504 -32.977  1.00  0.00     0.007 A 
HETATM    8  C   UNL     1      -5.408  -1.078 -33.900  1.00  0.00    -0.058 A 
HETATM    9  C   UNL     1      -6.413  -0.285 -34.465  1.00  0.00     0.007 A 
HETATM   10  C   UNL     1      -6.528   1.064 -34.122  1.00  0.00     0.010 A 
BRANCH   8  11
HETATM   11  C   UNL     1      -5.298  -2.543 -34.253  1.00  0.00     0.038 C 
BRANCH  11  12
HETATM   12  C   UNL     1      -6.547  -3.045 -34.979  1.00  0.00     0.000 C 
HETATM   13  C   UNL     1      -6.568  -4.563 -35.063  1.00  0.00     0.005 C 
ENDBRANCH  11  12
ENDBRANCH   8  11
ENDBRANCH   4   5
BRANCH   4  14
HETATM   14  C   UNL     1      -6.592   3.508 -31.664  1.00  0.00     0.017 A 
HETATM   15  S   UNL     1      -8.261   3.860 -31.947  1.00  0.00    -0.104 SA
HETATM   16  C   UNL     1      -8.547   4.207 -30.302  1.00  0.00     0.050 A 
HETATM   17  C   UNL     1      -7.402   4.102 -29.547  1.00  0.00     0.008 A 
HETATM   18  C   UNL     1      -6.274   3.725 -30.333  1.00  0.00     0.017 A 
ENDBRANCH   4  14
ENDBRANCH   1   4
BRANCH   1  19
HETATM   19  C   UNL     1      -4.792   4.768 -34.620  1.00  0.00     0.336 C 
BRANCH  19  20
HETATM   20  C   UNL     1      -4.182   5.635 -33.517  1.00  0.00     0.248 C 
HETATM   21  N   UNL     1      -2.885   5.304 -33.182  1.00  0.00    -0.326 N 
HETATM   22  H   UNL     1      -2.411   4.588 -33.724  1.00  0.00     0.169 HD
HETATM   23  O   UNL     1      -4.877   6.529 -33.036  1.00  0.00    -0.271 OA
BRANCH  21  24
HETATM   24  C   UNL     1      -2.101   5.879 -32.153  1.00  0.00     0.037 A 
HETATM   25  C   UNL     1      -2.495   5.922 -30.809  1.00  0.00     0.061 A 
HETATM   26  C   UNL     1      -1.615   6.492 -29.916  1.00  0.00     0.065 A 
HETATM   27  C   UNL     1      -0.385   7.015 -30.305  1.00  0.00     0.063 A 
HETATM   28  N   UNL     1      -1.733   6.657 -28.540  1.00  0.00    -0.306 N 
HETATM   29  N   UNL     1       0.254   7.502 -29.172  1.00  0.00    -0.307 N 
HETATM   30  C   UNL     1       0.032   6.994 -31.611  1.00  0.00     0.034 A 
HETATM   31  C   UNL     1      -0.574   7.285 -28.060  1.00  0.00     0.325 A 
HETATM   32  H   UNL     1       1.159   7.939 -29.112  1.00  0.00     0.170 HD
HETATM   33  O   UNL     1      -0.333   7.580 -26.905  1.00  0.00    -0.247 OA
HETATM   34  C   UNL     1      -0.842   6.415 -32.541  1.00  0.00     0.032 A 
HETATM   35  H   UNL     1      -2.498   6.383 -27.947  1.00  0.00     0.170 HD
ENDBRANCH  21  24
ENDBRANCH  19  20
ENDBRANCH   1  19
TORSDOF 8
ENDMDL
MODEL 9
REMARK VINA RESULT:      -7.8     15.751     18.281
REMARK  8 active torsions:
REMARK  status: ('A' for Active; 'I' for Inactive)
REMARK    1  A    between atoms: C_2  and  C_3 
REMARK    2  A    between atoms: C_3  and  C_4 
REMARK    3  A    between atoms: C_7  and  C_8 
REMARK    4  A    between atoms: C_8  and  N_9 
REMARK    5  A    between atoms: C_8  and  C_26 
REMARK    6  A    between atoms: N_9  and  C_12 
REMARK    7  A    between atoms: C_12  and  C_13 
REMARK       I    between atoms: C_13  and  N_14 
REMARK    8  A    between atoms: N_14  and  C_15 
ROOT
HETATM    1  N   UNL     1      -3.930 -12.845 -36.879  1.00  0.00    -0.054 N 
HETATM    2  H   UNL     1      -4.356 -12.216 -37.574  1.00  0.00     0.278 HD
HETATM    3  H   UNL     1      -3.682 -12.218 -36.102  1.00  0.00     0.278 HD
ENDROOT
BRANCH   1   4
HETATM    4  C   UNL     1      -4.969 -13.819 -36.423  1.00  0.00     0.259 C 
BRANCH   4   5
HETATM    5  C   UNL     1      -6.255 -13.651 -37.220  1.00  0.00    -0.023 A 
HETATM    6  C   UNL     1      -6.336 -12.631 -38.186  1.00  0.00     0.010 A 
HETATM    7  C   UNL     1      -7.514 -12.413 -38.902  1.00  0.00     0.007 A 
HETATM    8  C   UNL     1      -8.645 -13.200 -38.666  1.00  0.00    -0.058 A 
HETATM    9  C   UNL     1      -8.575 -14.219 -37.711  1.00  0.00     0.007 A 
HETATM   10  C   UNL     1      -7.397 -14.439 -36.993  1.00  0.00     0.010 A 
BRANCH   8  11
HETATM   11  C   UNL     1      -9.911 -12.977 -39.459  1.00  0.00     0.038 C 
BRANCH  11  12
HETATM   12  C   UNL     1      -9.805 -11.746 -40.360  1.00  0.00     0.000 C 
HETATM   13  C   UNL     1     -11.170 -11.128 -40.619  1.00  0.00     0.005 C 
ENDBRANCH  11  12
ENDBRANCH   8  11
ENDBRANCH   4   5
BRANCH   4  14
HETATM   14  C   UNL     1      -5.114 -13.889 -34.913  1.00  0.00     0.017 A 
HETATM   15  S   UNL     1      -4.897 -15.405 -34.111  1.00  0.00    -0.104 SA
HETATM   16  C   UNL     1      -5.234 -14.732 -32.580  1.00  0.00     0.050 A 
HETATM   17  C   UNL     1      -5.546 -13.395 -32.663  1.00  0.00     0.008 A 
HETATM   18  C   UNL     1      -5.501 -12.916 -34.005  1.00  0.00     0.017 A 
ENDBRANCH   4  14
ENDBRANCH   1   4
BRANCH   1  19
HETATM   19  C   UNL     1      -2.645 -13.363 -37.467  1.00  0.00     0.336 C 
BRANCH  19  20
HETATM   20  C   UNL     1      -2.954 -14.185 -38.720  1.00  0.00     0.248 C 
HETATM   21  N   UNL     1      -3.278 -13.433 -39.830  1.00  0.00    -0.326 N 
HETATM   22  H   UNL     1      -3.215 -12.422 -39.768  1.00  0.00     0.169 HD
HETATM   23  O   UNL     1      -2.887 -15.411 -38.636  1.00  0.00    -0.271 OA
BRANCH  21  24
HETATM   24  C   UNL     1      -3.680 -13.920 -41.097  1.00  0.00     0.037 A 
HETATM   25  C   UNL     1      -2.860 -14.698 -41.925  1.00  0.00     0.061 A 
HETATM   26  C   UNL     1      -3.396 -15.121 -43.121  1.00  0.00     0.065 A 
HETATM   27  C   UNL     1      -4.692 -14.800 -43.517  1.00  0.00     0.063 A 
HETATM   28  N   UNL     1      -2.827 -15.904 -44.119  1.00  0.00    -0.306 N 
HETATM   29  N   UNL     1      -4.920 -15.382 -44.757  1.00  0.00    -0.307 N 
HETATM   30  C   UNL     1      -5.521 -14.038 -42.736  1.00  0.00     0.034 A 
HETATM   31  C   UNL     1      -3.766 -16.077 -45.147  1.00  0.00     0.325 A 
HETATM   32  H   UNL     1      -5.759 -15.343 -45.313  1.00  0.00     0.170 HD
HETATM   33  O   UNL     1      -3.610 -16.710 -46.174  1.00  0.00    -0.247 OA
HETATM   34  C   UNL     1      -5.002 -13.597 -41.510  1.00  0.00     0.032 A 
HETATM   35  H   UNL     1      -1.904 -16.304 -44.141  1.00  0.00     0.170 HD
ENDBRANCH  21  24
ENDBRANCH  19  20
ENDBRANCH   1  19
TORSDOF 8
ENDMDL
MODEL 10
REMARK VINA RESULT:      -7.6      5.163      9.266
REMARK  8 active torsions:
REMARK  status: ('A' for Active; 'I' for Inactive)
REMARK    1  A    between atoms: C_2  and  C_3 
REMARK    2  A    between atoms: C_3  and  C_4 
REMARK    3  A    between atoms: C_7  and  C_8 
REMARK    4  A    between atoms: C_8  and  N_9 
REMARK    5  A    between atoms: C_8  and  C_26 
REMARK    6  A    between atoms: N_9  and  C_12 
REMARK    7  A    between atoms: C_12  and  C_13 
REMARK       I    between atoms: C_13  and  N_14 
REMARK    8  A    between atoms: N_14  and  C_15 
ROOT
HETATM    1  N   UNL     1      -4.122   3.643 -32.895  1.00  0.00    -0.054 N 
HETATM    2  H   UNL     1      -4.385   3.438 -33.869  1.00  0.00     0.278 HD
HETATM    3  H   UNL     1      -4.491   4.590 -32.737  1.00  0.00     0.278 HD
ENDROOT
BRANCH   1   4
HETATM    4  C   UNL     1      -4.829   2.676 -32.000  1.00  0.00     0.259 C 
BRANCH   4   5
HETATM    5  C   UNL     1      -5.266   1.441 -32.776  1.00  0.00    -0.023 A 
HETATM    6  C   UNL     1      -6.354   1.537 -33.663  1.00  0.00     0.010 A 
HETATM    7  C   UNL     1      -6.817   0.416 -34.354  1.00  0.00     0.007 A 
HETATM    8  C   UNL     1      -6.213  -0.832 -34.172  1.00  0.00    -0.058 A 
HETATM    9  C   UNL     1      -5.128  -0.937 -33.295  1.00  0.00     0.007 A 
HETATM   10  C   UNL     1      -4.664   0.183 -32.602  1.00  0.00     0.010 A 
BRANCH   8  11
HETATM   11  C   UNL     1      -6.701  -2.038 -34.939  1.00  0.00     0.038 C 
BRANCH  11  12
HETATM   12  C   UNL     1      -5.771  -3.239 -34.754  1.00  0.00     0.000 C 
HETATM   13  C   UNL     1      -6.449  -4.534 -35.171  1.00  0.00     0.005 C 
ENDBRANCH  11  12
ENDBRANCH   8  11
ENDBRANCH   4   5
BRANCH   4  14
HETATM   14  C   UNL     1      -5.879   3.324 -31.115  1.00  0.00     0.017 A 
HETATM   15  S   UNL     1      -6.037   5.046 -31.112  1.00  0.00    -0.104 SA
HETATM   16  C   UNL     1      -7.279   5.008 -29.943  1.00  0.00     0.050 A 
HETATM   17  C   UNL     1      -7.551   3.727 -29.524  1.00  0.00     0.008 A 
HETATM   18  C   UNL     1      -6.731   2.762 -30.178  1.00  0.00     0.017 A 
ENDBRANCH   4  14
ENDBRANCH   1   4
BRANCH   1  19
HETATM   19  C   UNL     1      -2.621   3.730 -32.842  1.00  0.00     0.336 C 
BRANCH  19  20
HETATM   20  C   UNL     1      -2.210   5.089 -32.273  1.00  0.00     0.248 C 
HETATM   21  N   UNL     1      -1.738   5.045 -30.977  1.00  0.00    -0.326 N 
HETATM   22  H   UNL     1      -1.622   4.141 -30.532  1.00  0.00     0.169 HD
HETATM   23  O   UNL     1      -2.329   6.077 -32.996  1.00  0.00    -0.271 OA
BRANCH  21  24
HETATM   24  C   UNL     1      -1.359   6.148 -30.174  1.00  0.00     0.037 A 
HETATM   25  C   UNL     1      -2.275   7.039 -29.597  1.00  0.00     0.061 A 
HETATM   26  C   UNL     1      -1.760   8.052 -28.819  1.00  0.00     0.065 A 
HETATM   27  C   UNL     1      -0.394   8.210 -28.603  1.00  0.00     0.063 A 
HETATM   28  N   UNL     1      -2.421   9.057 -28.122  1.00  0.00    -0.306 N 
HETATM   29  N   UNL     1      -0.213   9.312 -27.777  1.00  0.00    -0.307 N 
HETATM   30  C   UNL     1       0.532   7.362 -29.155  1.00  0.00     0.034 A 
HETATM   31  C   UNL     1      -1.470   9.851 -27.465  1.00  0.00     0.325 A 
HETATM   32  H   UNL     1       0.654   9.690 -27.431  1.00  0.00     0.170 HD
HETATM   33  O   UNL     1      -1.693  10.817 -26.760  1.00  0.00    -0.247 OA
HETATM   34  C   UNL     1       0.034   6.319 -29.948  1.00  0.00     0.032 A 
HETATM   35  H   UNL     1      -3.412   9.222 -28.066  1.00  0.00     0.170 HD
ENDBRANCH  21  24
ENDBRANCH  19  20
ENDBRANCH   1  19
TORSDOF 8
ENDMDL
