MODEL 1
REMARK VINA RESULT:      -7.6      0.000      0.000
REMARK  7 active torsions:
REMARK  status: ('A' for Active; 'I' for Inactive)
REMARK    1  A    between atoms: O_2  and  C_3 
REMARK    2  A    between atoms: C_4  and  C_5 
REMARK    3  A    between atoms: C_6  and  C_7 
REMARK       I    between atoms: C_7  and  N_8 
REMARK    4  A    between atoms: N_8  and  C_9 
REMARK    5  A    between atoms: C_9  and  C_10 
REMARK    6  A    between atoms: C_10  and  N_11 
REMARK    7  A    between atoms: C_10  and  C_18 
ROOT
HETATM    1  C   UNL     1      -4.650   0.974 -30.814  1.00  0.00     0.241 C 
HETATM    2  N   UNL     1      -4.387   2.260 -31.223  1.00  0.00    -0.355 N 
HETATM    3  O   UNL     1      -3.805   0.092 -30.820  1.00  0.00    -0.269 OA
HETATM    4  H   UNL     1      -5.167   2.907 -31.281  1.00  0.00     0.162 HD
ENDROOT
BRANCH   2   5
HETATM    5  C   UNL     1      -3.175   2.560 -31.976  1.00  0.00     0.163 C 
BRANCH   5   6
HETATM    6  C   UNL     1      -3.248   3.765 -32.948  1.00  0.00     0.262 C 
BRANCH   6   7
HETATM    7  N   UNL     1      -2.134   4.802 -32.763  1.00  0.00    -0.059 N 
HETATM    8  H   UNL     1      -1.399   4.425 -33.380  1.00  0.00     0.280 HD
HETATM    9  C   UNL     1      -2.404   6.189 -33.293  1.00  0.00     0.236 C 
HETATM   10  C   UNL     1      -1.080   6.941 -33.374  1.00  0.00     0.028 C 
HETATM   11  C   UNL     1      -0.384   6.991 -32.016  1.00  0.00     0.003 C 
HETATM   12  C   UNL     1      -0.240   5.600 -31.405  1.00  0.00     0.028 C 
HETATM   13  C   UNL     1      -1.567   4.851 -31.368  1.00  0.00     0.236 C 
ENDBRANCH   6   7
BRANCH   6  14
HETATM   14  C   UNL     1      -4.603   4.411 -32.993  1.00  0.00     0.085 A 
HETATM   15  O   UNL     1      -5.058   4.918 -31.805  1.00  0.00    -0.325 OA
HETATM   16  C   UNL     1      -6.274   5.471 -32.046  1.00  0.00     0.142 A 
HETATM   17  C   UNL     1      -6.606   5.340 -33.373  1.00  0.00     0.027 A 
HETATM   18  C   UNL     1      -5.525   4.666 -33.989  1.00  0.00     0.037 A 
ENDBRANCH   6  14
ENDBRANCH   5   6
ENDBRANCH   2   5
BRANCH   1  19
HETATM   19  C   UNL     1      -6.036   0.802 -30.323  1.00  0.00     0.075 C 
HETATM   20  C   UNL     1      -7.056   0.398 -31.094  1.00  0.00     0.020 C 
BRANCH  20  21
HETATM   21  C   UNL     1      -6.986   0.129 -32.535  1.00  0.00    -0.001 A 
HETATM   22  C   UNL     1      -7.414   1.079 -33.473  1.00  0.00     0.078 A 
HETATM   23  C   UNL     1      -7.380   0.794 -34.841  1.00  0.00     0.039 A 
HETATM   24  C   UNL     1      -6.871  -0.427 -35.285  1.00  0.00     0.022 A 
HETATM   25  C   UNL     1      -6.412  -1.360 -34.357  1.00  0.00     0.012 A 
HETATM   26  C   UNL     1      -6.465  -1.091 -32.989  1.00  0.00     0.033 A 
HETATM   27 BR   UNL     1      -5.721  -3.016 -34.955  1.00  0.00    -0.051 Br
BRANCH  22  28
HETATM   28  O   UNL     1      -7.954   2.267 -33.047  1.00  0.00    -0.355 OA
HETATM   29  C   UNL     1      -9.166   2.545 -33.748  1.00  0.00     0.210 C 
ENDBRANCH  22  28
ENDBRANCH  20  21
ENDBRANCH   1  19
TORSDOF 7
ENDMDL
MODEL 2
REMARK VINA RESULT:      -7.5      2.248      3.223
REMARK  7 active torsions:
REMARK  status: ('A' for Active; 'I' for Inactive)
REMARK    1  A    between atoms: O_2  and  C_3 
REMARK    2  A    between atoms: C_4  and  C_5 
REMARK    3  A    between atoms: C_6  and  C_7 
REMARK       I    between atoms: C_7  and  N_8 
REMARK    4  A    between atoms: N_8  and  C_9 
REMARK    5  A    between atoms: C_9  and  C_10 
REMARK    6  A    between atoms: C_10  and  N_11 
REMARK    7  A    between atoms: C_10  and  C_18 
ROOT
HETATM    1  C   UNL     1      -4.393   1.515 -31.478  1.00  0.00     0.241 C 
HETATM    2  N   UNL     1      -4.313   2.592 -30.628  1.00  0.00    -0.355 N 
HETATM    3  O   UNL     1      -4.024   1.562 -32.642  1.00  0.00    -0.269 OA
HETATM    4  H   UNL     1      -4.732   2.501 -29.707  1.00  0.00     0.162 HD
ENDROOT
BRANCH   2   5
HETATM    5  C   UNL     1      -4.073   3.931 -31.154  1.00  0.00     0.163 C 
BRANCH   5   6
HETATM    6  C   UNL     1      -2.611   4.268 -31.541  1.00  0.00     0.262 C 
BRANCH   6   7
HETATM    7  N   UNL     1      -1.905   5.235 -30.583  1.00  0.00    -0.059 N 
HETATM    8  H   UNL     1      -2.231   4.891 -29.668  1.00  0.00     0.280 HD
HETATM    9  C   UNL     1      -0.401   5.141 -30.513  1.00  0.00     0.236 C 
HETATM   10  C   UNL     1       0.071   5.873 -29.262  1.00  0.00     0.028 C 
HETATM   11  C   UNL     1      -0.396   7.327 -29.259  1.00  0.00     0.003 C 
HETATM   12  C   UNL     1      -1.902   7.437 -29.478  1.00  0.00     0.028 C 
HETATM   13  C   UNL     1      -2.358   6.666 -30.712  1.00  0.00     0.236 C 
ENDBRANCH   6   7
BRANCH   6  14
HETATM   14  C   UNL     1      -2.459   4.697 -32.972  1.00  0.00     0.085 A 
HETATM   15  O   UNL     1      -3.628   4.892 -33.660  1.00  0.00    -0.325 OA
HETATM   16  C   UNL     1      -3.292   5.290 -34.914  1.00  0.00     0.142 A 
HETATM   17  C   UNL     1      -1.926   5.368 -35.042  1.00  0.00     0.027 A 
HETATM   18  C   UNL     1      -1.386   4.997 -33.788  1.00  0.00     0.037 A 
ENDBRANCH   6  14
ENDBRANCH   5   6
ENDBRANCH   2   5
BRANCH   1  19
HETATM   19  C   UNL     1      -4.919   0.300 -30.816  1.00  0.00     0.075 C 
HETATM   20  C   UNL     1      -5.839  -0.509 -31.360  1.00  0.00     0.020 C 
BRANCH  20  21
HETATM   21  C   UNL     1      -6.513  -0.295 -32.646  1.00  0.00    -0.001 A 
HETATM   22  C   UNL     1      -6.031  -0.879 -33.826  1.00  0.00     0.078 A 
HETATM   23  C   UNL     1      -6.658  -0.634 -35.051  1.00  0.00     0.039 A 
HETATM   24  C   UNL     1      -7.805   0.160 -35.098  1.00  0.00     0.022 A 
HETATM   25  C   UNL     1      -8.309   0.714 -33.923  1.00  0.00     0.012 A 
HETATM   26  C   UNL     1      -7.673   0.491 -32.700  1.00  0.00     0.033 A 
HETATM   27 BR   UNL     1      -9.862   1.790 -33.983  1.00  0.00    -0.051 Br
BRANCH  22  28
HETATM   28  O   UNL     1      -4.881  -1.628 -33.798  1.00  0.00    -0.355 OA
HETATM   29  C   UNL     1      -5.072  -2.866 -34.484  1.00  0.00     0.210 C 
ENDBRANCH  22  28
ENDBRANCH  20  21
ENDBRANCH   1  19
TORSDOF 7
ENDMDL
MODEL 3
REMARK VINA RESULT:      -7.5      1.751      2.395
REMARK  7 active torsions:
REMARK  status: ('A' for Active; 'I' for Inactive)
REMARK    1  A    between atoms: O_2  and  C_3 
REMARK    2  A    between atoms: C_4  and  C_5 
REMARK    3  A    between atoms: C_6  and  C_7 
REMARK       I    between atoms: C_7  and  N_8 
REMARK    4  A    between atoms: N_8  and  C_9 
REMARK    5  A    between atoms: C_9  and  C_10 
REMARK    6  A    between atoms: C_10  and  N_11 
REMARK    7  A    between atoms: C_10  and  C_18 
ROOT
HETATM    1  C   UNL     1      -5.464   1.736 -30.377  1.00  0.00     0.241 C 
HETATM    2  N   UNL     1      -4.280   1.669 -31.073  1.00  0.00    -0.355 N 
HETATM    3  O   UNL     1      -6.037   2.789 -30.146  1.00  0.00    -0.269 OA
HETATM    4  H   UNL     1      -3.819   0.766 -31.137  1.00  0.00     0.162 HD
ENDROOT
BRANCH   2   5
HETATM    5  C   UNL     1      -3.490   2.872 -31.300  1.00  0.00     0.163 C 
BRANCH   5   6
HETATM    6  C   UNL     1      -3.547   3.476 -32.727  1.00  0.00     0.262 C 
BRANCH   6   7
HETATM    7  N   UNL     1      -2.456   4.510 -33.026  1.00  0.00    -0.059 N 
HETATM    8  H   UNL     1      -1.638   3.904 -33.187  1.00  0.00     0.280 HD
HETATM    9  C   UNL     1      -2.603   5.301 -34.302  1.00  0.00     0.236 C 
HETATM   10  C   UNL     1      -1.268   5.967 -34.615  1.00  0.00     0.028 C 
HETATM   11  C   UNL     1      -0.804   6.854 -33.462  1.00  0.00     0.003 C 
HETATM   12  C   UNL     1      -0.794   6.097 -32.137  1.00  0.00     0.028 C 
HETATM   13  C   UNL     1      -2.125   5.407 -31.862  1.00  0.00     0.236 C 
ENDBRANCH   6   7
BRANCH   6  14
HETATM   14  C   UNL     1      -4.909   3.984 -33.102  1.00  0.00     0.085 A 
HETATM   15  O   UNL     1      -5.340   5.088 -32.416  1.00  0.00    -0.325 OA
HETATM   16  C   UNL     1      -6.568   5.406 -32.901  1.00  0.00     0.142 A 
HETATM   17  C   UNL     1      -6.930   4.534 -33.899  1.00  0.00     0.027 A 
HETATM   18  C   UNL     1      -5.857   3.621 -34.039  1.00  0.00     0.037 A 
ENDBRANCH   6  14
ENDBRANCH   5   6
ENDBRANCH   2   5
BRANCH   1  19
HETATM   19  C   UNL     1      -5.980   0.402 -29.996  1.00  0.00     0.075 C 
HETATM   20  C   UNL     1      -6.643  -0.409 -30.834  1.00  0.00     0.020 C 
BRANCH  20  21
HETATM   21  C   UNL     1      -7.016  -0.091 -32.217  1.00  0.00    -0.001 A 
HETATM   22  C   UNL     1      -6.137  -0.335 -33.282  1.00  0.00     0.078 A 
HETATM   23  C   UNL     1      -6.489   0.011 -34.589  1.00  0.00     0.039 A 
HETATM   24  C   UNL     1      -7.746   0.559 -34.850  1.00  0.00     0.022 A 
HETATM   25  C   UNL     1      -8.637   0.770 -33.799  1.00  0.00     0.012 A 
HETATM   26  C   UNL     1      -8.282   0.448 -32.488  1.00  0.00     0.033 A 
HETATM   27 BR   UNL     1     -10.340   1.512 -34.148  1.00  0.00    -0.051 Br
BRANCH  22  28
HETATM   28  O   UNL     1      -4.884  -0.836 -33.032  1.00  0.00    -0.355 OA
HETATM   29  C   UNL     1      -4.645  -2.002 -33.821  1.00  0.00     0.210 C 
ENDBRANCH  22  28
ENDBRANCH  20  21
ENDBRANCH   1  19
TORSDOF 7
ENDMDL
MODEL 4
REMARK VINA RESULT:      -7.4      2.944      7.122
REMARK  7 active torsions:
REMARK  status: ('A' for Active; 'I' for Inactive)
REMARK    1  A    between atoms: O_2  and  C_3 
REMARK    2  A    between atoms: C_4  and  C_5 
REMARK    3  A    between atoms: C_6  and  C_7 
REMARK       I    between atoms: C_7  and  N_8 
REMARK    4  A    between atoms: N_8  and  C_9 
REMARK    5  A    between atoms: C_9  and  C_10 
REMARK    6  A    between atoms: C_10  and  N_11 
REMARK    7  A    between atoms: C_10  and  C_18 
ROOT
HETATM    1  C   UNL     1      -4.621   3.048 -31.322  1.00  0.00     0.241 C 
HETATM    2  N   UNL     1      -5.483   2.509 -32.248  1.00  0.00    -0.355 N 
HETATM    3  O   UNL     1      -3.501   2.604 -31.125  1.00  0.00    -0.269 OA
HETATM    4  H   UNL     1      -6.430   2.874 -32.281  1.00  0.00     0.162 HD
ENDROOT
BRANCH   2   5
HETATM    5  C   UNL     1      -5.223   1.193 -32.819  1.00  0.00     0.163 C 
BRANCH   5   6
HETATM    6  C   UNL     1      -6.297   0.105 -32.564  1.00  0.00     0.262 C 
BRANCH   6   7
HETATM    7  N   UNL     1      -6.027  -1.234 -33.259  1.00  0.00    -0.059 N 
HETATM    8  H   UNL     1      -6.216  -1.901 -32.497  1.00  0.00     0.280 HD
HETATM    9  C   UNL     1      -6.979  -1.629 -34.361  1.00  0.00     0.236 C 
HETATM   10  C   UNL     1      -6.795  -3.115 -34.647  1.00  0.00     0.028 C 
HETATM   11  C   UNL     1      -5.349  -3.435 -35.021  1.00  0.00     0.003 C 
HETATM   12  C   UNL     1      -4.367  -2.906 -33.980  1.00  0.00     0.028 C 
HETATM   13  C   UNL     1      -4.593  -1.428 -33.679  1.00  0.00     0.236 C 
ENDBRANCH   6   7
BRANCH   6  14
HETATM   14  C   UNL     1      -7.698   0.585 -32.812  1.00  0.00     0.085 A 
HETATM   15  O   UNL     1      -7.852   1.449 -33.864  1.00  0.00    -0.325 OA
HETATM   16  C   UNL     1      -9.173   1.752 -33.942  1.00  0.00     0.142 A 
HETATM   17  C   UNL     1      -9.876   1.090 -32.965  1.00  0.00     0.027 A 
HETATM   18  C   UNL     1      -8.929   0.327 -32.241  1.00  0.00     0.037 A 
ENDBRANCH   6  14
ENDBRANCH   5   6
ENDBRANCH   2   5
BRANCH   1  19
HETATM   19  C   UNL     1      -5.180   4.240 -30.646  1.00  0.00     0.075 C 
HETATM   20  C   UNL     1      -4.708   5.484 -30.815  1.00  0.00     0.020 C 
BRANCH  20  21
HETATM   21  C   UNL     1      -3.545   5.855 -31.629  1.00  0.00    -0.001 A 
HETATM   22  C   UNL     1      -3.667   6.096 -33.005  1.00  0.00     0.078 A 
HETATM   23  C   UNL     1      -2.544   6.408 -33.776  1.00  0.00     0.039 A 
HETATM   24  C   UNL     1      -1.295   6.531 -33.167  1.00  0.00     0.022 A 
HETATM   25  C   UNL     1      -1.174   6.328 -31.794  1.00  0.00     0.012 A 
HETATM   26  C   UNL     1      -2.288   5.993 -31.022  1.00  0.00     0.033 A 
HETATM   27 BR   UNL     1       0.517   6.493 -30.965  1.00  0.00    -0.051 Br
BRANCH  22  28
HETATM   28  O   UNL     1      -4.883   5.938 -33.621  1.00  0.00    -0.355 OA
HETATM   29  C   UNL     1      -4.818   4.898 -34.597  1.00  0.00     0.210 C 
ENDBRANCH  22  28
ENDBRANCH  20  21
ENDBRANCH   1  19
TORSDOF 7
ENDMDL
MODEL 5
REMARK VINA RESULT:      -7.3      1.760      3.088
REMARK  7 active torsions:
REMARK  status: ('A' for Active; 'I' for Inactive)
REMARK    1  A    between atoms: O_2  and  C_3 
REMARK    2  A    between atoms: C_4  and  C_5 
REMARK    3  A    between atoms: C_6  and  C_7 
REMARK       I    between atoms: C_7  and  N_8 
REMARK    4  A    between atoms: N_8  and  C_9 
REMARK    5  A    between atoms: C_9  and  C_10 
REMARK    6  A    between atoms: C_10  and  N_11 
REMARK    7  A    between atoms: C_10  and  C_18 
ROOT
HETATM    1  C   UNL     1      -7.206   1.785 -34.175  1.00  0.00     0.241 C 
HETATM    2  N   UNL     1      -6.547   2.780 -33.491  1.00  0.00    -0.355 N 
HETATM    3  O   UNL     1      -7.000   1.546 -35.355  1.00  0.00    -0.269 OA
HETATM    4  H   UNL     1      -6.847   2.979 -32.541  1.00  0.00     0.162 HD
ENDROOT
BRANCH   2   5
HETATM    5  C   UNL     1      -5.799   3.800 -34.214  1.00  0.00     0.163 C 
BRANCH   5   6
HETATM    6  C   UNL     1      -5.293   5.005 -33.381  1.00  0.00     0.262 C 
BRANCH   6   7
HETATM    7  N   UNL     1      -3.801   5.315 -33.549  1.00  0.00    -0.059 N 
HETATM    8  H   UNL     1      -3.370   4.501 -33.086  1.00  0.00     0.280 HD
HETATM    9  C   UNL     1      -3.257   5.288 -34.956  1.00  0.00     0.236 C 
HETATM   10  C   UNL     1      -1.736   5.226 -34.885  1.00  0.00     0.028 C 
HETATM   11  C   UNL     1      -1.168   6.401 -34.092  1.00  0.00     0.003 C 
HETATM   12  C   UNL     1      -1.821   6.524 -32.719  1.00  0.00     0.028 C 
HETATM   13  C   UNL     1      -3.343   6.545 -32.809  1.00  0.00     0.236 C 
ENDBRANCH   6   7
BRANCH   6  14
HETATM   14  C   UNL     1      -5.683   4.931 -31.933  1.00  0.00     0.085 A 
HETATM   15  O   UNL     1      -5.081   3.939 -31.206  1.00  0.00    -0.325 OA
HETATM   16  C   UNL     1      -5.539   4.042 -29.932  1.00  0.00     0.142 A 
HETATM   17  C   UNL     1      -6.418   5.092 -29.822  1.00  0.00     0.027 A 
HETATM   18  C   UNL     1      -6.504   5.676 -31.109  1.00  0.00     0.037 A 
ENDBRANCH   6  14
ENDBRANCH   5   6
ENDBRANCH   2   5
BRANCH   1  19
HETATM   19  C   UNL     1      -8.135   1.018 -33.315  1.00  0.00     0.075 C 
HETATM   20  C   UNL     1      -7.914  -0.242 -32.914  1.00  0.00     0.020 C 
BRANCH  20  21
HETATM   21  C   UNL     1      -6.771  -1.076 -33.305  1.00  0.00    -0.001 A 
HETATM   22  C   UNL     1      -5.472  -0.784 -32.863  1.00  0.00     0.078 A 
HETATM   23  C   UNL     1      -4.387  -1.562 -33.275  1.00  0.00     0.039 A 
HETATM   24  C   UNL     1      -4.598  -2.671 -34.096  1.00  0.00     0.022 A 
HETATM   25  C   UNL     1      -5.891  -2.986 -34.509  1.00  0.00     0.012 A 
HETATM   26  C   UNL     1      -6.976  -2.199 -34.119  1.00  0.00     0.033 A 
HETATM   27 BR   UNL     1      -6.181  -4.488 -35.621  1.00  0.00    -0.051 Br
BRANCH  22  28
HETATM   28  O   UNL     1      -5.248   0.328 -32.089  1.00  0.00    -0.355 OA
HETATM   29  C   UNL     1      -3.870   0.699 -32.135  1.00  0.00     0.210 C 
ENDBRANCH  22  28
ENDBRANCH  20  21
ENDBRANCH   1  19
TORSDOF 7
ENDMDL
MODEL 6
REMARK VINA RESULT:      -7.3      1.685      2.478
REMARK  7 active torsions:
REMARK  status: ('A' for Active; 'I' for Inactive)
REMARK    1  A    between atoms: O_2  and  C_3 
REMARK    2  A    between atoms: C_4  and  C_5 
REMARK    3  A    between atoms: C_6  and  C_7 
REMARK       I    between atoms: C_7  and  N_8 
REMARK    4  A    between atoms: N_8  and  C_9 
REMARK    5  A    between atoms: C_9  and  C_10 
REMARK    6  A    between atoms: C_10  and  N_11 
REMARK    7  A    between atoms: C_10  and  C_18 
ROOT
HETATM    1  C   UNL     1      -4.751   2.082 -30.994  1.00  0.00     0.241 C 
HETATM    2  N   UNL     1      -4.584   3.299 -30.377  1.00  0.00    -0.355 N 
HETATM    3  O   UNL     1      -4.310   1.838 -32.107  1.00  0.00    -0.269 OA
HETATM    4  H   UNL     1      -5.066   3.454 -29.497  1.00  0.00     0.162 HD
ENDROOT
BRANCH   2   5
HETATM    5  C   UNL     1      -4.143   4.459 -31.142  1.00  0.00     0.163 C 
BRANCH   5   6
HETATM    6  C   UNL     1      -2.628   4.540 -31.462  1.00  0.00     0.262 C 
BRANCH   6   7
HETATM    7  N   UNL     1      -1.827   5.451 -30.525  1.00  0.00    -0.059 N 
HETATM    8  H   UNL     1      -2.245   5.222 -29.611  1.00  0.00     0.280 HD
HETATM    9  C   UNL     1      -0.360   5.135 -30.364  1.00  0.00     0.236 C 
HETATM   10  C   UNL     1       0.160   5.870 -29.134  1.00  0.00     0.028 C 
HETATM   11  C   UNL     1      -0.076   7.374 -29.243  1.00  0.00     0.003 C 
HETATM   12  C   UNL     1      -1.535   7.696 -29.553  1.00  0.00     0.028 C 
HETATM   13  C   UNL     1      -2.047   6.922 -30.762  1.00  0.00     0.236 C 
ENDBRANCH   6   7
BRANCH   6  14
HETATM   14  C   UNL     1      -2.341   4.840 -32.905  1.00  0.00     0.085 A 
HETATM   15  O   UNL     1      -3.436   4.912 -33.725  1.00  0.00    -0.325 OA
HETATM   16  C   UNL     1      -2.983   5.208 -34.971  1.00  0.00     0.142 A 
HETATM   17  C   UNL     1      -1.616   5.340 -34.965  1.00  0.00     0.027 A 
HETATM   18  C   UNL     1      -1.199   5.115 -33.631  1.00  0.00     0.037 A 
ENDBRANCH   6  14
ENDBRANCH   5   6
ENDBRANCH   2   5
BRANCH   1  19
HETATM   19  C   UNL     1      -5.467   1.103 -30.146  1.00  0.00     0.075 C 
HETATM   20  C   UNL     1      -6.235   0.116 -30.630  1.00  0.00     0.020 C 
BRANCH  20  21
HETATM   21  C   UNL     1      -6.540  -0.114 -32.046  1.00  0.00    -0.001 A 
HETATM   22  C   UNL     1      -7.442   0.708 -32.739  1.00  0.00     0.078 A 
HETATM   23  C   UNL     1      -7.755   0.452 -34.077  1.00  0.00     0.039 A 
HETATM   24  C   UNL     1      -7.131  -0.599 -34.749  1.00  0.00     0.022 A 
HETATM   25  C   UNL     1      -6.208  -1.396 -34.075  1.00  0.00     0.012 A 
HETATM   26  C   UNL     1      -5.908  -1.161 -32.733  1.00  0.00     0.033 A 
HETATM   27 BR   UNL     1      -5.359  -2.822 -34.983  1.00  0.00    -0.051 Br
BRANCH  22  28
HETATM   28  O   UNL     1      -8.092   1.719 -32.077  1.00  0.00    -0.355 OA
HETATM   29  C   UNL     1      -9.507   1.545 -32.164  1.00  0.00     0.210 C 
ENDBRANCH  22  28
ENDBRANCH  20  21
ENDBRANCH   1  19
TORSDOF 7
ENDMDL
MODEL 7
REMARK VINA RESULT:      -7.2      3.400      6.914
REMARK  7 active torsions:
REMARK  status: ('A' for Active; 'I' for Inactive)
REMARK    1  A    between atoms: O_2  and  C_3 
REMARK    2  A    between atoms: C_4  and  C_5 
REMARK    3  A    between atoms: C_6  and  C_7 
REMARK       I    between atoms: C_7  and  N_8 
REMARK    4  A    between atoms: N_8  and  C_9 
REMARK    5  A    between atoms: C_9  and  C_10 
REMARK    6  A    between atoms: C_10  and  N_11 
REMARK    7  A    between atoms: C_10  and  C_18 
ROOT
HETATM    1  C   UNL     1      -8.861   1.566 -34.074  1.00  0.00     0.241 C 
HETATM    2  N   UNL     1      -7.805   1.103 -34.823  1.00  0.00    -0.355 N 
HETATM    3  O   UNL     1      -9.395   0.900 -33.200  1.00  0.00    -0.269 OA
HETATM    4  H   UNL     1      -7.483   1.679 -35.595  1.00  0.00     0.162 HD
ENDROOT
BRANCH   2   5
HETATM    5  C   UNL     1      -7.469  -0.315 -34.826  1.00  0.00     0.163 C 
BRANCH   5   6
HETATM    6  C   UNL     1      -6.041  -0.687 -34.353  1.00  0.00     0.262 C 
BRANCH   6   7
HETATM    7  N   UNL     1      -5.653  -2.152 -34.585  1.00  0.00    -0.059 N 
HETATM    8  H   UNL     1      -5.283  -2.115 -35.546  1.00  0.00     0.280 HD
HETATM    9  C   UNL     1      -4.513  -2.691 -33.757  1.00  0.00     0.236 C 
HETATM   10  C   UNL     1      -4.029  -3.991 -34.389  1.00  0.00     0.028 C 
HETATM   11  C   UNL     1      -5.161  -5.009 -34.504  1.00  0.00     0.003 C 
HETATM   12  C   UNL     1      -6.378  -4.421 -35.214  1.00  0.00     0.028 C 
HETATM   13  C   UNL     1      -6.822  -3.102 -34.591  1.00  0.00     0.236 C 
ENDBRANCH   6   7
BRANCH   6  14
HETATM   14  C   UNL     1      -5.750  -0.255 -32.944  1.00  0.00     0.085 A 
HETATM   15  O   UNL     1      -6.775  -0.419 -32.050  1.00  0.00    -0.325 OA
HETATM   16  C   UNL     1      -6.323   0.005 -30.842  1.00  0.00     0.142 A 
HETATM   17  C   UNL     1      -5.019   0.427 -30.939  1.00  0.00     0.027 A 
HETATM   18  C   UNL     1      -4.643   0.251 -32.292  1.00  0.00     0.037 A 
ENDBRANCH   6  14
ENDBRANCH   5   6
ENDBRANCH   2   5
BRANCH   1  19
HETATM   19  C   UNL     1      -9.233   2.960 -34.408  1.00  0.00     0.075 C 
HETATM   20  C   UNL     1      -8.630   4.039 -33.888  1.00  0.00     0.020 C 
BRANCH  20  21
HETATM   21  C   UNL     1      -7.570   4.020 -32.873  1.00  0.00    -0.001 A 
HETATM   22  C   UNL     1      -7.871   4.088 -31.505  1.00  0.00     0.078 A 
HETATM   23  C   UNL     1      -6.850   4.111 -30.551  1.00  0.00     0.039 A 
HETATM   24  C   UNL     1      -5.518   4.017 -30.956  1.00  0.00     0.022 A 
HETATM   25  C   UNL     1      -5.215   3.913 -32.312  1.00  0.00     0.012 A 
HETATM   26  C   UNL     1      -6.229   3.913 -33.271  1.00  0.00     0.033 A 
HETATM   27 BR   UNL     1      -3.411   3.785 -32.864  1.00  0.00    -0.051 Br
BRANCH  22  28
HETATM   28  O   UNL     1      -9.175   4.223 -31.099  1.00  0.00    -0.355 OA
HETATM   29  C   UNL     1      -9.626   3.028 -30.460  1.00  0.00     0.210 C 
ENDBRANCH  22  28
ENDBRANCH  20  21
ENDBRANCH   1  19
TORSDOF 7
ENDMDL
MODEL 8
REMARK VINA RESULT:      -7.1      2.101      3.047
REMARK  7 active torsions:
REMARK  status: ('A' for Active; 'I' for Inactive)
REMARK    1  A    between atoms: O_2  and  C_3 
REMARK    2  A    between atoms: C_4  and  C_5 
REMARK    3  A    between atoms: C_6  and  C_7 
REMARK       I    between atoms: C_7  and  N_8 
REMARK    4  A    between atoms: N_8  and  C_9 
REMARK    5  A    between atoms: C_9  and  C_10 
REMARK    6  A    between atoms: C_10  and  N_11 
REMARK    7  A    between atoms: C_10  and  C_18 
ROOT
HETATM    1  C   UNL     1      -4.326   1.405 -31.644  1.00  0.00     0.241 C 
HETATM    2  N   UNL     1      -4.889   2.642 -31.437  1.00  0.00    -0.355 N 
HETATM    3  O   UNL     1      -3.372   1.228 -32.386  1.00  0.00    -0.269 OA
HETATM    4  H   UNL     1      -5.739   2.689 -30.884  1.00  0.00     0.162 HD
ENDROOT
BRANCH   2   5
HETATM    5  C   UNL     1      -4.577   3.752 -32.329  1.00  0.00     0.163 C 
BRANCH   5   6
HETATM    6  C   UNL     1      -4.492   5.157 -31.679  1.00  0.00     0.262 C 
BRANCH   6   7
HETATM    7  N   UNL     1      -3.067   5.690 -31.497  1.00  0.00    -0.059 N 
HETATM    8  H   UNL     1      -3.045   5.871 -30.482  1.00  0.00     0.280 HD
HETATM    9  C   UNL     1      -1.942   4.713 -31.736  1.00  0.00     0.236 C 
HETATM   10  C   UNL     1      -0.664   5.292 -31.138  1.00  0.00     0.028 C 
HETATM   11  C   UNL     1      -0.345   6.663 -31.730  1.00  0.00     0.003 C 
HETATM   12  C   UNL     1      -1.533   7.614 -31.624  1.00  0.00     0.028 C 
HETATM   13  C   UNL     1      -2.808   7.002 -32.191  1.00  0.00     0.236 C 
ENDBRANCH   6   7
BRANCH   6  14
HETATM   14  C   UNL     1      -5.294   5.275 -30.415  1.00  0.00     0.085 A 
HETATM   15  O   UNL     1      -6.538   4.703 -30.446  1.00  0.00    -0.325 OA
HETATM   16  C   UNL     1      -7.095   4.892 -29.222  1.00  0.00     0.142 A 
HETATM   17  C   UNL     1      -6.227   5.567 -28.399  1.00  0.00     0.027 A 
HETATM   18  C   UNL     1      -5.058   5.805 -29.162  1.00  0.00     0.037 A 
ENDBRANCH   6  14
ENDBRANCH   5   6
ENDBRANCH   2   5
BRANCH   1  19
HETATM   19  C   UNL     1      -4.964   0.343 -30.834  1.00  0.00     0.075 C 
HETATM   20  C   UNL     1      -5.955  -0.443 -31.280  1.00  0.00     0.020 C 
BRANCH  20  21
HETATM   21  C   UNL     1      -6.602  -0.342 -32.593  1.00  0.00    -0.001 A 
HETATM   22  C   UNL     1      -6.036  -0.936 -33.731  1.00  0.00     0.078 A 
HETATM   23  C   UNL     1      -6.642  -0.797 -34.983  1.00  0.00     0.039 A 
HETATM   24  C   UNL     1      -7.847  -0.103 -35.100  1.00  0.00     0.022 A 
HETATM   25  C   UNL     1      -8.431   0.459 -33.966  1.00  0.00     0.012 A 
HETATM   26  C   UNL     1      -7.819   0.343 -32.717  1.00  0.00     0.033 A 
HETATM   27 BR   UNL     1     -10.063   1.401 -34.120  1.00  0.00    -0.051 Br
BRANCH  22  28
HETATM   28  O   UNL     1      -4.831  -1.586 -33.635  1.00  0.00    -0.355 OA
HETATM   29  C   UNL     1      -4.849  -2.789 -34.404  1.00  0.00     0.210 C 
ENDBRANCH  22  28
ENDBRANCH  20  21
ENDBRANCH   1  19
TORSDOF 7
ENDMDL
MODEL 9
REMARK VINA RESULT:      -7.0      3.202      7.643
REMARK  7 active torsions:
REMARK  status: ('A' for Active; 'I' for Inactive)
REMARK    1  A    between atoms: O_2  and  C_3 
REMARK    2  A    between atoms: C_4  and  C_5 
REMARK    3  A    between atoms: C_6  and  C_7 
REMARK       I    between atoms: C_7  and  N_8 
REMARK    4  A    between atoms: N_8  and  C_9 
REMARK    5  A    between atoms: C_9  and  C_10 
REMARK    6  A    between atoms: C_10  and  N_11 
REMARK    7  A    between atoms: C_10  and  C_18 
ROOT
HETATM    1  C   UNL     1      -4.943   3.542 -31.478  1.00  0.00     0.241 C 
HETATM    2  N   UNL     1      -4.476   2.640 -32.405  1.00  0.00    -0.355 N 
HETATM    3  O   UNL     1      -5.053   3.274 -30.291  1.00  0.00    -0.269 OA
HETATM    4  H   UNL     1      -4.509   2.908 -33.384  1.00  0.00     0.162 HD
ENDROOT
BRANCH   2   5
HETATM    5  C   UNL     1      -4.380   1.224 -32.073  1.00  0.00     0.163 C 
BRANCH   5   6
HETATM    6  C   UNL     1      -4.852   0.227 -33.162  1.00  0.00     0.262 C 
BRANCH   6   7
HETATM    7  N   UNL     1      -6.370   0.178 -33.368  1.00  0.00    -0.059 N 
HETATM    8  H   UNL     1      -6.528  -0.834 -33.480  1.00  0.00     0.280 HD
HETATM    9  C   UNL     1      -7.226   0.572 -32.190  1.00  0.00     0.236 C 
HETATM   10  C   UNL     1      -8.651   0.093 -32.447  1.00  0.00     0.028 C 
HETATM   11  C   UNL     1      -9.203   0.665 -33.751  1.00  0.00     0.003 C 
HETATM   12  C   UNL     1      -8.266   0.398 -34.926  1.00  0.00     0.028 C 
HETATM   13  C   UNL     1      -6.839   0.848 -34.633  1.00  0.00     0.236 C 
ENDBRANCH   6   7
BRANCH   6  14
HETATM   14  C   UNL     1      -4.270  -1.148 -33.000  1.00  0.00     0.085 A 
HETATM   15  O   UNL     1      -3.530  -1.349 -31.865  1.00  0.00    -0.325 OA
HETATM   16  C   UNL     1      -3.110  -2.640 -31.885  1.00  0.00     0.142 A 
HETATM   17  C   UNL     1      -3.578  -3.279 -33.008  1.00  0.00     0.027 A 
HETATM   18  C   UNL     1      -4.337  -2.322 -33.723  1.00  0.00     0.037 A 
ENDBRANCH   6  14
ENDBRANCH   5   6
ENDBRANCH   2   5
BRANCH   1  19
HETATM   19  C   UNL     1      -5.241   4.867 -32.067  1.00  0.00     0.075 C 
HETATM   20  C   UNL     1      -4.327   5.835 -32.227  1.00  0.00     0.020 C 
BRANCH  20  21
HETATM   21  C   UNL     1      -2.926   5.770 -31.795  1.00  0.00    -0.001 A 
HETATM   22  C   UNL     1      -1.938   5.204 -32.613  1.00  0.00     0.078 A 
HETATM   23  C   UNL     1      -0.615   5.110 -32.172  1.00  0.00     0.039 A 
HETATM   24  C   UNL     1      -0.259   5.629 -30.927  1.00  0.00     0.022 A 
HETATM   25  C   UNL     1      -1.231   6.225 -30.125  1.00  0.00     0.012 A 
HETATM   26  C   UNL     1      -2.558   6.300 -30.549  1.00  0.00     0.033 A 
HETATM   27 BR   UNL     1      -0.752   6.928 -28.436  1.00  0.00    -0.051 Br
BRANCH  22  28
HETATM   28  O   UNL     1      -2.285   4.654 -33.822  1.00  0.00    -0.355 OA
HETATM   29  C   UNL     1      -1.500   5.221 -34.872  1.00  0.00     0.210 C 
ENDBRANCH  22  28
ENDBRANCH  20  21
ENDBRANCH   1  19
TORSDOF 7
ENDMDL
MODEL 10
REMARK VINA RESULT:      -6.9      3.274      7.551
REMARK  7 active torsions:
REMARK  status: ('A' for Active; 'I' for Inactive)
REMARK    1  A    between atoms: O_2  and  C_3 
REMARK    2  A    between atoms: C_4  and  C_5 
REMARK    3  A    between atoms: C_6  and  C_7 
REMARK       I    between atoms: C_7  and  N_8 
REMARK    4  A    between atoms: N_8  and  C_9 
REMARK    5  A    between atoms: C_9  and  C_10 
REMARK    6  A    between atoms: C_10  and  N_11 
REMARK    7  A    between atoms: C_10  and  C_18 
ROOT
HETATM    1  C   UNL     1      -2.994   3.559 -32.263  1.00  0.00     0.241 C 
HETATM    2  N   UNL     1      -4.352   3.459 -32.452  1.00  0.00    -0.355 N 
HETATM    3  O   UNL     1      -2.432   3.140 -31.262  1.00  0.00    -0.269 OA
HETATM    4  H   UNL     1      -4.752   3.920 -33.264  1.00  0.00     0.162 HD
ENDROOT
BRANCH   2   5
HETATM    5  C   UNL     1      -5.229   3.128 -31.336  1.00  0.00     0.163 C 
BRANCH   5   6
HETATM    6  C   UNL     1      -5.936   1.750 -31.398  1.00  0.00     0.262 C 
BRANCH   6   7
HETATM    7  N   UNL     1      -5.043   0.597 -31.871  1.00  0.00    -0.059 N 
HETATM    8  H   UNL     1      -4.532   1.040 -32.648  1.00  0.00     0.280 HD
HETATM    9  C   UNL     1      -3.968   0.138 -30.918  1.00  0.00     0.236 C 
HETATM   10  C   UNL     1      -2.966  -0.711 -31.693  1.00  0.00     0.028 C 
HETATM   11  C   UNL     1      -3.648  -1.895 -32.373  1.00  0.00     0.003 C 
HETATM   12  C   UNL     1      -4.833  -1.450 -33.225  1.00  0.00     0.028 C 
HETATM   13  C   UNL     1      -5.803  -0.572 -32.443  1.00  0.00     0.236 C 
ENDBRANCH   6   7
BRANCH   6  14
HETATM   14  C   UNL     1      -7.238   1.784 -32.144  1.00  0.00     0.085 A 
HETATM   15  O   UNL     1      -7.192   2.344 -33.394  1.00  0.00    -0.325 OA
HETATM   16  C   UNL     1      -8.444   2.268 -33.913  1.00  0.00     0.142 A 
HETATM   17  C   UNL     1      -9.295   1.657 -33.024  1.00  0.00     0.027 A 
HETATM   18  C   UNL     1      -8.518   1.333 -31.886  1.00  0.00     0.037 A 
ENDBRANCH   6  14
ENDBRANCH   5   6
ENDBRANCH   2   5
BRANCH   1  19
HETATM   19  C   UNL     1      -2.299   4.174 -33.416  1.00  0.00     0.075 C 
HETATM   20  C   UNL     1      -1.632   5.336 -33.354  1.00  0.00     0.020 C 
BRANCH  20  21
HETATM   21  C   UNL     1      -1.537   6.206 -32.176  1.00  0.00    -0.001 A 
HETATM   22  C   UNL     1      -0.533   6.021 -31.214  1.00  0.00     0.078 A 
HETATM   23  C   UNL     1      -0.479   6.831 -30.076  1.00  0.00     0.039 A 
HETATM   24  C   UNL     1      -1.401   7.866 -29.915  1.00  0.00     0.022 A 
HETATM   25  C   UNL     1      -2.378   8.076 -30.886  1.00  0.00     0.012 A 
HETATM   26  C   UNL     1      -2.452   7.257 -32.013  1.00  0.00     0.033 A 
HETATM   27 BR   UNL     1      -3.628   9.478 -30.671  1.00  0.00    -0.051 Br
BRANCH  22  28
HETATM   28  O   UNL     1       0.352   4.981 -31.342  1.00  0.00    -0.355 OA
HETATM   29  C   UNL     1       0.932   4.658 -30.078  1.00  0.00     0.210 C 
ENDBRANCH  22  28
ENDBRANCH  20  21
ENDBRANCH   1  19
TORSDOF 7
ENDMDL
