MODEL 1
REMARK VINA RESULT:      -8.0      0.000      0.000
REMARK  8 active torsions:
REMARK  status: ('A' for Active; 'I' for Inactive)
REMARK    1  A    between atoms: C_7  and  C_8 
REMARK       I    between atoms: C_8  and  N_9 
REMARK    2  A    between atoms: N_9  and  C_10 
REMARK    3  A    between atoms: C_13  and  C_14 
REMARK       I    between atoms: C_14  and  N_15 
REMARK    4  A    between atoms: N_15  and  C_16 
REMARK    5  A    between atoms: C_16  and  C_17 
REMARK    6  A    between atoms: C_17  and  C_18 
REMARK    7  A    between atoms: C_20  and  O_21 
REMARK    8  A    between atoms: C_23  and  O_24 
ROOT
HETATM    1  C   UNL     1      -4.196   4.765 -31.367  1.00  0.00     0.035 A 
HETATM    2  C   UNL     1      -5.365   5.458 -31.682  1.00  0.00     0.030 A 
HETATM    3  C   UNL     1      -6.427   4.813 -32.327  1.00  0.00     0.019 A 
HETATM    4  C   UNL     1      -6.326   3.459 -32.660  1.00  0.00     0.032 A 
HETATM    5  C   UNL     1      -5.139   2.771 -32.393  1.00  0.00     0.019 A 
HETATM    6  C   UNL     1      -4.083   3.420 -31.746  1.00  0.00     0.030 A 
ENDROOT
BRANCH   4   7
HETATM    7  C   UNL     1      -7.459   2.713 -33.275  1.00  0.00     0.251 C 
HETATM    8  N   UNL     1      -7.549   1.377 -32.942  1.00  0.00    -0.357 N 
HETATM    9  H   UNL     1      -6.728   0.946 -32.532  1.00  0.00     0.162 HD
HETATM   10  O   UNL     1      -8.209   3.268 -34.069  1.00  0.00    -0.268 OA
BRANCH   8  11
HETATM   11  C   UNL     1      -8.447   0.499 -33.669  1.00  0.00     0.127 C 
BRANCH  11  12
HETATM   12  C   UNL     1      -7.780  -0.161 -34.879  1.00  0.00     0.058 C 
BRANCH  12  13
HETATM   13  C   UNL     1      -6.640  -1.098 -34.537  1.00  0.00    -0.054 A 
HETATM   14  C   UNL     1      -5.498  -0.638 -33.865  1.00  0.00     0.046 A 
HETATM   15  C   UNL     1      -4.446  -1.510 -33.551  1.00  0.00     0.102 A 
HETATM   16  C   UNL     1      -4.523  -2.862 -33.939  1.00  0.00     0.101 A 
HETATM   17  C   UNL     1      -5.657  -3.319 -34.616  1.00  0.00     0.040 A 
HETATM   18  C   UNL     1      -6.705  -2.444 -34.912  1.00  0.00     0.010 A 
BRANCH  15  19
HETATM   19  O   UNL     1      -3.303  -1.139 -32.887  1.00  0.00    -0.353 OA
HETATM   20  C   UNL     1      -3.450  -0.434 -31.662  1.00  0.00     0.210 C 
ENDBRANCH  15  19
BRANCH  16  21
HETATM   21  O   UNL     1      -3.451  -3.650 -33.602  1.00  0.00    -0.353 OA
HETATM   22  C   UNL     1      -3.698  -5.030 -33.372  1.00  0.00     0.210 C 
ENDBRANCH  16  21
ENDBRANCH  12  13
ENDBRANCH  11  12
ENDBRANCH   8  11
ENDBRANCH   4   7
BRANCH   1  23
HETATM   23  N   UNL     1      -3.114   5.323 -30.661  1.00  0.00    -0.322 N 
HETATM   24  C   UNL     1      -2.000   5.967 -31.170  1.00  0.00     0.265 C 
HETATM   25  O   UNL     1      -1.735   6.078 -32.362  1.00  0.00    -0.267 OA
HETATM   26  H   UNL     1      -3.157   5.276 -29.648  1.00  0.00     0.169 HD
BRANCH  24  27
HETATM   27  C   UNL     1      -1.090   6.554 -30.093  1.00  0.00     0.097 C 
HETATM   28  C   UNL     1      -1.256   7.825 -29.649  1.00  0.00     0.064 C 
HETATM   29  C   UNL     1      -2.374   8.732 -30.097  1.00  0.00     0.078 C 
HETATM   30  O   UNL     1      -0.466   8.457 -28.700  1.00  0.00    -0.353 OA
HETATM   31  C   UNL     1       0.816   7.888 -28.443  1.00  0.00     0.185 C 
HETATM   32  C   UNL     1       0.700   6.436 -28.035  1.00  0.00     0.106 C 
HETATM   33  S   UNL     1       0.154   5.484 -29.473  1.00  0.00    -0.120 SA
ENDBRANCH  24  27
ENDBRANCH   1  23
TORSDOF 8
ENDMDL
MODEL 2
REMARK VINA RESULT:      -7.6      6.016     13.600
REMARK  8 active torsions:
REMARK  status: ('A' for Active; 'I' for Inactive)
REMARK    1  A    between atoms: C_7  and  C_8 
REMARK       I    between atoms: C_8  and  N_9 
REMARK    2  A    between atoms: N_9  and  C_10 
REMARK    3  A    between atoms: C_13  and  C_14 
REMARK       I    between atoms: C_14  and  N_15 
REMARK    4  A    between atoms: N_15  and  C_16 
REMARK    5  A    between atoms: C_16  and  C_17 
REMARK    6  A    between atoms: C_17  and  C_18 
REMARK    7  A    between atoms: C_20  and  O_21 
REMARK    8  A    between atoms: C_23  and  O_24 
ROOT
HETATM    1  C   UNL     1      -0.451   7.040 -28.721  1.00  0.00     0.035 A 
HETATM    2  C   UNL     1      -0.870   6.803 -27.411  1.00  0.00     0.030 A 
HETATM    3  C   UNL     1      -0.199   7.387 -26.330  1.00  0.00     0.019 A 
HETATM    4  C   UNL     1       0.901   8.221 -26.554  1.00  0.00     0.032 A 
HETATM    5  C   UNL     1       1.356   8.423 -27.861  1.00  0.00     0.019 A 
HETATM    6  C   UNL     1       0.680   7.838 -28.937  1.00  0.00     0.030 A 
ENDROOT
BRANCH   4   7
HETATM    7  C   UNL     1       1.595   8.924 -25.441  1.00  0.00     0.251 C 
HETATM    8  N   UNL     1       2.650   8.244 -24.866  1.00  0.00    -0.357 N 
HETATM    9  H   UNL     1       2.714   7.249 -25.051  1.00  0.00     0.162 HD
HETATM   10  O   UNL     1       1.192  10.011 -25.047  1.00  0.00    -0.268 OA
BRANCH   8  11
HETATM   11  C   UNL     1       3.234   8.712 -23.623  1.00  0.00     0.127 C 
BRANCH  11  12
HETATM   12  C   UNL     1       4.410   9.667 -23.844  1.00  0.00     0.058 C 
BRANCH  12  13
HETATM   13  C   UNL     1       5.774   9.054 -23.601  1.00  0.00    -0.054 A 
HETATM   14  C   UNL     1       5.924   7.909 -22.804  1.00  0.00     0.046 A 
HETATM   15  C   UNL     1       7.190   7.346 -22.583  1.00  0.00     0.102 A 
HETATM   16  C   UNL     1       8.329   7.953 -23.145  1.00  0.00     0.101 A 
HETATM   17  C   UNL     1       8.181   9.099 -23.932  1.00  0.00     0.040 A 
HETATM   18  C   UNL     1       6.914   9.643 -24.157  1.00  0.00     0.010 A 
BRANCH  15  19
HETATM   19  O   UNL     1       7.417   6.223 -21.826  1.00  0.00    -0.353 OA
HETATM   20  C   UNL     1       7.281   6.339 -20.417  1.00  0.00     0.210 C 
ENDBRANCH  15  19
BRANCH  16  21
HETATM   21  O   UNL     1       9.532   7.348 -22.876  1.00  0.00    -0.353 OA
HETATM   22  C   UNL     1      10.460   8.061 -22.071  1.00  0.00     0.210 C 
ENDBRANCH  16  21
ENDBRANCH  12  13
ENDBRANCH  11  12
ENDBRANCH   8  11
ENDBRANCH   4   7
BRANCH   1  23
HETATM   23  N   UNL     1      -1.112   6.546 -29.862  1.00  0.00    -0.322 N 
HETATM   24  C   UNL     1      -0.782   5.447 -30.634  1.00  0.00     0.265 C 
HETATM   25  O   UNL     1       0.223   4.759 -30.486  1.00  0.00    -0.267 OA
HETATM   26  H   UNL     1      -1.953   7.035 -30.149  1.00  0.00     0.169 HD
BRANCH  24  27
HETATM   27  C   UNL     1      -1.804   5.139 -31.726  1.00  0.00     0.097 C 
HETATM   28  C   UNL     1      -1.851   5.867 -32.871  1.00  0.00     0.064 C 
HETATM   29  C   UNL     1      -0.873   6.964 -33.209  1.00  0.00     0.078 C 
HETATM   30  O   UNL     1      -2.757   5.686 -33.905  1.00  0.00    -0.353 OA
HETATM   31  C   UNL     1      -3.943   4.953 -33.604  1.00  0.00     0.185 C 
HETATM   32  C   UNL     1      -3.616   3.584 -33.048  1.00  0.00     0.106 C 
HETATM   33  S   UNL     1      -2.885   3.795 -31.408  1.00  0.00    -0.120 SA
ENDBRANCH  24  27
ENDBRANCH   1  23
TORSDOF 8
ENDMDL
MODEL 3
REMARK VINA RESULT:      -7.6      6.548     13.978
REMARK  8 active torsions:
REMARK  status: ('A' for Active; 'I' for Inactive)
REMARK    1  A    between atoms: C_7  and  C_8 
REMARK       I    between atoms: C_8  and  N_9 
REMARK    2  A    between atoms: N_9  and  C_10 
REMARK    3  A    between atoms: C_13  and  C_14 
REMARK       I    between atoms: C_14  and  N_15 
REMARK    4  A    between atoms: N_15  and  C_16 
REMARK    5  A    between atoms: C_16  and  C_17 
REMARK    6  A    between atoms: C_17  and  C_18 
REMARK    7  A    between atoms: C_20  and  O_21 
REMARK    8  A    between atoms: C_23  and  O_24 
ROOT
HETATM    1  C   UNL     1      -0.106   6.775 -28.300  1.00  0.00     0.035 A 
HETATM    2  C   UNL     1      -0.259   6.534 -26.934  1.00  0.00     0.030 A 
HETATM    3  C   UNL     1       0.476   7.265 -25.993  1.00  0.00     0.019 A 
HETATM    4  C   UNL     1       1.372   8.251 -26.415  1.00  0.00     0.032 A 
HETATM    5  C   UNL     1       1.567   8.464 -27.783  1.00  0.00     0.019 A 
HETATM    6  C   UNL     1       0.828   7.732 -28.718  1.00  0.00     0.030 A 
ENDROOT
BRANCH   4   7
HETATM    7  C   UNL     1       2.116   9.105 -25.449  1.00  0.00     0.251 C 
HETATM    8  N   UNL     1       3.060   8.456 -24.677  1.00  0.00    -0.357 N 
HETATM    9  H   UNL     1       3.005   7.445 -24.632  1.00  0.00     0.162 HD
HETATM   10  O   UNL     1       1.841  10.292 -25.330  1.00  0.00    -0.268 OA
BRANCH   8  11
HETATM   11  C   UNL     1       3.661   9.125 -23.538  1.00  0.00     0.127 C 
BRANCH  11  12
HETATM   12  C   UNL     1       3.423   8.379 -22.221  1.00  0.00     0.058 C 
BRANCH  12  13
HETATM   13  C   UNL     1       4.685   7.913 -21.525  1.00  0.00    -0.054 A 
HETATM   14  C   UNL     1       5.191   8.592 -20.406  1.00  0.00     0.046 A 
HETATM   15  C   UNL     1       6.360   8.154 -19.766  1.00  0.00     0.102 A 
HETATM   16  C   UNL     1       7.051   7.034 -20.268  1.00  0.00     0.101 A 
HETATM   17  C   UNL     1       6.551   6.362 -21.387  1.00  0.00     0.040 A 
HETATM   18  C   UNL     1       5.379   6.799 -22.009  1.00  0.00     0.010 A 
BRANCH  15  19
HETATM   19  O   UNL     1       6.911   8.757 -18.663  1.00  0.00    -0.353 OA
HETATM   20  C   UNL     1       7.236  10.137 -18.758  1.00  0.00     0.210 C 
ENDBRANCH  15  19
BRANCH  16  21
HETATM   21  O   UNL     1       8.190   6.673 -19.591  1.00  0.00    -0.353 OA
HETATM   22  C   UNL     1       8.608   5.318 -19.687  1.00  0.00     0.210 C 
ENDBRANCH  16  21
ENDBRANCH  12  13
ENDBRANCH  11  12
ENDBRANCH   8  11
ENDBRANCH   4   7
BRANCH   1  23
HETATM   23  N   UNL     1      -0.857   6.132 -29.303  1.00  0.00    -0.322 N 
HETATM   24  C   UNL     1      -1.829   6.674 -30.124  1.00  0.00     0.265 C 
HETATM   25  O   UNL     1      -2.260   7.819 -30.044  1.00  0.00    -0.267 OA
HETATM   26  H   UNL     1      -0.650   5.153 -29.469  1.00  0.00     0.169 HD
BRANCH  24  27
HETATM   27  C   UNL     1      -2.344   5.700 -31.183  1.00  0.00     0.097 C 
HETATM   28  C   UNL     1      -3.609   5.212 -31.133  1.00  0.00     0.064 C 
HETATM   29  C   UNL     1      -4.632   5.633 -30.108  1.00  0.00     0.078 C 
HETATM   30  O   UNL     1      -4.159   4.304 -32.026  1.00  0.00    -0.353 OA
HETATM   31  C   UNL     1      -3.248   3.549 -32.822  1.00  0.00     0.185 C 
HETATM   32  C   UNL     1      -2.327   4.453 -33.611  1.00  0.00     0.106 C 
HETATM   33  S   UNL     1      -1.210   5.277 -32.452  1.00  0.00    -0.120 SA
ENDBRANCH  24  27
ENDBRANCH   1  23
TORSDOF 8
ENDMDL
MODEL 4
REMARK VINA RESULT:      -7.5      3.792     10.796
REMARK  8 active torsions:
REMARK  status: ('A' for Active; 'I' for Inactive)
REMARK    1  A    between atoms: C_7  and  C_8 
REMARK       I    between atoms: C_8  and  N_9 
REMARK    2  A    between atoms: N_9  and  C_10 
REMARK    3  A    between atoms: C_13  and  C_14 
REMARK       I    between atoms: C_14  and  N_15 
REMARK    4  A    between atoms: N_15  and  C_16 
REMARK    5  A    between atoms: C_16  and  C_17 
REMARK    6  A    between atoms: C_17  and  C_18 
REMARK    7  A    between atoms: C_20  and  O_21 
REMARK    8  A    between atoms: C_23  and  O_24 
ROOT
HETATM    1  C   UNL     1      -5.634   4.919 -33.899  1.00  0.00     0.035 A 
HETATM    2  C   UNL     1      -4.612   4.786 -34.840  1.00  0.00     0.030 A 
HETATM    3  C   UNL     1      -3.382   5.429 -34.652  1.00  0.00     0.019 A 
HETATM    4  C   UNL     1      -3.164   6.209 -33.513  1.00  0.00     0.032 A 
HETATM    5  C   UNL     1      -4.200   6.385 -32.592  1.00  0.00     0.019 A 
HETATM    6  C   UNL     1      -5.426   5.740 -32.783  1.00  0.00     0.030 A 
ENDROOT
BRANCH   4   7
HETATM    7  C   UNL     1      -1.847   6.844 -33.234  1.00  0.00     0.251 C 
HETATM    8  N   UNL     1      -1.150   6.334 -32.158  1.00  0.00    -0.357 N 
HETATM    9  H   UNL     1      -1.668   5.767 -31.498  1.00  0.00     0.162 HD
HETATM   10  O   UNL     1      -1.465   7.798 -33.902  1.00  0.00    -0.268 OA
BRANCH   8  11
HETATM   11  C   UNL     1       0.013   7.031 -31.640  1.00  0.00     0.127 C 
BRANCH  11  12
HETATM   12  C   UNL     1       0.376   6.601 -30.216  1.00  0.00     0.058 C 
BRANCH  12  13
HETATM   13  C   UNL     1       0.165   7.668 -29.162  1.00  0.00    -0.054 A 
HETATM   14  C   UNL     1      -1.078   8.299 -29.005  1.00  0.00     0.046 A 
HETATM   15  C   UNL     1      -1.267   9.286 -28.027  1.00  0.00     0.102 A 
HETATM   16  C   UNL     1      -0.187   9.671 -27.209  1.00  0.00     0.101 A 
HETATM   17  C   UNL     1       1.054   9.048 -27.370  1.00  0.00     0.040 A 
HETATM   18  C   UNL     1       1.227   8.056 -28.338  1.00  0.00     0.010 A 
BRANCH  15  19
HETATM   19  O   UNL     1      -2.453   9.941 -27.805  1.00  0.00    -0.353 OA
HETATM   20  C   UNL     1      -3.511   9.205 -27.208  1.00  0.00     0.210 C 
ENDBRANCH  15  19
BRANCH  16  21
HETATM   21  O   UNL     1      -0.449  10.649 -26.281  1.00  0.00    -0.353 OA
HETATM   22  C   UNL     1       0.081  10.473 -24.975  1.00  0.00     0.210 C 
ENDBRANCH  16  21
ENDBRANCH  12  13
ENDBRANCH  11  12
ENDBRANCH   8  11
ENDBRANCH   4   7
BRANCH   1  23
HETATM   23  N   UNL     1      -6.872   4.252 -33.982  1.00  0.00    -0.322 N 
HETATM   24  C   UNL     1      -7.328   3.195 -33.215  1.00  0.00     0.265 C 
HETATM   25  O   UNL     1      -6.665   2.602 -32.370  1.00  0.00    -0.267 OA
HETATM   26  H   UNL     1      -7.531   4.598 -34.672  1.00  0.00     0.169 HD
BRANCH  24  27
HETATM   27  C   UNL     1      -8.776   2.809 -33.507  1.00  0.00     0.097 C 
HETATM   28  C   UNL     1      -9.076   1.699 -34.229  1.00  0.00     0.064 C 
HETATM   29  C   UNL     1      -8.046   0.717 -34.726  1.00  0.00     0.078 C 
HETATM   30  O   UNL     1     -10.353   1.282 -34.572  1.00  0.00    -0.353 OA
HETATM   31  C   UNL     1     -11.394   2.255 -34.495  1.00  0.00     0.185 C 
HETATM   32  C   UNL     1     -11.477   2.862 -33.112  1.00  0.00     0.106 C 
HETATM   33  S   UNL     1     -10.002   3.875 -32.846  1.00  0.00    -0.120 SA
ENDBRANCH  24  27
ENDBRANCH   1  23
TORSDOF 8
ENDMDL
MODEL 5
REMARK VINA RESULT:      -7.5      1.428      1.933
REMARK  8 active torsions:
REMARK  status: ('A' for Active; 'I' for Inactive)
REMARK    1  A    between atoms: C_7  and  C_8 
REMARK       I    between atoms: C_8  and  N_9 
REMARK    2  A    between atoms: N_9  and  C_10 
REMARK    3  A    between atoms: C_13  and  C_14 
REMARK       I    between atoms: C_14  and  N_15 
REMARK    4  A    between atoms: N_15  and  C_16 
REMARK    5  A    between atoms: C_16  and  C_17 
REMARK    6  A    between atoms: C_17  and  C_18 
REMARK    7  A    between atoms: C_20  and  O_21 
REMARK    8  A    between atoms: C_23  and  O_24 
ROOT
HETATM    1  C   UNL     1      -3.741   5.118 -30.862  1.00  0.00     0.035 A 
HETATM    2  C   UNL     1      -3.253   3.996 -31.532  1.00  0.00     0.030 A 
HETATM    3  C   UNL     1      -4.085   3.251 -32.378  1.00  0.00     0.019 A 
HETATM    4  C   UNL     1      -5.417   3.630 -32.562  1.00  0.00     0.032 A 
HETATM    5  C   UNL     1      -5.926   4.724 -31.856  1.00  0.00     0.019 A 
HETATM    6  C   UNL     1      -5.090   5.465 -31.014  1.00  0.00     0.030 A 
ENDROOT
BRANCH   4   7
HETATM    7  C   UNL     1      -6.315   2.916 -33.511  1.00  0.00     0.251 C 
HETATM    8  N   UNL     1      -7.465   2.384 -32.964  1.00  0.00    -0.357 N 
HETATM    9  H   UNL     1      -7.497   2.289 -31.956  1.00  0.00     0.162 HD
HETATM   10  O   UNL     1      -5.992   2.775 -34.684  1.00  0.00    -0.268 OA
BRANCH   8  11
HETATM   11  C   UNL     1      -8.282   1.459 -33.729  1.00  0.00     0.127 C 
BRANCH  11  12
HETATM   12  C   UNL     1      -8.349   0.066 -33.097  1.00  0.00     0.058 C 
BRANCH  12  13
HETATM   13  C   UNL     1      -7.129  -0.798 -33.344  1.00  0.00    -0.054 A 
HETATM   14  C   UNL     1      -5.991  -0.697 -32.530  1.00  0.00     0.046 A 
HETATM   15  C   UNL     1      -4.865  -1.500 -32.764  1.00  0.00     0.102 A 
HETATM   16  C   UNL     1      -4.865  -2.400 -33.847  1.00  0.00     0.101 A 
HETATM   17  C   UNL     1      -5.996  -2.495 -34.663  1.00  0.00     0.040 A 
HETATM   18  C   UNL     1      -7.117  -1.700 -34.412  1.00  0.00     0.010 A 
BRANCH  15  19
HETATM   19  O   UNL     1      -3.720  -1.469 -32.008  1.00  0.00    -0.353 OA
HETATM   20  C   UNL     1      -3.454  -0.290 -31.261  1.00  0.00     0.210 C 
ENDBRANCH  15  19
BRANCH  16  21
HETATM   21  O   UNL     1      -3.724  -3.145 -34.015  1.00  0.00    -0.353 OA
HETATM   22  C   UNL     1      -3.841  -4.557 -33.914  1.00  0.00     0.210 C 
ENDBRANCH  16  21
ENDBRANCH  12  13
ENDBRANCH  11  12
ENDBRANCH   8  11
ENDBRANCH   4   7
BRANCH   1  23
HETATM   23  N   UNL     1      -2.953   5.956 -30.050  1.00  0.00    -0.322 N 
HETATM   24  C   UNL     1      -1.983   6.862 -30.442  1.00  0.00     0.265 C 
HETATM   25  O   UNL     1      -1.590   7.019 -31.592  1.00  0.00    -0.267 OA
HETATM   26  H   UNL     1      -3.124   5.916 -29.051  1.00  0.00     0.169 HD
BRANCH  24  27
HETATM   27  C   UNL     1      -1.419   7.687 -29.287  1.00  0.00     0.097 C 
HETATM   28  C   UNL     1      -0.366   7.244 -28.554  1.00  0.00     0.064 C 
HETATM   29  C   UNL     1       0.385   5.971 -28.849  1.00  0.00     0.078 C 
HETATM   30  O   UNL     1       0.198   7.903 -27.472  1.00  0.00    -0.353 OA
HETATM   31  C   UNL     1      -0.591   8.915 -26.850  1.00  0.00     0.185 C 
HETATM   32  C   UNL     1      -1.016   9.971 -27.846  1.00  0.00     0.106 C 
HETATM   33  S   UNL     1      -2.204   9.227 -28.990  1.00  0.00    -0.120 SA
ENDBRANCH  24  27
ENDBRANCH   1  23
TORSDOF 8
ENDMDL
MODEL 6
REMARK VINA RESULT:      -7.5      5.322     13.111
REMARK  8 active torsions:
REMARK  status: ('A' for Active; 'I' for Inactive)
REMARK    1  A    between atoms: C_7  and  C_8 
REMARK       I    between atoms: C_8  and  N_9 
REMARK    2  A    between atoms: N_9  and  C_10 
REMARK    3  A    between atoms: C_13  and  C_14 
REMARK       I    between atoms: C_14  and  N_15 
REMARK    4  A    between atoms: N_15  and  C_16 
REMARK    5  A    between atoms: C_16  and  C_17 
REMARK    6  A    between atoms: C_17  and  C_18 
REMARK    7  A    between atoms: C_20  and  O_21 
REMARK    8  A    between atoms: C_23  and  O_24 
ROOT
HETATM    1  C   UNL     1      -0.828   7.027 -28.996  1.00  0.00     0.035 A 
HETATM    2  C   UNL     1      -1.185   6.790 -27.668  1.00  0.00     0.030 A 
HETATM    3  C   UNL     1      -0.395   7.277 -26.619  1.00  0.00     0.019 A 
HETATM    4  C   UNL     1       0.761   8.012 -26.894  1.00  0.00     0.032 A 
HETATM    5  C   UNL     1       1.151   8.211 -28.221  1.00  0.00     0.019 A 
HETATM    6  C   UNL     1       0.357   7.724 -29.265  1.00  0.00     0.030 A 
ENDROOT
BRANCH   4   7
HETATM    7  C   UNL     1       1.587   8.615 -25.811  1.00  0.00     0.251 C 
HETATM    8  N   UNL     1       0.937   9.517 -24.993  1.00  0.00    -0.357 N 
HETATM    9  H   UNL     1       0.057   9.893 -25.325  1.00  0.00     0.162 HD
HETATM   10  O   UNL     1       2.779   8.349 -25.719  1.00  0.00    -0.268 OA
BRANCH   8  11
HETATM   11  C   UNL     1       1.692  10.349 -24.074  1.00  0.00     0.127 C 
BRANCH  11  12
HETATM   12  C   UNL     1       1.910   9.681 -22.713  1.00  0.00     0.058 C 
BRANCH  12  13
HETATM   13  C   UNL     1       3.308   9.141 -22.493  1.00  0.00    -0.054 A 
HETATM   14  C   UNL     1       4.435   9.823 -22.976  1.00  0.00     0.046 A 
HETATM   15  C   UNL     1       5.727   9.317 -22.768  1.00  0.00     0.102 A 
HETATM   16  C   UNL     1       5.895   8.094 -22.091  1.00  0.00     0.101 A 
HETATM   17  C   UNL     1       4.772   7.411 -21.617  1.00  0.00     0.040 A 
HETATM   18  C   UNL     1       3.491   7.930 -21.817  1.00  0.00     0.010 A 
BRANCH  15  19
HETATM   19  O   UNL     1       6.877   9.930 -23.200  1.00  0.00    -0.353 OA
HETATM   20  C   UNL     1       7.227   9.788 -24.569  1.00  0.00     0.210 C 
ENDBRANCH  15  19
BRANCH  16  21
HETATM   21  O   UNL     1       7.189   7.662 -21.935  1.00  0.00    -0.353 OA
HETATM   22  C   UNL     1       7.454   6.286 -22.168  1.00  0.00     0.210 C 
ENDBRANCH  16  21
ENDBRANCH  12  13
ENDBRANCH  11  12
ENDBRANCH   8  11
ENDBRANCH   4   7
BRANCH   1  23
HETATM   23  N   UNL     1      -1.603   6.631 -30.103  1.00  0.00    -0.322 N 
HETATM   24  C   UNL     1      -1.405   5.550 -30.944  1.00  0.00     0.265 C 
HETATM   25  O   UNL     1      -0.441   4.794 -30.902  1.00  0.00    -0.267 OA
HETATM   26  H   UNL     1      -2.428   7.187 -30.305  1.00  0.00     0.169 HD
BRANCH  24  27
HETATM   27  C   UNL     1      -2.523   5.361 -31.967  1.00  0.00     0.097 C 
HETATM   28  C   UNL     1      -2.585   6.122 -33.089  1.00  0.00     0.064 C 
HETATM   29  C   UNL     1      -1.542   7.141 -33.472  1.00  0.00     0.078 C 
HETATM   30  O   UNL     1      -3.573   6.047 -34.060  1.00  0.00    -0.353 OA
HETATM   31  C   UNL     1      -4.794   5.409 -33.692  1.00  0.00     0.185 C 
HETATM   32  C   UNL     1      -4.549   4.003 -33.191  1.00  0.00     0.106 C 
HETATM   33  S   UNL     1      -3.691   4.105 -31.602  1.00  0.00    -0.120 SA
ENDBRANCH  24  27
ENDBRANCH   1  23
TORSDOF 8
ENDMDL
MODEL 7
REMARK VINA RESULT:      -7.5      1.162      2.037
REMARK  8 active torsions:
REMARK  status: ('A' for Active; 'I' for Inactive)
REMARK    1  A    between atoms: C_7  and  C_8 
REMARK       I    between atoms: C_8  and  N_9 
REMARK    2  A    between atoms: N_9  and  C_10 
REMARK    3  A    between atoms: C_13  and  C_14 
REMARK       I    between atoms: C_14  and  N_15 
REMARK    4  A    between atoms: N_15  and  C_16 
REMARK    5  A    between atoms: C_16  and  C_17 
REMARK    6  A    between atoms: C_17  and  C_18 
REMARK    7  A    between atoms: C_20  and  O_21 
REMARK    8  A    between atoms: C_23  and  O_24 
ROOT
HETATM    1  C   UNL     1      -3.810   5.054 -31.243  1.00  0.00     0.035 A 
HETATM    2  C   UNL     1      -5.157   5.402 -31.130  1.00  0.00     0.030 A 
HETATM    3  C   UNL     1      -6.130   4.745 -31.894  1.00  0.00     0.019 A 
HETATM    4  C   UNL     1      -5.760   3.727 -32.777  1.00  0.00     0.032 A 
HETATM    5  C   UNL     1      -4.407   3.407 -32.931  1.00  0.00     0.019 A 
HETATM    6  C   UNL     1      -3.440   4.065 -32.164  1.00  0.00     0.030 A 
ENDROOT
BRANCH   4   7
HETATM    7  C   UNL     1      -6.767   2.950 -33.549  1.00  0.00     0.251 C 
HETATM    8  N   UNL     1      -7.993   2.782 -32.936  1.00  0.00    -0.357 N 
HETATM    9  H   UNL     1      -8.041   2.961 -31.940  1.00  0.00     0.162 HD
HETATM   10  O   UNL     1      -6.474   2.454 -34.630  1.00  0.00    -0.268 OA
BRANCH   8  11
HETATM   11  C   UNL     1      -8.958   1.839 -33.473  1.00  0.00     0.127 C 
BRANCH  11  12
HETATM   12  C   UNL     1      -8.908   0.478 -32.773  1.00  0.00     0.058 C 
BRANCH  12  13
HETATM   13  C   UNL     1      -7.521  -0.120 -32.655  1.00  0.00    -0.054 A 
HETATM   14  C   UNL     1      -6.969  -0.886 -33.694  1.00  0.00     0.046 A 
HETATM   15  C   UNL     1      -5.685  -1.436 -33.578  1.00  0.00     0.102 A 
HETATM   16  C   UNL     1      -4.948  -1.241 -32.394  1.00  0.00     0.101 A 
HETATM   17  C   UNL     1      -5.500  -0.485 -31.357  1.00  0.00     0.040 A 
HETATM   18  C   UNL     1      -6.775   0.070 -31.487  1.00  0.00     0.010 A 
BRANCH  15  19
HETATM   19  O   UNL     1      -5.073  -2.186 -34.552  1.00  0.00    -0.353 OA
HETATM   20  C   UNL     1      -5.693  -3.406 -34.932  1.00  0.00     0.210 C 
ENDBRANCH  15  19
BRANCH  16  21
HETATM   21  O   UNL     1      -3.702  -1.818 -32.355  1.00  0.00    -0.353 OA
HETATM   22  C   UNL     1      -2.632  -1.033 -31.848  1.00  0.00     0.210 C 
ENDBRANCH  16  21
ENDBRANCH  12  13
ENDBRANCH  11  12
ENDBRANCH   8  11
ENDBRANCH   4   7
BRANCH   1  23
HETATM   23  N   UNL     1      -2.782   5.619 -30.463  1.00  0.00    -0.322 N 
HETATM   24  C   UNL     1      -1.675   6.330 -30.891  1.00  0.00     0.265 C 
HETATM   25  O   UNL     1      -1.365   6.511 -32.063  1.00  0.00    -0.267 OA
HETATM   26  H   UNL     1      -2.866   5.519 -29.457  1.00  0.00     0.169 HD
BRANCH  24  27
HETATM   27  C   UNL     1      -0.836   6.897 -29.748  1.00  0.00     0.097 C 
HETATM   28  C   UNL     1      -1.024   8.164 -29.300  1.00  0.00     0.064 C 
HETATM   29  C   UNL     1      -2.104   9.084 -29.810  1.00  0.00     0.078 C 
HETATM   30  O   UNL     1      -0.296   8.779 -28.291  1.00  0.00    -0.353 OA
HETATM   31  C   UNL     1       0.962   8.197 -27.956  1.00  0.00     0.185 C 
HETATM   32  C   UNL     1       0.810   6.741 -27.575  1.00  0.00     0.106 C 
HETATM   33  S   UNL     1       0.355   5.810 -29.058  1.00  0.00    -0.120 SA
ENDBRANCH  24  27
ENDBRANCH   1  23
TORSDOF 8
ENDMDL
MODEL 8
REMARK VINA RESULT:      -7.4      1.616      2.415
REMARK  8 active torsions:
REMARK  status: ('A' for Active; 'I' for Inactive)
REMARK    1  A    between atoms: C_7  and  C_8 
REMARK       I    between atoms: C_8  and  N_9 
REMARK    2  A    between atoms: N_9  and  C_10 
REMARK    3  A    between atoms: C_13  and  C_14 
REMARK       I    between atoms: C_14  and  N_15 
REMARK    4  A    between atoms: N_15  and  C_16 
REMARK    5  A    between atoms: C_16  and  C_17 
REMARK    6  A    between atoms: C_17  and  C_18 
REMARK    7  A    between atoms: C_20  and  O_21 
REMARK    8  A    between atoms: C_23  and  O_24 
ROOT
HETATM    1  C   UNL     1      -4.669   4.761 -31.171  1.00  0.00     0.035 A 
HETATM    2  C   UNL     1      -4.664   3.866 -32.242  1.00  0.00     0.030 A 
HETATM    3  C   UNL     1      -5.856   3.520 -32.889  1.00  0.00     0.019 A 
HETATM    4  C   UNL     1      -7.069   4.074 -32.468  1.00  0.00     0.032 A 
HETATM    5  C   UNL     1      -7.088   4.933 -31.365  1.00  0.00     0.019 A 
HETATM    6  C   UNL     1      -5.893   5.277 -30.724  1.00  0.00     0.030 A 
ENDROOT
BRANCH   4   7
HETATM    7  C   UNL     1      -8.349   3.796 -33.176  1.00  0.00     0.251 C 
HETATM    8  N   UNL     1      -9.175   2.865 -32.578  1.00  0.00    -0.357 N 
HETATM    9  H   UNL     1      -8.763   2.266 -31.872  1.00  0.00     0.162 HD
HETATM   10  O   UNL     1      -8.594   4.331 -34.250  1.00  0.00    -0.268 OA
BRANCH   8  11
HETATM   11  C   UNL     1     -10.318   2.331 -33.295  1.00  0.00     0.127 C 
BRANCH  11  12
HETATM   12  C   UNL     1     -10.163   0.844 -33.632  1.00  0.00     0.058 C 
BRANCH  12  13
HETATM   13  C   UNL     1      -8.730   0.356 -33.681  1.00  0.00    -0.054 A 
HETATM   14  C   UNL     1      -8.012   0.089 -32.506  1.00  0.00     0.046 A 
HETATM   15  C   UNL     1      -6.686  -0.364 -32.558  1.00  0.00     0.102 A 
HETATM   16  C   UNL     1      -6.055  -0.527 -33.807  1.00  0.00     0.101 A 
HETATM   17  C   UNL     1      -6.767  -0.253 -34.978  1.00  0.00     0.040 A 
HETATM   18  C   UNL     1      -8.092   0.184 -34.914  1.00  0.00     0.010 A 
BRANCH  15  19
HETATM   19  O   UNL     1      -5.922  -0.656 -31.455  1.00  0.00    -0.353 OA
HETATM   20  C   UNL     1      -5.628   0.404 -30.557  1.00  0.00     0.210 C 
ENDBRANCH  15  19
BRANCH  16  21
HETATM   21  O   UNL     1      -4.754  -0.965 -33.775  1.00  0.00    -0.353 OA
HETATM   22  C   UNL     1      -4.502  -2.302 -34.185  1.00  0.00     0.210 C 
ENDBRANCH  16  21
ENDBRANCH  12  13
ENDBRANCH  11  12
ENDBRANCH   8  11
ENDBRANCH   4   7
BRANCH   1  23
HETATM   23  N   UNL     1      -3.507   5.210 -30.514  1.00  0.00    -0.322 N 
HETATM   24  C   UNL     1      -2.747   6.332 -30.791  1.00  0.00     0.265 C 
HETATM   25  O   UNL     1      -2.928   7.088 -31.739  1.00  0.00    -0.267 OA
HETATM   26  H   UNL     1      -3.192   4.663 -29.720  1.00  0.00     0.169 HD
BRANCH  24  27
HETATM   27  C   UNL     1      -1.622   6.569 -29.786  1.00  0.00     0.097 C 
HETATM   28  C   UNL     1      -0.370   6.093 -30.006  1.00  0.00     0.064 C 
HETATM   29  C   UNL     1       0.046   5.376 -31.265  1.00  0.00     0.078 C 
HETATM   30  O   UNL     1       0.708   6.229 -29.143  1.00  0.00    -0.353 OA
HETATM   31  C   UNL     1       0.412   6.555 -27.787  1.00  0.00     0.185 C 
HETATM   32  C   UNL     1      -0.402   7.826 -27.691  1.00  0.00     0.106 C 
HETATM   33  S   UNL     1      -2.050   7.497 -28.360  1.00  0.00    -0.120 SA
ENDBRANCH  24  27
ENDBRANCH   1  23
TORSDOF 8
ENDMDL
MODEL 9
REMARK VINA RESULT:      -7.4      3.054     11.154
REMARK  8 active torsions:
REMARK  status: ('A' for Active; 'I' for Inactive)
REMARK    1  A    between atoms: C_7  and  C_8 
REMARK       I    between atoms: C_8  and  N_9 
REMARK    2  A    between atoms: N_9  and  C_10 
REMARK    3  A    between atoms: C_13  and  C_14 
REMARK       I    between atoms: C_14  and  N_15 
REMARK    4  A    between atoms: N_15  and  C_16 
REMARK    5  A    between atoms: C_16  and  C_17 
REMARK    6  A    between atoms: C_17  and  C_18 
REMARK    7  A    between atoms: C_20  and  O_21 
REMARK    8  A    between atoms: C_23  and  O_24 
ROOT
HETATM    1  C   UNL     1      -4.438   2.329 -32.188  1.00  0.00     0.035 A 
HETATM    2  C   UNL     1      -5.292   3.042 -31.346  1.00  0.00     0.030 A 
HETATM    3  C   UNL     1      -4.922   4.299 -30.851  1.00  0.00     0.019 A 
HETATM    4  C   UNL     1      -3.688   4.855 -31.202  1.00  0.00     0.032 A 
HETATM    5  C   UNL     1      -2.808   4.124 -32.005  1.00  0.00     0.019 A 
HETATM    6  C   UNL     1      -3.184   2.871 -32.498  1.00  0.00     0.030 A 
ENDROOT
BRANCH   4   7
HETATM    7  C   UNL     1      -3.287   6.220 -30.764  1.00  0.00     0.251 C 
HETATM    8  N   UNL     1      -2.572   6.286 -29.585  1.00  0.00    -0.357 N 
HETATM    9  H   UNL     1      -2.592   5.469 -28.985  1.00  0.00     0.162 HD
HETATM   10  O   UNL     1      -3.638   7.205 -31.402  1.00  0.00    -0.268 OA
BRANCH   8  11
HETATM   11  C   UNL     1      -2.348   7.564 -28.934  1.00  0.00     0.127 C 
BRANCH  11  12
HETATM   12  C   UNL     1      -0.948   8.126 -29.199  1.00  0.00     0.058 C 
BRANCH  12  13
HETATM   13  C   UNL     1      -0.172   8.496 -27.952  1.00  0.00    -0.054 A 
HETATM   14  C   UNL     1      -0.799   9.123 -26.865  1.00  0.00     0.046 A 
HETATM   15  C   UNL     1      -0.074   9.463 -25.713  1.00  0.00     0.102 A 
HETATM   16  C   UNL     1       1.308   9.198 -25.657  1.00  0.00     0.101 A 
HETATM   17  C   UNL     1       1.935   8.581 -26.743  1.00  0.00     0.040 A 
HETATM   18  C   UNL     1       1.201   8.234 -27.880  1.00  0.00     0.010 A 
BRANCH  15  19
HETATM   19  O   UNL     1      -0.617  10.067 -24.606  1.00  0.00    -0.353 OA
HETATM   20  C   UNL     1      -1.756   9.459 -24.015  1.00  0.00     0.210 C 
ENDBRANCH  15  19
BRANCH  16  21
HETATM   21  O   UNL     1       1.948   9.567 -24.500  1.00  0.00    -0.353 OA
HETATM   22  C   UNL     1       3.352   9.358 -24.431  1.00  0.00     0.210 C 
ENDBRANCH  16  21
ENDBRANCH  12  13
ENDBRANCH  11  12
ENDBRANCH   8  11
ENDBRANCH   4   7
BRANCH   1  23
HETATM   23  N   UNL     1      -4.766   1.094 -32.779  1.00  0.00    -0.322 N 
HETATM   24  C   UNL     1      -5.349  -0.012 -32.185  1.00  0.00     0.265 C 
HETATM   25  O   UNL     1      -5.602  -0.117 -30.990  1.00  0.00    -0.267 OA
HETATM   26  H   UNL     1      -4.577   0.998 -33.771  1.00  0.00     0.169 HD
BRANCH  24  27
HETATM   27  C   UNL     1      -5.670  -1.135 -33.169  1.00  0.00     0.097 C 
HETATM   28  C   UNL     1      -6.914  -1.278 -33.692  1.00  0.00     0.064 C 
HETATM   29  C   UNL     1      -8.050  -0.322 -33.429  1.00  0.00     0.078 C 
HETATM   30  O   UNL     1      -7.311  -2.278 -34.566  1.00  0.00    -0.353 OA
HETATM   31  C   UNL     1      -6.486  -3.440 -34.637  1.00  0.00     0.185 C 
HETATM   32  C   UNL     1      -5.059  -3.080 -34.984  1.00  0.00     0.106 C 
HETATM   33  S   UNL     1      -4.337  -2.198 -33.580  1.00  0.00    -0.120 SA
ENDBRANCH  24  27
ENDBRANCH   1  23
TORSDOF 8
ENDMDL
MODEL 10
REMARK VINA RESULT:      -7.2      2.660      9.265
REMARK  8 active torsions:
REMARK  status: ('A' for Active; 'I' for Inactive)
REMARK    1  A    between atoms: C_7  and  C_8 
REMARK       I    between atoms: C_8  and  N_9 
REMARK    2  A    between atoms: N_9  and  C_10 
REMARK    3  A    between atoms: C_13  and  C_14 
REMARK       I    between atoms: C_14  and  N_15 
REMARK    4  A    between atoms: N_15  and  C_16 
REMARK    5  A    between atoms: C_16  and  C_17 
REMARK    6  A    between atoms: C_17  and  C_18 
REMARK    7  A    between atoms: C_20  and  O_21 
REMARK    8  A    between atoms: C_23  and  O_24 
ROOT
HETATM    1  C   UNL     1      -5.145   2.596 -32.148  1.00  0.00     0.035 A 
HETATM    2  C   UNL     1      -3.947   3.258 -31.874  1.00  0.00     0.030 A 
HETATM    3  C   UNL     1      -3.948   4.495 -31.218  1.00  0.00     0.019 A 
HETATM    4  C   UNL     1      -5.156   5.079 -30.825  1.00  0.00     0.032 A 
HETATM    5  C   UNL     1      -6.361   4.446 -31.140  1.00  0.00     0.019 A 
HETATM    6  C   UNL     1      -6.354   3.210 -31.794  1.00  0.00     0.030 A 
ENDROOT
BRANCH   4   7
HETATM    7  C   UNL     1      -5.200   6.353 -30.056  1.00  0.00     0.251 C 
HETATM    8  N   UNL     1      -5.358   7.501 -30.805  1.00  0.00    -0.357 N 
HETATM    9  H   UNL     1      -5.179   7.433 -31.800  1.00  0.00     0.162 HD
HETATM   10  O   UNL     1      -5.041   6.351 -28.841  1.00  0.00    -0.268 OA
BRANCH   8  11
HETATM   11  C   UNL     1      -5.163   8.806 -30.199  1.00  0.00     0.127 C 
BRANCH  11  12
HETATM   12  C   UNL     1      -3.943   9.543 -30.760  1.00  0.00     0.058 C 
BRANCH  12  13
HETATM   13  C   UNL     1      -2.695   8.694 -30.881  1.00  0.00    -0.054 A 
HETATM   14  C   UNL     1      -2.259   8.215 -32.126  1.00  0.00     0.046 A 
HETATM   15  C   UNL     1      -1.102   7.430 -32.231  1.00  0.00     0.102 A 
HETATM   16  C   UNL     1      -0.382   7.093 -31.068  1.00  0.00     0.101 A 
HETATM   17  C   UNL     1      -0.820   7.563 -29.827  1.00  0.00     0.040 A 
HETATM   18  C   UNL     1      -1.966   8.356 -29.736  1.00  0.00     0.010 A 
BRANCH  15  19
HETATM   19  O   UNL     1      -0.607   6.933 -33.411  1.00  0.00    -0.353 OA
HETATM   20  C   UNL     1      -1.457   6.097 -34.183  1.00  0.00     0.210 C 
ENDBRANCH  15  19
BRANCH  16  21
HETATM   21  O   UNL     1       0.734   6.315 -31.253  1.00  0.00    -0.353 OA
HETATM   22  C   UNL     1       0.790   5.073 -30.563  1.00  0.00     0.210 C 
ENDBRANCH  16  21
ENDBRANCH  12  13
ENDBRANCH  11  12
ENDBRANCH   8  11
ENDBRANCH   4   7
BRANCH   1  23
HETATM   23  N   UNL     1      -5.224   1.322 -32.742  1.00  0.00    -0.322 N 
HETATM   24  C   UNL     1      -5.543   0.117 -32.143  1.00  0.00     0.265 C 
HETATM   25  O   UNL     1      -5.730  -0.044 -30.942  1.00  0.00    -0.267 OA
HETATM   26  H   UNL     1      -5.050   1.273 -33.741  1.00  0.00     0.169 HD
BRANCH  24  27
HETATM   27  C   UNL     1      -5.651  -1.044 -33.129  1.00  0.00     0.097 C 
HETATM   28  C   UNL     1      -6.817  -1.320 -33.766  1.00  0.00     0.064 C 
HETATM   29  C   UNL     1      -8.064  -0.482 -33.634  1.00  0.00     0.078 C 
HETATM   30  O   UNL     1      -7.023  -2.366 -34.653  1.00  0.00    -0.353 OA
HETATM   31  C   UNL     1      -6.084  -3.438 -34.618  1.00  0.00     0.185 C 
HETATM   32  C   UNL     1      -4.672  -2.939 -34.834  1.00  0.00     0.106 C 
HETATM   33  S   UNL     1      -4.184  -1.971 -33.386  1.00  0.00    -0.120 SA
ENDBRANCH  24  27
ENDBRANCH   1  23
TORSDOF 8
ENDMDL
