MODEL 1
REMARK VINA RESULT:      -7.3      0.000      0.000
REMARK  2 active torsions:
REMARK  status: ('A' for Active; 'I' for Inactive)
REMARK    1  A    between atoms: C_2  and  C_3 
REMARK    2  A    between atoms: C_4  and  N_5 
ROOT
HETATM    1  N   UNL     1      -4.986   0.496 -31.105  1.00  0.00    -0.321 N 
HETATM    2  C   UNL     1      -6.139   0.727 -30.285  1.00  0.00     0.141 C 
HETATM    3  N   UNL     1      -6.962  -0.228 -29.956  1.00  0.00    -0.380 N 
HETATM    4  H   UNL     1      -6.766  -1.170 -30.267  1.00  0.00     0.158 HD
HETATM    5  H   UNL     1      -7.774  -0.020 -29.393  1.00  0.00     0.158 HD
HETATM    6  S   UNL     1      -6.356   2.384 -29.851  1.00  0.00    -0.086 SA
HETATM    7  C   UNL     1      -5.271   2.879 -31.229  1.00  0.00     0.093 C 
HETATM    8  C   UNL     1      -4.224   1.747 -31.287  1.00  0.00     0.121 C 
HETATM    9  C   UNL     1      -4.468   4.156 -31.183  1.00  0.00     0.158 C 
HETATM   10  S   UNL     1      -3.177   3.816 -32.399  1.00  0.00     0.147 S 
HETATM   11  O   UNL     1      -3.552   4.435 -33.653  1.00  0.00    -0.228 OA
HETATM   12  O   UNL     1      -1.893   4.040 -31.770  1.00  0.00    -0.228 OA
HETATM   13  C   UNL     1      -3.438   2.037 -32.544  1.00  0.00     0.167 C 
ENDROOT
BRANCH   1  14
HETATM   14  C   UNL     1      -4.889  -0.503 -32.083  1.00  0.00     0.043 A 
HETATM   15  C   UNL     1      -5.749  -0.597 -33.196  1.00  0.00    -0.028 A 
HETATM   16  C   UNL     1      -5.525  -1.654 -34.113  1.00  0.00     0.010 A 
HETATM   17  C   UNL     1      -4.494  -2.578 -33.951  1.00  0.00     0.001 A 
HETATM   18  C   UNL     1      -3.644  -2.469 -32.865  1.00  0.00     0.002 A 
HETATM   19  C   UNL     1      -3.840  -1.441 -31.946  1.00  0.00     0.030 A 
BRANCH  15  20
HETATM   20  C   UNL     1      -6.888   0.352 -33.576  1.00  0.00     0.013 C 
HETATM   21  C   UNL     1      -8.316  -0.039 -33.198  1.00  0.00     0.015 C 
HETATM   22  C   UNL     1      -6.826   0.720 -35.064  1.00  0.00     0.015 C 
ENDBRANCH  15  20
ENDBRANCH   1  14
TORSDOF 2
ENDMDL
MODEL 2
REMARK VINA RESULT:      -7.3      1.892      2.343
REMARK  2 active torsions:
REMARK  status: ('A' for Active; 'I' for Inactive)
REMARK    1  A    between atoms: C_2  and  C_3 
REMARK    2  A    between atoms: C_4  and  N_5 
ROOT
HETATM    1  N   UNL     1      -6.001   1.257 -31.834  1.00  0.00    -0.321 N 
HETATM    2  C   UNL     1      -6.486   1.226 -30.485  1.00  0.00     0.141 C 
HETATM    3  N   UNL     1      -6.637   0.112 -29.826  1.00  0.00    -0.380 N 
HETATM    4  H   UNL     1      -6.376  -0.758 -30.271  1.00  0.00     0.158 HD
HETATM    5  H   UNL     1      -7.000   0.131 -28.884  1.00  0.00     0.158 HD
HETATM    6  S   UNL     1      -6.911   2.781 -29.868  1.00  0.00    -0.086 SA
HETATM    7  C   UNL     1      -7.017   3.420 -31.571  1.00  0.00     0.093 C 
HETATM    8  C   UNL     1      -5.905   2.650 -32.314  1.00  0.00     0.121 C 
HETATM    9  C   UNL     1      -6.767   4.875 -31.887  1.00  0.00     0.158 C 
HETATM   10  S   UNL     1      -6.369   4.801 -33.647  1.00  0.00     0.147 S 
HETATM   11  O   UNL     1      -7.557   5.137 -34.401  1.00  0.00    -0.228 OA
HETATM   12  O   UNL     1      -5.099   5.463 -33.852  1.00  0.00    -0.228 OA
HETATM   13  C   UNL     1      -6.108   3.019 -33.764  1.00  0.00     0.167 C 
ENDROOT
BRANCH   1  14
HETATM   14  C   UNL     1      -6.179   0.230 -32.771  1.00  0.00     0.043 A 
HETATM   15  C   UNL     1      -7.424  -0.105 -33.340  1.00  0.00    -0.028 A 
HETATM   16  C   UNL     1      -7.453  -1.161 -34.286  1.00  0.00     0.010 A 
HETATM   17  C   UNL     1      -6.305  -1.854 -34.665  1.00  0.00     0.001 A 
HETATM   18  C   UNL     1      -5.084  -1.508 -34.114  1.00  0.00     0.002 A 
HETATM   19  C   UNL     1      -5.024  -0.476 -33.181  1.00  0.00     0.030 A 
BRANCH  15  20
HETATM   20  C   UNL     1      -8.772   0.578 -33.100  1.00  0.00     0.013 C 
HETATM   21  C   UNL     1      -9.928  -0.265 -32.560  1.00  0.00     0.015 C 
HETATM   22  C   UNL     1      -9.229   1.350 -34.345  1.00  0.00     0.015 C 
ENDBRANCH  15  20
ENDBRANCH   1  14
TORSDOF 2
ENDMDL
MODEL 3
REMARK VINA RESULT:      -7.1      0.785      2.598
REMARK  2 active torsions:
REMARK  status: ('A' for Active; 'I' for Inactive)
REMARK    1  A    between atoms: C_2  and  C_3 
REMARK    2  A    between atoms: C_4  and  N_5 
ROOT
HETATM    1  N   UNL     1      -5.267   0.627 -31.469  1.00  0.00    -0.321 N 
HETATM    2  C   UNL     1      -6.339   0.851 -30.543  1.00  0.00     0.141 C 
HETATM    3  N   UNL     1      -7.219  -0.068 -30.263  1.00  0.00    -0.380 N 
HETATM    4  H   UNL     1      -7.128  -0.979 -30.692  1.00  0.00     0.158 HD
HETATM    5  H   UNL     1      -7.971   0.136 -29.620  1.00  0.00     0.158 HD
HETATM    6  S   UNL     1      -6.380   2.457 -29.910  1.00  0.00    -0.086 SA
HETATM    7  C   UNL     1      -5.349   3.024 -31.301  1.00  0.00     0.093 C 
HETATM    8  C   UNL     1      -4.412   1.827 -31.565  1.00  0.00     0.121 C 
HETATM    9  C   UNL     1      -4.436   4.219 -31.172  1.00  0.00     0.158 C 
HETATM   10  S   UNL     1      -3.263   3.924 -32.514  1.00  0.00     0.147 S 
HETATM   11  O   UNL     1      -3.664   4.715 -33.657  1.00  0.00    -0.228 OA
HETATM   12  O   UNL     1      -1.925   3.968 -31.963  1.00  0.00    -0.228 OA
HETATM   13  C   UNL     1      -3.689   2.201 -32.838  1.00  0.00     0.167 C 
ENDROOT
BRANCH   1  14
HETATM   14  C   UNL     1      -5.324  -0.252 -32.558  1.00  0.00     0.043 A 
HETATM   15  C   UNL     1      -4.467  -1.360 -32.718  1.00  0.00    -0.028 A 
HETATM   16  C   UNL     1      -4.648  -2.172 -33.866  1.00  0.00     0.010 A 
HETATM   17  C   UNL     1      -5.636  -1.914 -34.814  1.00  0.00     0.001 A 
HETATM   18  C   UNL     1      -6.484  -0.835 -34.641  1.00  0.00     0.002 A 
HETATM   19  C   UNL     1      -6.330  -0.017 -33.524  1.00  0.00     0.030 A 
BRANCH  15  20
HETATM   20  C   UNL     1      -3.374  -1.838 -31.759  1.00  0.00     0.013 C 
HETATM   21  C   UNL     1      -2.071  -1.042 -31.688  1.00  0.00     0.015 C 
HETATM   22  C   UNL     1      -3.063  -3.325 -31.975  1.00  0.00     0.015 C 
ENDBRANCH  15  20
ENDBRANCH   1  14
TORSDOF 2
ENDMDL
MODEL 4
REMARK VINA RESULT:      -6.6      2.326      3.455
REMARK  2 active torsions:
REMARK  status: ('A' for Active; 'I' for Inactive)
REMARK    1  A    between atoms: C_2  and  C_3 
REMARK    2  A    between atoms: C_4  and  N_5 
ROOT
HETATM    1  N   UNL     1      -7.399   2.366 -32.594  1.00  0.00    -0.321 N 
HETATM    2  C   UNL     1      -8.702   2.887 -32.300  1.00  0.00     0.141 C 
HETATM    3  N   UNL     1      -9.740   2.115 -32.140  1.00  0.00    -0.380 N 
HETATM    4  H   UNL     1      -9.617   1.113 -32.198  1.00  0.00     0.158 HD
HETATM    5  H   UNL     1     -10.645   2.522 -31.953  1.00  0.00     0.158 HD
HETATM    6  S   UNL     1      -8.762   4.612 -32.255  1.00  0.00    -0.086 SA
HETATM    7  C   UNL     1      -7.209   4.683 -33.206  1.00  0.00     0.093 C 
HETATM    8  C   UNL     1      -6.416   3.464 -32.691  1.00  0.00     0.121 C 
HETATM    9  C   UNL     1      -6.260   5.851 -33.083  1.00  0.00     0.158 C 
HETATM   10  S   UNL     1      -4.715   5.125 -33.673  1.00  0.00     0.147 S 
HETATM   11  O   UNL     1      -4.534   5.493 -35.060  1.00  0.00    -0.228 OA
HETATM   12  O   UNL     1      -3.699   5.346 -32.666  1.00  0.00    -0.228 OA
HETATM   13  C   UNL     1      -5.216   3.393 -33.606  1.00  0.00     0.167 C 
ENDROOT
BRANCH   1  14
HETATM   14  C   UNL     1      -7.154   1.176 -33.291  1.00  0.00     0.043 A 
HETATM   15  C   UNL     1      -6.289   0.161 -32.832  1.00  0.00    -0.028 A 
HETATM   16  C   UNL     1      -6.147  -0.997 -33.637  1.00  0.00     0.010 A 
HETATM   17  C   UNL     1      -6.832  -1.159 -34.840  1.00  0.00     0.001 A 
HETATM   18  C   UNL     1      -7.692  -0.166 -35.275  1.00  0.00     0.002 A 
HETATM   19  C   UNL     1      -7.851   0.985 -34.506  1.00  0.00     0.030 A 
BRANCH  15  20
HETATM   20  C   UNL     1      -5.506   0.129 -31.517  1.00  0.00     0.013 C 
HETATM   21  C   UNL     1      -4.243  -0.728 -31.445  1.00  0.00     0.015 C 
HETATM   22  C   UNL     1      -6.427  -0.202 -30.335  1.00  0.00     0.015 C 
ENDBRANCH  15  20
ENDBRANCH   1  14
TORSDOF 2
ENDMDL
MODEL 5
REMARK VINA RESULT:      -6.6      4.026      5.492
REMARK  2 active torsions:
REMARK  status: ('A' for Active; 'I' for Inactive)
REMARK    1  A    between atoms: C_2  and  C_3 
REMARK    2  A    between atoms: C_4  and  N_5 
ROOT
HETATM    1  N   UNL     1      -9.741   1.650 -33.111  1.00  0.00    -0.321 N 
HETATM    2  C   UNL     1     -11.031   1.023 -33.141  1.00  0.00     0.141 C 
HETATM    3  N   UNL     1     -11.182  -0.263 -32.996  1.00  0.00    -0.380 N 
HETATM    4  H   UNL     1     -10.365  -0.835 -32.829  1.00  0.00     0.158 HD
HETATM    5  H   UNL     1     -12.106  -0.668 -33.043  1.00  0.00     0.158 HD
HETATM    6  S   UNL     1     -12.324   2.121 -33.457  1.00  0.00    -0.086 SA
HETATM    7  C   UNL     1     -11.132   3.318 -34.142  1.00  0.00     0.093 C 
HETATM    8  C   UNL     1      -9.876   3.112 -33.270  1.00  0.00     0.121 C 
HETATM    9  C   UNL     1     -11.396   4.804 -34.108  1.00  0.00     0.158 C 
HETATM   10  S   UNL     1      -9.727   5.472 -34.283  1.00  0.00     0.147 S 
HETATM   11  O   UNL     1      -9.519   5.830 -35.669  1.00  0.00    -0.228 OA
HETATM   12  O   UNL     1      -9.493   6.395 -33.192  1.00  0.00    -0.228 OA
HETATM   13  C   UNL     1      -8.818   3.950 -33.947  1.00  0.00     0.167 C 
ENDROOT
BRANCH   1  14
HETATM   14  C   UNL     1      -8.545   1.035 -33.503  1.00  0.00     0.043 A 
HETATM   15  C   UNL     1      -7.475   0.768 -32.625  1.00  0.00    -0.028 A 
HETATM   16  C   UNL     1      -6.329   0.127 -33.160  1.00  0.00     0.010 A 
HETATM   17  C   UNL     1      -6.239  -0.245 -34.500  1.00  0.00     0.001 A 
HETATM   18  C   UNL     1      -7.300   0.005 -35.351  1.00  0.00     0.002 A 
HETATM   19  C   UNL     1      -8.439   0.635 -34.856  1.00  0.00     0.030 A 
BRANCH  15  20
HETATM   20  C   UNL     1      -7.414   1.041 -31.121  1.00  0.00     0.013 C 
HETATM   21  C   UNL     1      -7.197   2.480 -30.652  1.00  0.00     0.015 C 
HETATM   22  C   UNL     1      -6.406   0.112 -30.431  1.00  0.00     0.015 C 
ENDBRANCH  15  20
ENDBRANCH   1  14
TORSDOF 2
ENDMDL
MODEL 6
REMARK VINA RESULT:      -6.4     15.269     16.882
REMARK  2 active torsions:
REMARK  status: ('A' for Active; 'I' for Inactive)
REMARK    1  A    between atoms: C_2  and  C_3 
REMARK    2  A    between atoms: C_4  and  N_5 
ROOT
HETATM    1  N   UNL     1      -7.450 -12.563 -39.304  1.00  0.00    -0.321 N 
HETATM    2  C   UNL     1      -6.263 -12.322 -40.073  1.00  0.00     0.141 C 
HETATM    3  N   UNL     1      -6.304 -12.041 -41.345  1.00  0.00    -0.380 N 
HETATM    4  H   UNL     1      -7.203 -11.963 -41.800  1.00  0.00     0.158 HD
HETATM    5  H   UNL     1      -5.444 -11.897 -41.855  1.00  0.00     0.158 HD
HETATM    6  S   UNL     1      -4.805 -12.512 -39.169  1.00  0.00    -0.086 SA
HETATM    7  C   UNL     1      -5.712 -13.489 -37.926  1.00  0.00     0.093 C 
HETATM    8  C   UNL     1      -7.104 -12.825 -37.893  1.00  0.00     0.121 C 
HETATM    9  C   UNL     1      -5.267 -13.542 -36.485  1.00  0.00     0.158 C 
HETATM   10  S   UNL     1      -6.788 -14.052 -35.655  1.00  0.00     0.147 S 
HETATM   11  O   UNL     1      -6.730 -15.480 -35.426  1.00  0.00    -0.228 OA
HETATM   12  O   UNL     1      -7.067 -13.101 -34.599  1.00  0.00    -0.228 OA
HETATM   13  C   UNL     1      -7.927 -13.740 -37.018  1.00  0.00     0.167 C 
ENDROOT
BRANCH   1  14
HETATM   14  C   UNL     1      -8.640 -13.094 -39.819  1.00  0.00     0.043 A 
HETATM   15  C   UNL     1      -8.762 -14.406 -40.319  1.00  0.00    -0.028 A 
HETATM   16  C   UNL     1     -10.034 -14.813 -40.797  1.00  0.00     0.010 A 
HETATM   17  C   UNL     1     -11.143 -13.969 -40.778  1.00  0.00     0.001 A 
HETATM   18  C   UNL     1     -11.019 -12.688 -40.270  1.00  0.00     0.002 A 
HETATM   19  C   UNL     1      -9.782 -12.260 -39.794  1.00  0.00     0.030 A 
BRANCH  15  20
HETATM   20  C   UNL     1      -7.683 -15.490 -40.362  1.00  0.00     0.013 C 
HETATM   21  C   UNL     1      -7.034 -15.816 -41.708  1.00  0.00     0.015 C 
HETATM   22  C   UNL     1      -8.172 -16.783 -39.695  1.00  0.00     0.015 C 
ENDBRANCH  15  20
ENDBRANCH   1  14
TORSDOF 2
ENDMDL
MODEL 7
REMARK VINA RESULT:      -6.4      2.158      3.753
REMARK  2 active torsions:
REMARK  status: ('A' for Active; 'I' for Inactive)
REMARK    1  A    between atoms: C_2  and  C_3 
REMARK    2  A    between atoms: C_4  and  N_5 
ROOT
HETATM    1  N   UNL     1      -6.292   1.582 -32.635  1.00  0.00    -0.321 N 
HETATM    2  C   UNL     1      -5.558   0.993 -31.552  1.00  0.00     0.141 C 
HETATM    3  N   UNL     1      -6.014  -0.022 -30.874  1.00  0.00    -0.380 N 
HETATM    4  H   UNL     1      -6.903  -0.426 -31.137  1.00  0.00     0.158 HD
HETATM    5  H   UNL     1      -5.475  -0.395 -30.106  1.00  0.00     0.158 HD
HETATM    6  S   UNL     1      -4.074   1.803 -31.204  1.00  0.00    -0.086 SA
HETATM    7  C   UNL     1      -4.680   3.279 -32.084  1.00  0.00     0.093 C 
HETATM    8  C   UNL     1      -5.522   2.690 -33.235  1.00  0.00     0.121 C 
HETATM    9  C   UNL     1      -3.733   4.249 -32.746  1.00  0.00     0.158 C 
HETATM   10  S   UNL     1      -4.821   5.063 -33.936  1.00  0.00     0.147 S 
HETATM   11  O   UNL     1      -5.260   6.321 -33.371  1.00  0.00    -0.228 OA
HETATM   12  O   UNL     1      -4.213   4.963 -35.246  1.00  0.00    -0.228 OA
HETATM   13  C   UNL     1      -6.192   3.894 -33.854  1.00  0.00     0.167 C 
ENDROOT
BRANCH   1  14
HETATM   14  C   UNL     1      -7.689   1.595 -32.738  1.00  0.00     0.043 A 
HETATM   15  C   UNL     1      -8.420   0.764 -33.611  1.00  0.00    -0.028 A 
HETATM   16  C   UNL     1      -9.833   0.877 -33.599  1.00  0.00     0.010 A 
HETATM   17  C   UNL     1     -10.504   1.764 -32.759  1.00  0.00     0.001 A 
HETATM   18  C   UNL     1      -9.780   2.564 -31.893  1.00  0.00     0.002 A 
HETATM   19  C   UNL     1      -8.391   2.477 -31.883  1.00  0.00     0.030 A 
BRANCH  15  20
HETATM   20  C   UNL     1      -7.870  -0.308 -34.554  1.00  0.00     0.013 C 
HETATM   21  C   UNL     1      -7.137  -1.504 -33.946  1.00  0.00     0.015 C 
HETATM   22  C   UNL     1      -7.011   0.319 -35.661  1.00  0.00     0.015 C 
ENDBRANCH  15  20
ENDBRANCH   1  14
TORSDOF 2
ENDMDL
MODEL 8
REMARK VINA RESULT:      -6.4     15.286     17.049
REMARK  2 active torsions:
REMARK  status: ('A' for Active; 'I' for Inactive)
REMARK    1  A    between atoms: C_2  and  C_3 
REMARK    2  A    between atoms: C_4  and  N_5 
ROOT
HETATM    1  N   UNL     1      -6.305 -13.986 -40.489  1.00  0.00    -0.321 N 
HETATM    2  C   UNL     1      -5.956 -15.212 -41.146  1.00  0.00     0.141 C 
HETATM    3  N   UNL     1      -6.803 -15.868 -41.888  1.00  0.00    -0.380 N 
HETATM    4  H   UNL     1      -7.728 -15.486 -42.028  1.00  0.00     0.158 HD
HETATM    5  H   UNL     1      -6.524 -16.738 -42.318  1.00  0.00     0.158 HD
HETATM    6  S   UNL     1      -4.354 -15.751 -40.796  1.00  0.00    -0.086 SA
HETATM    7  C   UNL     1      -4.328 -14.689 -39.315  1.00  0.00     0.093 C 
HETATM    8  C   UNL     1      -5.145 -13.453 -39.746  1.00  0.00     0.121 C 
HETATM    9  C   UNL     1      -3.037 -14.134 -38.764  1.00  0.00     0.158 C 
HETATM   10  S   UNL     1      -3.630 -12.729 -37.797  1.00  0.00     0.147 S 
HETATM   11  O   UNL     1      -3.717 -13.129 -36.409  1.00  0.00    -0.228 OA
HETATM   12  O   UNL     1      -2.911 -11.548 -38.227  1.00  0.00    -0.228 OA
HETATM   13  C   UNL     1      -5.301 -12.655 -38.473  1.00  0.00     0.167 C 
ENDROOT
BRANCH   1  14
HETATM   14  C   UNL     1      -7.596 -13.649 -40.060  1.00  0.00     0.043 A 
HETATM   15  C   UNL     1      -8.320 -14.383 -39.099  1.00  0.00    -0.028 A 
HETATM   16  C   UNL     1      -9.613 -13.917 -38.751  1.00  0.00     0.010 A 
HETATM   17  C   UNL     1     -10.171 -12.772 -39.318  1.00  0.00     0.001 A 
HETATM   18  C   UNL     1      -9.447 -12.048 -40.248  1.00  0.00     0.002 A 
HETATM   19  C   UNL     1      -8.174 -12.482 -40.610  1.00  0.00     0.030 A 
BRANCH  15  20
HETATM   20  C   UNL     1      -7.854 -15.619 -38.325  1.00  0.00     0.013 C 
HETATM   21  C   UNL     1      -8.770 -16.842 -38.289  1.00  0.00     0.015 C 
HETATM   22  C   UNL     1      -7.425 -15.248 -36.899  1.00  0.00     0.015 C 
ENDBRANCH  15  20
ENDBRANCH   1  14
TORSDOF 2
ENDMDL
MODEL 9
REMARK VINA RESULT:      -6.3      3.775      5.097
REMARK  2 active torsions:
REMARK  status: ('A' for Active; 'I' for Inactive)
REMARK    1  A    between atoms: C_2  and  C_3 
REMARK    2  A    between atoms: C_4  and  N_5 
ROOT
HETATM    1  N   UNL     1      -7.694   2.804 -31.719  1.00  0.00    -0.321 N 
HETATM    2  C   UNL     1      -8.135   3.108 -30.388  1.00  0.00     0.141 C 
HETATM    3  N   UNL     1      -7.369   2.942 -29.347  1.00  0.00    -0.380 N 
HETATM    4  H   UNL     1      -6.422   2.614 -29.484  1.00  0.00     0.158 HD
HETATM    5  H   UNL     1      -7.724   3.149 -28.425  1.00  0.00     0.158 HD
HETATM    6  S   UNL     1      -9.777   3.634 -30.309  1.00  0.00    -0.086 SA
HETATM    7  C   UNL     1     -10.086   2.896 -31.946  1.00  0.00     0.093 C 
HETATM    8  C   UNL     1      -8.756   3.117 -32.696  1.00  0.00     0.121 C 
HETATM    9  C   UNL     1     -11.153   3.435 -32.867  1.00  0.00     0.158 C 
HETATM   10  S   UNL     1     -10.595   2.814 -34.469  1.00  0.00     0.147 S 
HETATM   11  O   UNL     1     -11.338   1.612 -34.780  1.00  0.00    -0.228 OA
HETATM   12  O   UNL     1     -10.502   3.934 -35.381  1.00  0.00    -0.228 OA
HETATM   13  C   UNL     1      -8.925   2.338 -33.980  1.00  0.00     0.167 C 
ENDROOT
BRANCH   1  14
HETATM   14  C   UNL     1      -6.746   1.824 -32.041  1.00  0.00     0.043 A 
HETATM   15  C   UNL     1      -5.463   2.111 -32.550  1.00  0.00    -0.028 A 
HETATM   16  C   UNL     1      -4.601   1.017 -32.819  1.00  0.00     0.010 A 
HETATM   17  C   UNL     1      -4.980  -0.304 -32.590  1.00  0.00     0.001 A 
HETATM   18  C   UNL     1      -6.235  -0.577 -32.075  1.00  0.00     0.002 A 
HETATM   19  C   UNL     1      -7.104   0.477 -31.802  1.00  0.00     0.030 A 
BRANCH  15  20
HETATM   20  C   UNL     1      -4.849   3.489 -32.804  1.00  0.00     0.013 C 
HETATM   21  C   UNL     1      -5.267   4.250 -34.062  1.00  0.00     0.015 C 
HETATM   22  C   UNL     1      -3.318   3.437 -32.714  1.00  0.00     0.015 C 
ENDBRANCH  15  20
ENDBRANCH   1  14
TORSDOF 2
ENDMDL
MODEL 10
REMARK VINA RESULT:      -6.2      3.421      4.731
REMARK  2 active torsions:
REMARK  status: ('A' for Active; 'I' for Inactive)
REMARK    1  A    between atoms: C_2  and  C_3 
REMARK    2  A    between atoms: C_4  and  N_5 
ROOT
HETATM    1  N   UNL     1      -6.056   2.809 -33.170  1.00  0.00    -0.321 N 
HETATM    2  C   UNL     1      -5.051   3.831 -33.208  1.00  0.00     0.141 C 
HETATM    3  N   UNL     1      -3.821   3.611 -32.840  1.00  0.00    -0.380 N 
HETATM    4  H   UNL     1      -3.559   2.681 -32.543  1.00  0.00     0.158 HD
HETATM    5  H   UNL     1      -3.148   4.363 -32.864  1.00  0.00     0.158 HD
HETATM    6  S   UNL     1      -5.651   5.369 -33.713  1.00  0.00    -0.086 SA
HETATM    7  C   UNL     1      -7.345   4.833 -33.310  1.00  0.00     0.093 C 
HETATM    8  C   UNL     1      -7.343   3.333 -33.670  1.00  0.00     0.121 C 
HETATM    9  C   UNL     1      -8.546   5.407 -34.021  1.00  0.00     0.158 C 
HETATM   10  S   UNL     1      -9.788   4.129 -33.724  1.00  0.00     0.147 S 
HETATM   11  O   UNL     1     -10.612   4.540 -32.608  1.00  0.00    -0.228 OA
HETATM   12  O   UNL     1     -10.342   3.732 -35.001  1.00  0.00    -0.228 OA
HETATM   13  C   UNL     1      -8.672   2.830 -33.158  1.00  0.00     0.167 C 
ENDROOT
BRANCH   1  14
HETATM   14  C   UNL     1      -6.068   1.734 -32.270  1.00  0.00     0.043 A 
HETATM   15  C   UNL     1      -6.018   0.381 -32.662  1.00  0.00    -0.028 A 
HETATM   16  C   UNL     1      -6.023  -0.601 -31.640  1.00  0.00     0.010 A 
HETATM   17  C   UNL     1      -6.067  -0.270 -30.287  1.00  0.00     0.001 A 
HETATM   18  C   UNL     1      -6.100   1.061 -29.909  1.00  0.00     0.002 A 
HETATM   19  C   UNL     1      -6.097   2.049 -30.891  1.00  0.00     0.030 A 
BRANCH  15  20
HETATM   20  C   UNL     1      -5.901  -0.172 -34.084  1.00  0.00     0.013 C 
HETATM   21  C   UNL     1      -7.141  -0.146 -34.977  1.00  0.00     0.015 C 
HETATM   22  C   UNL     1      -5.294  -1.582 -34.079  1.00  0.00     0.015 C 
ENDBRANCH  15  20
ENDBRANCH   1  14
TORSDOF 2
ENDMDL
