MODEL 1
REMARK VINA RESULT:      -7.7      0.000      0.000
REMARK  6 active torsions:
REMARK  status: ('A' for Active; 'I' for Inactive)
REMARK    1  A    between atoms: O_2  and  C_3 
REMARK    2  A    between atoms: C_3  and  C_4 
REMARK    3  A    between atoms: C_4  and  N_5 
REMARK       I    between atoms: N_5  and  C_6 
REMARK    4  A    between atoms: C_6  and  C_7 
REMARK    5  A    between atoms: C_12  and  C_13 
REMARK    6  A    between atoms: C_21  and  C_22 
ROOT
HETATM    1  C   UNL     1     -10.103   1.184 -33.069  1.00  0.00     0.170 A 
HETATM    2  N   UNL     1      -9.161   0.221 -33.233  1.00  0.00    -0.163 NA
HETATM    3  N   UNL     1      -8.198   0.563 -32.361  1.00  0.00    -0.238 N 
HETATM    4  C   UNL     1      -8.494   1.665 -31.608  1.00  0.00     0.145 A 
HETATM    5  N   UNL     1      -7.640   2.118 -30.655  1.00  0.00    -0.365 N 
HETATM    6  C   UNL     1      -6.266   1.633 -30.571  1.00  0.00     0.118 C 
HETATM    7  C   UNL     1      -6.247   0.131 -30.920  1.00  0.00     0.066 C 
HETATM    8  C   UNL     1      -6.984  -0.221 -32.229  1.00  0.00     0.221 C 
HETATM    9  C   UNL     1      -9.724   2.098 -32.047  1.00  0.00     0.115 A 
HETATM   10 CL   UNL     1     -10.578   3.452 -31.484  1.00  0.00    -0.077 Cl
HETATM   11  H   UNL     1      -7.820   3.010 -30.195  1.00  0.00     0.162 HD
ENDROOT
BRANCH   1  12
HETATM   12  C   UNL     1     -11.316   1.203 -33.902  1.00  0.00     0.273 C 
HETATM   13  N   UNL     1     -12.357   0.471 -33.370  1.00  0.00    -0.353 N 
HETATM   14  H   UNL     1     -12.121  -0.105 -32.565  1.00  0.00     0.162 HD
HETATM   15  O   UNL     1     -11.396   1.785 -34.980  1.00  0.00    -0.266 OA
BRANCH  13  16
HETATM   16  C   UNL     1     -13.561   0.180 -34.120  1.00  0.00     0.149 C 
BRANCH  16  17
HETATM   17  C   UNL     1     -14.669   1.203 -33.862  1.00  0.00     0.186 C 
BRANCH  17  18
HETATM   18  O   UNL     1     -14.479   1.783 -32.566  1.00  0.00    -0.394 OA
HETATM   19  C   UNL     1     -15.710   2.229 -32.011  1.00  0.00     0.201 C 
ENDBRANCH  17  18
ENDBRANCH  16  17
ENDBRANCH  13  16
ENDBRANCH   1  12
BRANCH   8  20
HETATM   20  C   UNL     1      -6.126  -0.080 -33.468  1.00  0.00     0.409 C 
HETATM   21  F   UNL     1      -6.264   1.103 -34.094  1.00  0.00    -0.169 F 
HETATM   22  F   UNL     1      -4.813  -0.208 -33.141  1.00  0.00    -0.169 F 
HETATM   23  F   UNL     1      -6.384  -1.051 -34.374  1.00  0.00    -0.169 F 
ENDBRANCH   8  20
BRANCH   6  24
HETATM   24  C   UNL     1      -5.279   2.494 -31.347  1.00  0.00    -0.035 A 
HETATM   25  C   UNL     1      -5.682   3.549 -32.187  1.00  0.00     0.011 A 
HETATM   26  C   UNL     1      -4.745   4.319 -32.883  1.00  0.00     0.024 A 
HETATM   27  C   UNL     1      -3.388   4.052 -32.742  1.00  0.00     0.034 A 
HETATM   28 CL   UNL     1      -2.235   4.994 -33.602  1.00  0.00    -0.084 Cl
HETATM   29  C   UNL     1      -2.961   3.028 -31.903  1.00  0.00     0.024 A 
HETATM   30  C   UNL     1      -3.899   2.260 -31.206  1.00  0.00     0.011 A 
ENDBRANCH   6  24
TORSDOF 6
ENDMDL
MODEL 2
REMARK VINA RESULT:      -7.4      2.921      4.293
REMARK  6 active torsions:
REMARK  status: ('A' for Active; 'I' for Inactive)
REMARK    1  A    between atoms: O_2  and  C_3 
REMARK    2  A    between atoms: C_3  and  C_4 
REMARK    3  A    between atoms: C_4  and  N_5 
REMARK       I    between atoms: N_5  and  C_6 
REMARK    4  A    between atoms: C_6  and  C_7 
REMARK    5  A    between atoms: C_12  and  C_13 
REMARK    6  A    between atoms: C_21  and  C_22 
ROOT
HETATM    1  C   UNL     1      -9.371   3.042 -31.848  1.00  0.00     0.170 A 
HETATM    2  N   UNL     1      -8.400   2.618 -31.000  1.00  0.00    -0.163 NA
HETATM    3  N   UNL     1      -7.403   2.240 -31.816  1.00  0.00    -0.238 N 
HETATM    4  C   UNL     1      -7.659   2.448 -33.143  1.00  0.00     0.145 A 
HETATM    5  N   UNL     1      -6.737   2.153 -34.093  1.00  0.00    -0.365 N 
HETATM    6  C   UNL     1      -5.553   1.358 -33.786  1.00  0.00     0.118 C 
HETATM    7  C   UNL     1      -5.058   1.729 -32.373  1.00  0.00     0.066 C 
HETATM    8  C   UNL     1      -6.159   1.704 -31.294  1.00  0.00     0.221 C 
HETATM    9  C   UNL     1      -8.934   2.963 -33.200  1.00  0.00     0.115 A 
HETATM   10 CL   UNL     1      -9.789   3.388 -34.603  1.00  0.00    -0.077 Cl
HETATM   11  H   UNL     1      -6.994   2.196 -35.080  1.00  0.00     0.162 HD
ENDROOT
BRANCH   1  12
HETATM   12  C   UNL     1     -10.676   3.488 -31.340  1.00  0.00     0.273 C 
HETATM   13  N   UNL     1     -11.740   3.047 -32.098  1.00  0.00    -0.353 N 
HETATM   14  H   UNL     1     -11.495   2.605 -32.981  1.00  0.00     0.162 HD
HETATM   15  O   UNL     1     -10.817   4.209 -30.355  1.00  0.00    -0.266 OA
BRANCH  13  16
HETATM   16  C   UNL     1     -13.088   3.541 -31.903  1.00  0.00     0.149 C 
BRANCH  16  17
HETATM   17  C   UNL     1     -14.127   2.713 -32.662  1.00  0.00     0.186 C 
BRANCH  17  18
HETATM   18  O   UNL     1     -13.517   1.500 -33.118  1.00  0.00    -0.394 OA
HETATM   19  C   UNL     1     -14.460   0.657 -33.769  1.00  0.00     0.201 C 
ENDBRANCH  17  18
ENDBRANCH  16  17
ENDBRANCH  13  16
ENDBRANCH   1  12
BRANCH   8  20
HETATM   20  C   UNL     1      -6.386   0.336 -30.687  1.00  0.00     0.409 C 
HETATM   21  F   UNL     1      -6.602   0.359 -29.359  1.00  0.00    -0.169 F 
HETATM   22  F   UNL     1      -7.468  -0.252 -31.258  1.00  0.00    -0.169 F 
HETATM   23  F   UNL     1      -5.343  -0.496 -30.913  1.00  0.00    -0.169 F 
ENDBRANCH   8  20
BRANCH   6  24
HETATM   24  C   UNL     1      -5.751  -0.131 -34.035  1.00  0.00    -0.035 A 
HETATM   25  C   UNL     1      -6.964  -0.673 -34.496  1.00  0.00     0.011 A 
HETATM   26  C   UNL     1      -7.108  -2.047 -34.715  1.00  0.00     0.024 A 
HETATM   27  C   UNL     1      -6.034  -2.900 -34.486  1.00  0.00     0.034 A 
HETATM   28 CL   UNL     1      -6.210  -4.590 -34.748  1.00  0.00    -0.084 Cl
HETATM   29  C   UNL     1      -4.816  -2.388 -34.049  1.00  0.00     0.024 A 
HETATM   30  C   UNL     1      -4.674  -1.014 -33.832  1.00  0.00     0.011 A 
ENDBRANCH   6  24
TORSDOF 6
ENDMDL
MODEL 3
REMARK VINA RESULT:      -7.4      1.121      1.453
REMARK  6 active torsions:
REMARK  status: ('A' for Active; 'I' for Inactive)
REMARK    1  A    between atoms: O_2  and  C_3 
REMARK    2  A    between atoms: C_3  and  C_4 
REMARK    3  A    between atoms: C_4  and  N_5 
REMARK       I    between atoms: N_5  and  C_6 
REMARK    4  A    between atoms: C_6  and  C_7 
REMARK    5  A    between atoms: C_12  and  C_13 
REMARK    6  A    between atoms: C_21  and  C_22 
ROOT
HETATM    1  C   UNL     1      -9.536   0.824 -32.738  1.00  0.00     0.170 A 
HETATM    2  N   UNL     1      -8.499  -0.037 -32.898  1.00  0.00    -0.163 NA
HETATM    3  N   UNL     1      -7.506   0.521 -32.187  1.00  0.00    -0.238 N 
HETATM    4  C   UNL     1      -7.865   1.667 -31.533  1.00  0.00     0.145 A 
HETATM    5  N   UNL     1      -6.985   2.332 -30.741  1.00  0.00    -0.365 N 
HETATM    6  C   UNL     1      -5.559   2.024 -30.761  1.00  0.00     0.118 C 
HETATM    7  C   UNL     1      -5.382   0.502 -30.939  1.00  0.00     0.066 C 
HETATM    8  C   UNL     1      -6.194  -0.094 -32.106  1.00  0.00     0.221 C 
HETATM    9  C   UNL     1      -9.177   1.896 -31.875  1.00  0.00     0.115 A 
HETATM   10 CL   UNL     1     -10.138   3.203 -31.374  1.00  0.00    -0.077 Cl
HETATM   11  H   UNL     1      -7.232   3.249 -30.367  1.00  0.00     0.162 HD
ENDROOT
BRANCH   1  12
HETATM   12  C   UNL     1     -10.817   0.598 -33.423  1.00  0.00     0.273 C 
HETATM   13  N   UNL     1     -11.073   1.514 -34.422  1.00  0.00    -0.353 N 
HETATM   14  H   UNL     1     -10.437   2.306 -34.464  1.00  0.00     0.162 HD
HETATM   15  O   UNL     1     -11.604  -0.297 -33.125  1.00  0.00    -0.266 OA
BRANCH  13  16
HETATM   16  C   UNL     1     -12.363   1.606 -35.075  1.00  0.00     0.149 C 
BRANCH  16  17
HETATM   17  C   UNL     1     -13.313   2.565 -34.354  1.00  0.00     0.186 C 
BRANCH  17  18
HETATM   18  O   UNL     1     -14.213   1.806 -33.538  1.00  0.00    -0.394 OA
HETATM   19  C   UNL     1     -14.528   2.493 -32.333  1.00  0.00     0.201 C 
ENDBRANCH  17  18
ENDBRANCH  16  17
ENDBRANCH  13  16
ENDBRANCH   1  12
BRANCH   8  20
HETATM   20  C   UNL     1      -5.488  -0.011 -33.443  1.00  0.00     0.409 C 
HETATM   21  F   UNL     1      -5.850   1.052 -34.185  1.00  0.00    -0.169 F 
HETATM   22  F   UNL     1      -4.146   0.070 -33.256  1.00  0.00    -0.169 F 
HETATM   23  F   UNL     1      -5.697  -1.118 -34.193  1.00  0.00    -0.169 F 
ENDBRANCH   8  20
BRANCH   6  24
HETATM   24  C   UNL     1      -4.773   2.889 -31.737  1.00  0.00    -0.035 A 
HETATM   25  C   UNL     1      -3.371   2.842 -31.840  1.00  0.00     0.011 A 
HETATM   26  C   UNL     1      -2.684   3.651 -32.750  1.00  0.00     0.024 A 
HETATM   27  C   UNL     1      -3.391   4.514 -33.579  1.00  0.00     0.034 A 
HETATM   28 CL   UNL     1      -2.547   5.515 -34.695  1.00  0.00    -0.084 Cl
HETATM   29  C   UNL     1      -4.780   4.567 -33.513  1.00  0.00     0.024 A 
HETATM   30  C   UNL     1      -5.465   3.756 -32.603  1.00  0.00     0.011 A 
ENDBRANCH   6  24
TORSDOF 6
ENDMDL
MODEL 4
REMARK VINA RESULT:      -7.1      4.312      7.567
REMARK  6 active torsions:
REMARK  status: ('A' for Active; 'I' for Inactive)
REMARK    1  A    between atoms: O_2  and  C_3 
REMARK    2  A    between atoms: C_3  and  C_4 
REMARK    3  A    between atoms: C_4  and  N_5 
REMARK       I    between atoms: N_5  and  C_6 
REMARK    4  A    between atoms: C_6  and  C_7 
REMARK    5  A    between atoms: C_12  and  C_13 
REMARK    6  A    between atoms: C_21  and  C_22 
ROOT
HETATM    1  C   UNL     1      -5.008   4.351 -32.627  1.00  0.00     0.170 A 
HETATM    2  N   UNL     1      -6.305   4.088 -32.928  1.00  0.00    -0.163 NA
HETATM    3  N   UNL     1      -6.508   2.858 -32.428  1.00  0.00    -0.238 N 
HETATM    4  C   UNL     1      -5.426   2.337 -31.774  1.00  0.00     0.145 A 
HETATM    5  N   UNL     1      -5.481   1.118 -31.181  1.00  0.00    -0.365 N 
HETATM    6  C   UNL     1      -6.582   0.195 -31.436  1.00  0.00     0.118 C 
HETATM    7  C   UNL     1      -7.887   1.004 -31.573  1.00  0.00     0.066 C 
HETATM    8  C   UNL     1      -7.792   2.192 -32.551  1.00  0.00     0.221 C 
HETATM    9  C   UNL     1      -4.431   3.280 -31.891  1.00  0.00     0.115 A 
HETATM   10 CL   UNL     1      -2.849   3.157 -31.289  1.00  0.00    -0.077 Cl
HETATM   11  H   UNL     1      -4.629   0.695 -30.811  1.00  0.00     0.162 HD
ENDROOT
BRANCH   1  12
HETATM   12  C   UNL     1      -4.370   5.601 -33.066  1.00  0.00     0.273 C 
HETATM   13  N   UNL     1      -3.819   6.327 -32.031  1.00  0.00    -0.353 N 
HETATM   14  H   UNL     1      -4.047   5.999 -31.095  1.00  0.00     0.162 HD
HETATM   15  O   UNL     1      -4.348   5.986 -34.232  1.00  0.00    -0.266 OA
BRANCH  13  16
HETATM   16  C   UNL     1      -3.334   7.681 -32.208  1.00  0.00     0.149 C 
BRANCH  16  17
HETATM   17  C   UNL     1      -1.818   7.735 -32.404  1.00  0.00     0.186 C 
BRANCH  17  18
HETATM   18  O   UNL     1      -1.526   7.730 -33.806  1.00  0.00    -0.394 OA
HETATM   19  C   UNL     1      -0.961   6.491 -34.216  1.00  0.00     0.201 C 
ENDBRANCH  17  18
ENDBRANCH  16  17
ENDBRANCH  13  16
ENDBRANCH   1  12
BRANCH   8  20
HETATM   20  C   UNL     1      -8.056   1.816 -33.994  1.00  0.00     0.409 C 
HETATM   21  F   UNL     1      -8.877   0.761 -34.139  1.00  0.00    -0.169 F 
HETATM   22  F   UNL     1      -8.626   2.860 -34.649  1.00  0.00    -0.169 F 
HETATM   23  F   UNL     1      -6.912   1.534 -34.659  1.00  0.00    -0.169 F 
ENDBRANCH   8  20
BRANCH   6  24
HETATM   24  C   UNL     1      -6.297  -0.777 -32.573  1.00  0.00    -0.035 A 
HETATM   25  C   UNL     1      -4.994  -1.085 -33.005  1.00  0.00     0.011 A 
HETATM   26  C   UNL     1      -4.771  -1.984 -34.052  1.00  0.00     0.024 A 
HETATM   27  C   UNL     1      -5.851  -2.598 -34.678  1.00  0.00     0.034 A 
HETATM   28 CL   UNL     1      -5.580  -3.699 -35.971  1.00  0.00    -0.084 Cl
HETATM   29  C   UNL     1      -7.149  -2.327 -34.258  1.00  0.00     0.024 A 
HETATM   30  C   UNL     1      -7.369  -1.428 -33.209  1.00  0.00     0.011 A 
ENDBRANCH   6  24
TORSDOF 6
ENDMDL
MODEL 5
REMARK VINA RESULT:      -6.9      4.037      6.074
REMARK  6 active torsions:
REMARK  status: ('A' for Active; 'I' for Inactive)
REMARK    1  A    between atoms: O_2  and  C_3 
REMARK    2  A    between atoms: C_3  and  C_4 
REMARK    3  A    between atoms: C_4  and  N_5 
REMARK       I    between atoms: N_5  and  C_6 
REMARK    4  A    between atoms: C_6  and  C_7 
REMARK    5  A    between atoms: C_12  and  C_13 
REMARK    6  A    between atoms: C_21  and  C_22 
ROOT
HETATM    1  C   UNL     1      -5.548   2.748 -31.943  1.00  0.00     0.170 A 
HETATM    2  N   UNL     1      -5.764   4.061 -32.209  1.00  0.00    -0.163 NA
HETATM    3  N   UNL     1      -4.570   4.501 -32.640  1.00  0.00    -0.238 N 
HETATM    4  C   UNL     1      -3.612   3.529 -32.716  1.00  0.00     0.145 A 
HETATM    5  N   UNL     1      -2.362   3.805 -33.169  1.00  0.00    -0.365 N 
HETATM    6  C   UNL     1      -1.898   5.178 -33.335  1.00  0.00     0.118 C 
HETATM    7  C   UNL     1      -3.070   6.042 -33.843  1.00  0.00     0.066 C 
HETATM    8  C   UNL     1      -4.368   5.886 -33.025  1.00  0.00     0.221 C 
HETATM    9  C   UNL     1      -4.212   2.377 -32.264  1.00  0.00     0.115 A 
HETATM   10 CL   UNL     1      -3.484   0.852 -32.113  1.00  0.00    -0.077 Cl
HETATM   11  H   UNL     1      -1.629   3.099 -33.098  1.00  0.00     0.162 HD
ENDROOT
BRANCH   1  12
HETATM   12  C   UNL     1      -6.615   1.906 -31.381  1.00  0.00     0.273 C 
HETATM   13  N   UNL     1      -7.633   1.644 -32.273  1.00  0.00    -0.353 N 
HETATM   14  H   UNL     1      -7.603   2.175 -33.141  1.00  0.00     0.162 HD
HETATM   15  O   UNL     1      -6.624   1.495 -30.224  1.00  0.00    -0.266 OA
BRANCH  13  16
HETATM   16  C   UNL     1      -8.876   1.020 -31.868  1.00  0.00     0.149 C 
BRANCH  16  17
HETATM   17  C   UNL     1      -9.386   0.013 -32.902  1.00  0.00     0.186 C 
BRANCH  17  18
HETATM   18  O   UNL     1     -10.755   0.305 -33.204  1.00  0.00    -0.394 OA
HETATM   19  C   UNL     1     -10.875   1.492 -33.979  1.00  0.00     0.201 C 
ENDBRANCH  17  18
ENDBRANCH  16  17
ENDBRANCH  13  16
ENDBRANCH   1  12
BRANCH   8  20
HETATM   20  C   UNL     1      -4.434   6.788 -31.811  1.00  0.00     0.409 C 
HETATM   21  F   UNL     1      -3.991   6.210 -30.679  1.00  0.00    -0.169 F 
HETATM   22  F   UNL     1      -3.679   7.898 -32.015  1.00  0.00    -0.169 F 
HETATM   23  F   UNL     1      -5.692   7.226 -31.575  1.00  0.00    -0.169 F 
ENDBRANCH   8  20
BRANCH   6  24
HETATM   24  C   UNL     1      -1.177   5.719 -32.107  1.00  0.00    -0.035 A 
HETATM   25  C   UNL     1      -0.934   4.940 -30.960  1.00  0.00     0.011 A 
HETATM   26  C   UNL     1      -0.268   5.472 -29.852  1.00  0.00     0.024 A 
HETATM   27  C   UNL     1       0.176   6.789 -29.878  1.00  0.00     0.034 A 
HETATM   28 CL   UNL     1       0.991   7.446 -28.513  1.00  0.00    -0.084 Cl
HETATM   29  C   UNL     1      -0.033   7.575 -31.006  1.00  0.00     0.024 A 
HETATM   30  C   UNL     1      -0.699   7.042 -32.114  1.00  0.00     0.011 A 
ENDBRANCH   6  24
TORSDOF 6
ENDMDL
MODEL 6
REMARK VINA RESULT:      -6.9      4.058      7.146
REMARK  6 active torsions:
REMARK  status: ('A' for Active; 'I' for Inactive)
REMARK    1  A    between atoms: O_2  and  C_3 
REMARK    2  A    between atoms: C_3  and  C_4 
REMARK    3  A    between atoms: C_4  and  N_5 
REMARK       I    between atoms: N_5  and  C_6 
REMARK    4  A    between atoms: C_6  and  C_7 
REMARK    5  A    between atoms: C_12  and  C_13 
REMARK    6  A    between atoms: C_21  and  C_22 
ROOT
HETATM    1  C   UNL     1      -4.766   0.944 -31.314  1.00  0.00     0.170 A 
HETATM    2  N   UNL     1      -4.774   2.096 -32.032  1.00  0.00    -0.163 NA
HETATM    3  N   UNL     1      -5.972   2.637 -31.756  1.00  0.00    -0.238 N 
HETATM    4  C   UNL     1      -6.713   1.922 -30.857  1.00  0.00     0.145 A 
HETATM    5  N   UNL     1      -7.932   2.355 -30.446  1.00  0.00    -0.365 N 
HETATM    6  C   UNL     1      -8.627   3.440 -31.131  1.00  0.00     0.118 C 
HETATM    7  C   UNL     1      -7.588   4.488 -31.581  1.00  0.00     0.066 C 
HETATM    8  C   UNL     1      -6.387   3.897 -32.346  1.00  0.00     0.221 C 
HETATM    9  C   UNL     1      -5.961   0.811 -30.554  1.00  0.00     0.115 A 
HETATM   10 CL   UNL     1      -6.399  -0.449 -29.505  1.00  0.00    -0.077 Cl
HETATM   11  H   UNL     1      -8.521   1.746 -29.877  1.00  0.00     0.162 HD
ENDROOT
BRANCH   1  12
HETATM   12  C   UNL     1      -3.630   0.013 -31.393  1.00  0.00     0.273 C 
HETATM   13  N   UNL     1      -3.953  -1.197 -31.971  1.00  0.00    -0.353 N 
HETATM   14  H   UNL     1      -4.945  -1.356 -32.130  1.00  0.00     0.162 HD
HETATM   15  O   UNL     1      -2.508   0.265 -30.964  1.00  0.00    -0.266 OA
BRANCH  13  16
HETATM   16  C   UNL     1      -3.049  -2.328 -31.955  1.00  0.00     0.149 C 
BRANCH  16  17
HETATM   17  C   UNL     1      -3.535  -3.475 -32.843  1.00  0.00     0.186 C 
BRANCH  17  18
HETATM   18  O   UNL     1      -4.185  -2.931 -33.997  1.00  0.00    -0.394 OA
HETATM   19  C   UNL     1      -5.066  -3.875 -34.592  1.00  0.00     0.201 C 
ENDBRANCH  17  18
ENDBRANCH  16  17
ENDBRANCH  13  16
ENDBRANCH   1  12
BRANCH   8  20
HETATM   20  C   UNL     1      -6.633   3.730 -33.830  1.00  0.00     0.409 C 
HETATM   21  F   UNL     1      -5.547   3.959 -34.591  1.00  0.00    -0.169 F 
HETATM   22  F   UNL     1      -7.046   2.463 -34.093  1.00  0.00    -0.169 F 
HETATM   23  F   UNL     1      -7.617   4.545 -34.274  1.00  0.00    -0.169 F 
ENDBRANCH   8  20
BRANCH   6  24
HETATM   24  C   UNL     1      -9.572   2.952 -32.221  1.00  0.00    -0.035 A 
HETATM   25  C   UNL     1      -9.700   1.595 -32.569  1.00  0.00     0.011 A 
HETATM   26  C   UNL     1     -10.581   1.186 -33.574  1.00  0.00     0.024 A 
HETATM   27  C   UNL     1     -11.357   2.128 -34.241  1.00  0.00     0.034 A 
HETATM   28 CL   UNL     1     -12.436   1.626 -35.482  1.00  0.00    -0.084 Cl
HETATM   29  C   UNL     1     -11.265   3.474 -33.903  1.00  0.00     0.024 A 
HETATM   30  C   UNL     1     -10.384   3.882 -32.897  1.00  0.00     0.011 A 
ENDBRANCH   6  24
TORSDOF 6
ENDMDL
MODEL 7
REMARK VINA RESULT:      -6.8      3.830      5.306
REMARK  6 active torsions:
REMARK  status: ('A' for Active; 'I' for Inactive)
REMARK    1  A    between atoms: O_2  and  C_3 
REMARK    2  A    between atoms: C_3  and  C_4 
REMARK    3  A    between atoms: C_4  and  N_5 
REMARK       I    between atoms: N_5  and  C_6 
REMARK    4  A    between atoms: C_6  and  C_7 
REMARK    5  A    between atoms: C_12  and  C_13 
REMARK    6  A    between atoms: C_21  and  C_22 
ROOT
HETATM    1  C   UNL     1      -6.781  -0.183 -33.458  1.00  0.00     0.170 A 
HETATM    2  N   UNL     1      -5.759  -0.269 -32.570  1.00  0.00    -0.163 NA
HETATM    3  N   UNL     1      -5.776   0.921 -31.946  1.00  0.00    -0.238 N 
HETATM    4  C   UNL     1      -6.788   1.747 -32.348  1.00  0.00     0.145 A 
HETATM    5  N   UNL     1      -6.964   2.971 -31.788  1.00  0.00    -0.365 N 
HETATM    6  C   UNL     1      -5.942   3.574 -30.939  1.00  0.00     0.118 C 
HETATM    7  C   UNL     1      -5.282   2.467 -30.092  1.00  0.00     0.066 C 
HETATM    8  C   UNL     1      -4.814   1.245 -30.908  1.00  0.00     0.221 C 
HETATM    9  C   UNL     1      -7.457   1.063 -33.336  1.00  0.00     0.115 A 
HETATM   10 CL   UNL     1      -8.795   1.619 -34.220  1.00  0.00    -0.077 Cl
HETATM   11  H   UNL     1      -7.642   3.619 -32.188  1.00  0.00     0.162 HD
ENDROOT
BRANCH   1  12
HETATM   12  C   UNL     1      -7.062  -1.281 -34.395  1.00  0.00     0.273 C 
HETATM   13  N   UNL     1      -6.552  -2.495 -33.984  1.00  0.00    -0.353 N 
HETATM   14  H   UNL     1      -5.928  -2.459 -33.181  1.00  0.00     0.162 HD
HETATM   15  O   UNL     1      -7.664  -1.139 -35.456  1.00  0.00    -0.266 OA
BRANCH  13  16
HETATM   16  C   UNL     1      -6.526  -3.657 -34.849  1.00  0.00     0.149 C 
BRANCH  16  17
HETATM   17  C   UNL     1      -5.282  -4.520 -34.629  1.00  0.00     0.186 C 
BRANCH  17  18
HETATM   18  O   UNL     1      -4.216  -3.691 -34.150  1.00  0.00    -0.394 OA
HETATM   19  C   UNL     1      -3.459  -4.348 -33.140  1.00  0.00     0.201 C 
ENDBRANCH  17  18
ENDBRANCH  16  17
ENDBRANCH  13  16
ENDBRANCH   1  12
BRANCH   8  20
HETATM   20  C   UNL     1      -3.430   1.403 -31.501  1.00  0.00     0.409 C 
HETATM   21  F   UNL     1      -2.687   2.353 -30.904  1.00  0.00    -0.169 F 
HETATM   22  F   UNL     1      -2.744   0.235 -31.397  1.00  0.00    -0.169 F 
HETATM   23  F   UNL     1      -3.476   1.695 -32.821  1.00  0.00    -0.169 F 
ENDBRANCH   8  20
BRANCH   6  24
HETATM   24  C   UNL     1      -4.978   4.468 -31.706  1.00  0.00    -0.035 A 
HETATM   25  C   UNL     1      -4.991   4.578 -33.109  1.00  0.00     0.011 A 
HETATM   26  C   UNL     1      -4.090   5.411 -33.778  1.00  0.00     0.024 A 
HETATM   27  C   UNL     1      -3.167   6.157 -33.053  1.00  0.00     0.034 A 
HETATM   28 CL   UNL     1      -2.054   7.178 -33.876  1.00  0.00    -0.084 Cl
HETATM   29  C   UNL     1      -3.146   6.084 -31.664  1.00  0.00     0.024 A 
HETATM   30  C   UNL     1      -4.049   5.250 -30.996  1.00  0.00     0.011 A 
ENDBRANCH   6  24
TORSDOF 6
ENDMDL
MODEL 8
REMARK VINA RESULT:      -6.8      4.154      8.300
REMARK  6 active torsions:
REMARK  status: ('A' for Active; 'I' for Inactive)
REMARK    1  A    between atoms: O_2  and  C_3 
REMARK    2  A    between atoms: C_3  and  C_4 
REMARK    3  A    between atoms: C_4  and  N_5 
REMARK       I    between atoms: N_5  and  C_6 
REMARK    4  A    between atoms: C_6  and  C_7 
REMARK    5  A    between atoms: C_12  and  C_13 
REMARK    6  A    between atoms: C_21  and  C_22 
ROOT
HETATM    1  C   UNL     1      -4.243   4.119 -31.829  1.00  0.00     0.170 A 
HETATM    2  N   UNL     1      -4.543   2.952 -31.204  1.00  0.00    -0.163 NA
HETATM    3  N   UNL     1      -5.265   2.278 -32.114  1.00  0.00    -0.238 N 
HETATM    4  C   UNL     1      -5.401   2.926 -33.310  1.00  0.00     0.145 A 
HETATM    5  N   UNL     1      -6.071   2.361 -34.346  1.00  0.00    -0.365 N 
HETATM    6  C   UNL     1      -6.904   1.177 -34.161  1.00  0.00     0.118 C 
HETATM    7  C   UNL     1      -6.226   0.249 -33.132  1.00  0.00     0.066 C 
HETATM    8  C   UNL     1      -5.799   0.958 -31.830  1.00  0.00     0.221 C 
HETATM    9  C   UNL     1      -4.754   4.130 -33.157  1.00  0.00     0.115 A 
HETATM   10 CL   UNL     1      -4.622   5.360 -34.318  1.00  0.00    -0.077 Cl
HETATM   11  H   UNL     1      -6.270   2.911 -35.182  1.00  0.00     0.162 HD
ENDROOT
BRANCH   1  12
HETATM   12  C   UNL     1      -3.499   5.178 -31.132  1.00  0.00     0.273 C 
HETATM   13  N   UNL     1      -2.131   5.055 -31.251  1.00  0.00    -0.353 N 
HETATM   14  H   UNL     1      -1.803   4.186 -31.665  1.00  0.00     0.162 HD
HETATM   15  O   UNL     1      -4.031   6.073 -30.481  1.00  0.00    -0.266 OA
BRANCH  13  16
HETATM   16  C   UNL     1      -1.211   5.860 -30.473  1.00  0.00     0.149 C 
BRANCH  16  17
HETATM   17  C   UNL     1       0.200   5.868 -31.065  1.00  0.00     0.186 C 
BRANCH  17  18
HETATM   18  O   UNL     1       0.867   4.652 -30.703  1.00  0.00    -0.394 OA
HETATM   19  C   UNL     1       1.148   4.609 -29.309  1.00  0.00     0.201 C 
ENDBRANCH  17  18
ENDBRANCH  16  17
ENDBRANCH  13  16
ENDBRANCH   1  12
BRANCH   8  20
HETATM   20  C   UNL     1      -6.900   1.045 -30.795  1.00  0.00     0.409 C 
HETATM   21  F   UNL     1      -7.621   2.179 -30.861  1.00  0.00    -0.169 F 
HETATM   22  F   UNL     1      -7.767   0.010 -30.951  1.00  0.00    -0.169 F 
HETATM   23  F   UNL     1      -6.418   0.944 -29.535  1.00  0.00    -0.169 F 
ENDBRANCH   8  20
BRANCH   6  24
HETATM   24  C   UNL     1      -8.362   1.510 -33.875  1.00  0.00    -0.035 A 
HETATM   25  C   UNL     1      -8.858   2.826 -33.875  1.00  0.00     0.011 A 
HETATM   26  C   UNL     1     -10.205   3.092 -33.609  1.00  0.00     0.024 A 
HETATM   27  C   UNL     1     -11.080   2.042 -33.349  1.00  0.00     0.034 A 
HETATM   28 CL   UNL     1     -12.735   2.368 -33.016  1.00  0.00    -0.084 Cl
HETATM   29  C   UNL     1     -10.620   0.729 -33.363  1.00  0.00     0.024 A 
HETATM   30  C   UNL     1      -9.272   0.465 -33.630  1.00  0.00     0.011 A 
ENDBRANCH   6  24
TORSDOF 6
ENDMDL
MODEL 9
REMARK VINA RESULT:      -6.8     16.792     19.269
REMARK  6 active torsions:
REMARK  status: ('A' for Active; 'I' for Inactive)
REMARK    1  A    between atoms: O_2  and  C_3 
REMARK    2  A    between atoms: C_3  and  C_4 
REMARK    3  A    between atoms: C_4  and  N_5 
REMARK       I    between atoms: N_5  and  C_6 
REMARK    4  A    between atoms: C_6  and  C_7 
REMARK    5  A    between atoms: C_12  and  C_13 
REMARK    6  A    between atoms: C_21  and  C_22 
ROOT
HETATM    1  C   UNL     1      -4.051 -15.355 -38.288  1.00  0.00     0.170 A 
HETATM    2  N   UNL     1      -4.279 -14.151 -38.870  1.00  0.00    -0.163 NA
HETATM    3  N   UNL     1      -5.536 -13.851 -38.505  1.00  0.00    -0.238 N 
HETATM    4  C   UNL     1      -6.111 -14.773 -37.674  1.00  0.00     0.145 A 
HETATM    5  N   UNL     1      -7.365 -14.598 -37.186  1.00  0.00    -0.365 N 
HETATM    6  C   UNL     1      -8.257 -13.578 -37.726  1.00  0.00     0.118 C 
HETATM    7  C   UNL     1      -7.426 -12.328 -38.081  1.00  0.00     0.066 C 
HETATM    8  C   UNL     1      -6.179 -12.623 -38.938  1.00  0.00     0.221 C 
HETATM    9  C   UNL     1      -5.173 -15.768 -37.518  1.00  0.00     0.115 A 
HETATM   10 CL   UNL     1      -5.352 -17.189 -36.607  1.00  0.00    -0.077 Cl
HETATM   11  H   UNL     1      -7.820 -15.354 -36.674  1.00  0.00     0.162 HD
ENDROOT
BRANCH   1  12
HETATM   12  C   UNL     1      -2.782 -16.068 -38.500  1.00  0.00     0.273 C 
HETATM   13  N   UNL     1      -1.670 -15.303 -38.218  1.00  0.00    -0.353 N 
HETATM   14  H   UNL     1      -1.849 -14.316 -38.049  1.00  0.00     0.162 HD
HETATM   15  O   UNL     1      -2.707 -17.221 -38.916  1.00  0.00    -0.266 OA
BRANCH  13  16
HETATM   16  C   UNL     1      -0.329 -15.731 -38.560  1.00  0.00     0.149 C 
BRANCH  16  17
HETATM   17  C   UNL     1       0.058 -15.350 -39.990  1.00  0.00     0.186 C 
BRANCH  17  18
HETATM   18  O   UNL     1       1.324 -14.680 -39.970  1.00  0.00    -0.394 OA
HETATM   19  C   UNL     1       1.886 -14.670 -38.664  1.00  0.00     0.201 C 
ENDBRANCH  17  18
ENDBRANCH  16  17
ENDBRANCH  13  16
ENDBRANCH   1  12
BRANCH   8  20
HETATM   20  C   UNL     1      -6.459 -12.669 -40.425  1.00  0.00     0.409 C 
HETATM   21  F   UNL     1      -6.759 -13.897 -40.885  1.00  0.00    -0.169 F 
HETATM   22  F   UNL     1      -7.509 -11.862 -40.725  1.00  0.00    -0.169 F 
HETATM   23  F   UNL     1      -5.413 -12.210 -41.150  1.00  0.00    -0.169 F 
ENDBRANCH   8  20
BRANCH   6  24
HETATM   24  C   UNL     1      -9.157 -14.098 -38.839  1.00  0.00    -0.035 A 
HETATM   25  C   UNL     1      -9.174 -15.447 -39.238  1.00  0.00     0.011 A 
HETATM   26  C   UNL     1     -10.016 -15.887 -40.264  1.00  0.00     0.024 A 
HETATM   27  C   UNL     1     -10.862 -14.986 -40.900  1.00  0.00     0.034 A 
HETATM   28 CL   UNL     1     -11.894 -15.525 -42.167  1.00  0.00    -0.084 Cl
HETATM   29  C   UNL     1     -10.880 -13.650 -40.512  1.00  0.00     0.024 A 
HETATM   30  C   UNL     1     -10.038 -13.212 -39.485  1.00  0.00     0.011 A 
ENDBRANCH   6  24
TORSDOF 6
ENDMDL
MODEL 10
REMARK VINA RESULT:      -6.8     16.415     19.060
REMARK  6 active torsions:
REMARK  status: ('A' for Active; 'I' for Inactive)
REMARK    1  A    between atoms: O_2  and  C_3 
REMARK    2  A    between atoms: C_3  and  C_4 
REMARK    3  A    between atoms: C_4  and  N_5 
REMARK       I    between atoms: N_5  and  C_6 
REMARK    4  A    between atoms: C_6  and  C_7 
REMARK    5  A    between atoms: C_12  and  C_13 
REMARK    6  A    between atoms: C_21  and  C_22 
ROOT
HETATM    1  C   UNL     1      -3.060 -13.504 -37.778  1.00  0.00     0.170 A 
HETATM    2  N   UNL     1      -3.258 -13.358 -39.113  1.00  0.00    -0.163 NA
HETATM    3  N   UNL     1      -4.540 -12.968 -39.205  1.00  0.00    -0.238 N 
HETATM    4  C   UNL     1      -5.162 -12.804 -37.999  1.00  0.00     0.145 A 
HETATM    5  N   UNL     1      -6.448 -12.378 -37.921  1.00  0.00    -0.365 N 
HETATM    6  C   UNL     1      -7.310 -12.337 -39.097  1.00  0.00     0.118 C 
HETATM    7  C   UNL     1      -6.467 -11.908 -40.316  1.00  0.00     0.066 C 
HETATM    8  C   UNL     1      -5.162 -12.709 -40.492  1.00  0.00     0.221 C 
HETATM    9  C   UNL     1      -4.229 -13.151 -37.049  1.00  0.00     0.115 A 
HETATM   10 CL   UNL     1      -4.458 -13.163 -35.367  1.00  0.00    -0.077 Cl
HETATM   11  H   UNL     1      -6.931 -12.384 -37.022  1.00  0.00     0.162 HD
ENDROOT
BRANCH   1  12
HETATM   12  C   UNL     1      -1.774 -13.988 -37.255  1.00  0.00     0.273 C 
HETATM   13  N   UNL     1      -0.929 -14.466 -38.234  1.00  0.00    -0.353 N 
HETATM   14  H   UNL     1      -1.342 -14.567 -39.158  1.00  0.00     0.162 HD
HETATM   15  O   UNL     1      -1.480 -13.998 -36.062  1.00  0.00    -0.266 OA
BRANCH  13  16
HETATM   16  C   UNL     1       0.292 -15.181 -37.922  1.00  0.00     0.149 C 
BRANCH  16  17
HETATM   17  C   UNL     1       1.501 -14.628 -38.679  1.00  0.00     0.186 C 
BRANCH  17  18
HETATM   18  O   UNL     1       2.577 -15.570 -38.594  1.00  0.00    -0.394 OA
HETATM   19  C   UNL     1       2.098 -16.909 -38.610  1.00  0.00     0.201 C 
ENDBRANCH  17  18
ENDBRANCH  16  17
ENDBRANCH  13  16
ENDBRANCH   1  12
BRANCH   8  20
HETATM   20  C   UNL     1      -5.338 -14.000 -41.263  1.00  0.00     0.409 C 
HETATM   21  F   UNL     1      -6.401 -14.001 -42.087  1.00  0.00    -0.169 F 
HETATM   22  F   UNL     1      -4.240 -14.239 -42.025  1.00  0.00    -0.169 F 
HETATM   23  F   UNL     1      -5.463 -15.067 -40.439  1.00  0.00    -0.169 F 
ENDBRANCH   8  20
BRANCH   6  24
HETATM   24  C   UNL     1      -8.127 -13.608 -39.286  1.00  0.00    -0.035 A 
HETATM   25  C   UNL     1      -8.036 -14.709 -38.415  1.00  0.00     0.011 A 
HETATM   26  C   UNL     1      -8.804 -15.860 -38.620  1.00  0.00     0.024 A 
HETATM   27  C   UNL     1      -9.683 -15.922 -39.695  1.00  0.00     0.034 A 
HETATM   28 CL   UNL     1     -10.623 -17.339 -39.953  1.00  0.00    -0.084 Cl
HETATM   29  C   UNL     1      -9.807 -14.841 -40.561  1.00  0.00     0.024 A 
HETATM   30  C   UNL     1      -9.039 -13.690 -40.354  1.00  0.00     0.011 A 
ENDBRANCH   6  24
TORSDOF 6
ENDMDL
