MODEL 1
REMARK VINA RESULT:      -8.7      0.000      0.000
REMARK  5 active torsions:
REMARK  status: ('A' for Active; 'I' for Inactive)
REMARK       I    between atoms: C_2  and  N_3 
REMARK    1  A    between atoms: N_3  and  C_4 
REMARK    2  A    between atoms: C_7  and  C_8 
REMARK    3  A    between atoms: C_8  and  N_9 
REMARK    4  A    between atoms: C_12  and  C_13 
REMARK    5  A    between atoms: C_14  and  O_15 
ROOT
HETATM    1  N   UNL     1      -5.741   2.168 -32.929  1.00  0.00    -0.060 N 
HETATM    2  H   UNL     1      -5.663   2.948 -33.589  1.00  0.00     0.280 HD
HETATM    3  C   UNL     1      -4.340   1.822 -32.417  1.00  0.00     0.272 C 
HETATM    4  C   UNL     1      -3.546   2.993 -31.782  1.00  0.00     0.190 C 
HETATM    5  O   UNL     1      -4.208   3.447 -30.577  1.00  0.00    -0.339 OA
HETATM    6  C   UNL     1      -5.181   4.384 -30.777  1.00  0.00     0.077 A 
HETATM    7  C   UNL     1      -6.380   4.059 -31.408  1.00  0.00     0.001 A 
HETATM    8  C   UNL     1      -6.653   2.652 -31.828  1.00  0.00     0.276 C 
HETATM    9  C   UNL     1      -4.977   5.654 -30.242  1.00  0.00     0.037 A 
HETATM   10  C   UNL     1      -5.944   6.643 -30.406  1.00  0.00     0.003 A 
HETATM   11  C   UNL     1      -7.125   6.350 -31.080  1.00  0.00     0.001 A 
HETATM   12  C   UNL     1      -7.349   5.062 -31.573  1.00  0.00     0.012 A 
ENDROOT
BRANCH   1  13
HETATM   13  C   UNL     1      -6.394   1.015 -33.662  1.00  0.00     0.273 C 
BRANCH  13  14
HETATM   14  C   UNL     1      -7.896   0.987 -33.590  1.00  0.00    -0.032 A 
HETATM   15  C   UNL     1      -8.645   1.995 -34.210  1.00  0.00     0.011 A 
HETATM   16  C   UNL     1     -10.043   1.981 -34.162  1.00  0.00     0.030 A 
HETATM   17  C   UNL     1     -10.724   0.958 -33.503  1.00  0.00     0.034 A 
HETATM   18  C   UNL     1      -9.976  -0.049 -32.880  1.00  0.00     0.030 A 
HETATM   19  C   UNL     1      -8.576  -0.035 -32.918  1.00  0.00     0.011 A 
BRANCH  17  20
HETATM   20  N   UNL     1     -12.129   0.863 -33.441  1.00  0.00    -0.328 N 
HETATM   21  C   UNL     1     -13.028   1.071 -34.475  1.00  0.00     0.218 C 
HETATM   22  C   UNL     1     -14.459   0.813 -34.072  1.00  0.00     0.117 C 
HETATM   23  O   UNL     1     -12.754   1.404 -35.622  1.00  0.00    -0.274 OA
HETATM   24  H   UNL     1     -12.524   0.602 -32.546  1.00  0.00     0.169 HD
ENDBRANCH  17  20
ENDBRANCH  13  14
ENDBRANCH   1  13
BRANCH   4  25
HETATM   25  C   UNL     1      -2.987   4.091 -32.697  1.00  0.00     0.006 A 
HETATM   26  C   UNL     1      -1.785   4.748 -32.333  1.00  0.00     0.077 A 
HETATM   27  C   UNL     1      -1.270   5.772 -33.133  1.00  0.00     0.037 A 
HETATM   28  C   UNL     1      -1.911   6.134 -34.315  1.00  0.00     0.003 A 
HETATM   29  C   UNL     1      -3.058   5.461 -34.716  1.00  0.00     0.001 A 
HETATM   30  C   UNL     1      -3.585   4.440 -33.922  1.00  0.00     0.012 A 
BRANCH  26  31
HETATM   31  O   UNL     1      -1.180   4.291 -31.189  1.00  0.00    -0.355 OA
HETATM   32  C   UNL     1      -0.253   5.154 -30.539  1.00  0.00     0.210 C 
ENDBRANCH  26  31
ENDBRANCH   4  25
TORSDOF 5
ENDMDL
MODEL 2
REMARK VINA RESULT:      -8.7      4.182      5.943
REMARK  5 active torsions:
REMARK  status: ('A' for Active; 'I' for Inactive)
REMARK       I    between atoms: C_2  and  N_3 
REMARK    1  A    between atoms: N_3  and  C_4 
REMARK    2  A    between atoms: C_7  and  C_8 
REMARK    3  A    between atoms: C_8  and  N_9 
REMARK    4  A    between atoms: C_12  and  C_13 
REMARK    5  A    between atoms: C_14  and  O_15 
ROOT
HETATM    1  N   UNL     1      -4.255   4.670 -30.755  1.00  0.00    -0.060 N 
HETATM    2  H   UNL     1      -3.293   4.361 -30.583  1.00  0.00     0.280 HD
HETATM    3  C   UNL     1      -4.470   6.011 -30.046  1.00  0.00     0.272 C 
HETATM    4  C   UNL     1      -3.465   7.134 -30.412  1.00  0.00     0.190 C 
HETATM    5  O   UNL     1      -3.612   7.498 -31.806  1.00  0.00    -0.339 OA
HETATM    6  C   UNL     1      -2.883   6.739 -32.676  1.00  0.00     0.077 A 
HETATM    7  C   UNL     1      -3.198   5.402 -32.910  1.00  0.00     0.001 A 
HETATM    8  C   UNL     1      -4.389   4.784 -32.254  1.00  0.00     0.276 C 
HETATM    9  C   UNL     1      -1.871   7.371 -33.396  1.00  0.00     0.037 A 
HETATM   10  C   UNL     1      -1.106   6.645 -34.306  1.00  0.00     0.003 A 
HETATM   11  C   UNL     1      -1.374   5.296 -34.513  1.00  0.00     0.001 A 
HETATM   12  C   UNL     1      -2.420   4.676 -33.826  1.00  0.00     0.012 A 
ENDROOT
BRANCH   1  13
HETATM   13  C   UNL     1      -5.180   3.587 -30.241  1.00  0.00     0.273 C 
BRANCH  13  14
HETATM   14  C   UNL     1      -4.858   2.198 -30.721  1.00  0.00    -0.032 A 
HETATM   15  C   UNL     1      -5.857   1.216 -30.743  1.00  0.00     0.011 A 
HETATM   16  C   UNL     1      -5.579  -0.079 -31.194  1.00  0.00     0.030 A 
HETATM   17  C   UNL     1      -4.304  -0.420 -31.641  1.00  0.00     0.034 A 
HETATM   18  C   UNL     1      -3.302   0.559 -31.617  1.00  0.00     0.030 A 
HETATM   19  C   UNL     1      -3.573   1.855 -31.158  1.00  0.00     0.011 A 
BRANCH  17  20
HETATM   20  N   UNL     1      -3.960  -1.694 -32.138  1.00  0.00    -0.328 N 
HETATM   21  C   UNL     1      -4.331  -2.245 -33.354  1.00  0.00     0.218 C 
HETATM   22  C   UNL     1      -3.724  -3.605 -33.593  1.00  0.00     0.117 C 
HETATM   23  O   UNL     1      -5.051  -1.726 -34.199  1.00  0.00    -0.274 OA
HETATM   24  H   UNL     1      -3.367  -2.263 -31.547  1.00  0.00     0.169 HD
ENDBRANCH  17  20
ENDBRANCH  13  14
ENDBRANCH   1  13
BRANCH   4  25
HETATM   25  C   UNL     1      -2.025   7.039 -29.889  1.00  0.00     0.006 A 
HETATM   26  C   UNL     1      -1.494   8.111 -29.131  1.00  0.00     0.077 A 
HETATM   27  C   UNL     1      -0.175   8.064 -28.667  1.00  0.00     0.037 A 
HETATM   28  C   UNL     1       0.620   6.947 -28.916  1.00  0.00     0.003 A 
HETATM   29  C   UNL     1       0.096   5.864 -29.608  1.00  0.00     0.001 A 
HETATM   30  C   UNL     1      -1.218   5.902 -30.080  1.00  0.00     0.012 A 
BRANCH  26  31
HETATM   31  O   UNL     1      -2.359   9.146 -28.875  1.00  0.00    -0.355 OA
HETATM   32  C   UNL     1      -1.800  10.401 -28.503  1.00  0.00     0.210 C 
ENDBRANCH  26  31
ENDBRANCH   4  25
TORSDOF 5
ENDMDL
MODEL 3
REMARK VINA RESULT:      -8.5      2.820      3.578
REMARK  5 active torsions:
REMARK  status: ('A' for Active; 'I' for Inactive)
REMARK       I    between atoms: C_2  and  N_3 
REMARK    1  A    between atoms: N_3  and  C_4 
REMARK    2  A    between atoms: C_7  and  C_8 
REMARK    3  A    between atoms: C_8  and  N_9 
REMARK    4  A    between atoms: C_12  and  C_13 
REMARK    5  A    between atoms: C_14  and  O_15 
ROOT
HETATM    1  N   UNL     1      -6.900   3.871 -32.155  1.00  0.00    -0.060 N 
HETATM    2  H   UNL     1      -6.652   4.410 -32.991  1.00  0.00     0.280 HD
HETATM    3  C   UNL     1      -5.690   3.025 -31.745  1.00  0.00     0.272 C 
HETATM    4  C   UNL     1      -4.370   3.806 -31.516  1.00  0.00     0.190 C 
HETATM    5  O   UNL     1      -4.512   4.703 -30.388  1.00  0.00    -0.339 OA
HETATM    6  C   UNL     1      -5.033   5.928 -30.694  1.00  0.00     0.077 A 
HETATM    7  C   UNL     1      -6.364   6.073 -31.079  1.00  0.00     0.001 A 
HETATM    8  C   UNL     1      -7.273   4.889 -31.105  1.00  0.00     0.276 C 
HETATM    9  C   UNL     1      -4.215   7.042 -30.515  1.00  0.00     0.037 A 
HETATM   10  C   UNL     1      -4.702   8.316 -30.799  1.00  0.00     0.003 A 
HETATM   11  C   UNL     1      -6.013   8.474 -31.235  1.00  0.00     0.001 A 
HETATM   12  C   UNL     1      -6.846   7.360 -31.367  1.00  0.00     0.012 A 
ENDROOT
BRANCH   1  13
HETATM   13  C   UNL     1      -8.109   3.027 -32.501  1.00  0.00     0.273 C 
BRANCH  13  14
HETATM   14  C   UNL     1      -7.795   1.701 -33.137  1.00  0.00    -0.032 A 
HETATM   15  C   UNL     1      -7.229   1.657 -34.418  1.00  0.00     0.011 A 
HETATM   16  C   UNL     1      -6.921   0.433 -35.023  1.00  0.00     0.030 A 
HETATM   17  C   UNL     1      -7.162  -0.770 -34.362  1.00  0.00     0.034 A 
HETATM   18  C   UNL     1      -7.731  -0.728 -33.083  1.00  0.00     0.030 A 
HETATM   19  C   UNL     1      -8.049   0.494 -32.475  1.00  0.00     0.011 A 
BRANCH  17  20
HETATM   20  N   UNL     1      -6.849  -2.037 -34.897  1.00  0.00    -0.328 N 
HETATM   21  C   UNL     1      -5.716  -2.794 -34.645  1.00  0.00     0.218 C 
HETATM   22  C   UNL     1      -5.741  -4.137 -35.332  1.00  0.00     0.117 C 
HETATM   23  O   UNL     1      -4.772  -2.476 -33.930  1.00  0.00    -0.274 OA
HETATM   24  H   UNL     1      -7.532  -2.443 -35.524  1.00  0.00     0.169 HD
ENDBRANCH  17  20
ENDBRANCH  13  14
ENDBRANCH   1  13
BRANCH   4  25
HETATM   25  C   UNL     1      -3.620   4.366 -32.732  1.00  0.00     0.006 A 
HETATM   26  C   UNL     1      -2.219   4.559 -32.650  1.00  0.00     0.077 A 
HETATM   27  C   UNL     1      -1.515   5.096 -33.733  1.00  0.00     0.037 A 
HETATM   28  C   UNL     1      -2.177   5.414 -34.917  1.00  0.00     0.003 A 
HETATM   29  C   UNL     1      -3.541   5.177 -35.033  1.00  0.00     0.001 A 
HETATM   30  C   UNL     1      -4.254   4.646 -33.956  1.00  0.00     0.012 A 
BRANCH  26  31
HETATM   31  O   UNL     1      -1.630   4.163 -31.475  1.00  0.00    -0.355 OA
HETATM   32  C   UNL     1      -0.797   5.100 -30.801  1.00  0.00     0.210 C 
ENDBRANCH  26  31
ENDBRANCH   4  25
TORSDOF 5
ENDMDL
MODEL 4
REMARK VINA RESULT:      -8.3      2.730      8.583
REMARK  5 active torsions:
REMARK  status: ('A' for Active; 'I' for Inactive)
REMARK       I    between atoms: C_2  and  N_3 
REMARK    1  A    between atoms: N_3  and  C_4 
REMARK    2  A    between atoms: C_7  and  C_8 
REMARK    3  A    between atoms: C_8  and  N_9 
REMARK    4  A    between atoms: C_12  and  C_13 
REMARK    5  A    between atoms: C_14  and  O_15 
ROOT
HETATM    1  N   UNL     1      -4.318   4.533 -33.421  1.00  0.00    -0.060 N 
HETATM    2  H   UNL     1      -4.048   3.754 -32.812  1.00  0.00     0.280 HD
HETATM    3  C   UNL     1      -5.207   3.988 -34.544  1.00  0.00     0.272 C 
HETATM    4  C   UNL     1      -6.460   3.197 -34.086  1.00  0.00     0.190 C 
HETATM    5  O   UNL     1      -7.369   4.072 -33.375  1.00  0.00    -0.339 OA
HETATM    6  C   UNL     1      -7.116   4.195 -32.038  1.00  0.00     0.077 A 
HETATM    7  C   UNL     1      -5.984   4.861 -31.574  1.00  0.00     0.001 A 
HETATM    8  C   UNL     1      -5.047   5.514 -32.536  1.00  0.00     0.276 C 
HETATM    9  C   UNL     1      -8.077   3.716 -31.150  1.00  0.00     0.037 A 
HETATM   10  C   UNL     1      -7.876   3.829 -29.777  1.00  0.00     0.003 A 
HETATM   11  C   UNL     1      -6.725   4.445 -29.296  1.00  0.00     0.001 A 
HETATM   12  C   UNL     1      -5.785   4.968 -30.188  1.00  0.00     0.012 A 
ENDROOT
BRANCH   1  13
HETATM   13  C   UNL     1      -3.045   5.165 -33.944  1.00  0.00     0.273 C 
BRANCH  13  14
HETATM   14  C   UNL     1      -2.100   5.658 -32.882  1.00  0.00    -0.032 A 
HETATM   15  C   UNL     1      -1.625   6.976 -32.926  1.00  0.00     0.011 A 
HETATM   16  C   UNL     1      -0.753   7.455 -31.943  1.00  0.00     0.030 A 
HETATM   17  C   UNL     1      -0.343   6.636 -30.892  1.00  0.00     0.034 A 
HETATM   18  C   UNL     1      -0.815   5.318 -30.848  1.00  0.00     0.030 A 
HETATM   19  C   UNL     1      -1.681   4.829 -31.835  1.00  0.00     0.011 A 
BRANCH  17  20
HETATM   20  N   UNL     1       0.508   7.061 -29.851  1.00  0.00    -0.328 N 
HETATM   21  C   UNL     1       0.167   7.844 -28.759  1.00  0.00     0.218 C 
HETATM   22  C   UNL     1       1.313   8.047 -27.800  1.00  0.00     0.117 C 
HETATM   23  O   UNL     1      -0.935   8.328 -28.526  1.00  0.00    -0.274 OA
HETATM   24  H   UNL     1       1.470   6.750 -29.899  1.00  0.00     0.169 HD
ENDBRANCH  17  20
ENDBRANCH  13  14
ENDBRANCH   1  13
BRANCH   4  25
HETATM   25  C   UNL     1      -6.274   1.793 -33.492  1.00  0.00     0.006 A 
HETATM   26  C   UNL     1      -7.269   0.810 -33.720  1.00  0.00     0.077 A 
HETATM   27  C   UNL     1      -7.139  -0.467 -33.165  1.00  0.00     0.037 A 
HETATM   28  C   UNL     1      -6.014  -0.799 -32.414  1.00  0.00     0.003 A 
HETATM   29  C   UNL     1      -5.003   0.135 -32.230  1.00  0.00     0.001 A 
HETATM   30  C   UNL     1      -5.125   1.416 -32.774  1.00  0.00     0.012 A 
BRANCH  26  31
HETATM   31  O   UNL     1      -8.314   1.195 -34.522  1.00  0.00    -0.355 OA
HETATM   32  C   UNL     1      -9.632   1.064 -34.002  1.00  0.00     0.210 C 
ENDBRANCH  26  31
ENDBRANCH   4  25
TORSDOF 5
ENDMDL
MODEL 5
REMARK VINA RESULT:      -8.2      2.075      4.320
REMARK  5 active torsions:
REMARK  status: ('A' for Active; 'I' for Inactive)
REMARK       I    between atoms: C_2  and  N_3 
REMARK    1  A    between atoms: N_3  and  C_4 
REMARK    2  A    between atoms: C_7  and  C_8 
REMARK    3  A    between atoms: C_8  and  N_9 
REMARK    4  A    between atoms: C_12  and  C_13 
REMARK    5  A    between atoms: C_14  and  O_15 
ROOT
HETATM    1  N   UNL     1      -7.711   4.604 -32.454  1.00  0.00    -0.060 N 
HETATM    2  H   UNL     1      -7.601   4.167 -33.375  1.00  0.00     0.280 HD
HETATM    3  C   UNL     1      -7.738   3.499 -31.393  1.00  0.00     0.272 C 
HETATM    4  C   UNL     1      -6.524   2.534 -31.394  1.00  0.00     0.190 C 
HETATM    5  O   UNL     1      -5.315   3.255 -31.055  1.00  0.00    -0.339 OA
HETATM    6  C   UNL     1      -4.684   3.845 -32.113  1.00  0.00     0.077 A 
HETATM    7  C   UNL     1      -5.245   4.936 -32.773  1.00  0.00     0.001 A 
HETATM    8  C   UNL     1      -6.529   5.528 -32.293  1.00  0.00     0.276 C 
HETATM    9  C   UNL     1      -3.415   3.380 -32.452  1.00  0.00     0.037 A 
HETATM   10  C   UNL     1      -2.723   3.957 -33.513  1.00  0.00     0.003 A 
HETATM   11  C   UNL     1      -3.291   5.014 -34.217  1.00  0.00     0.001 A 
HETATM   12  C   UNL     1      -4.543   5.510 -33.845  1.00  0.00     0.012 A 
ENDROOT
BRANCH   1  13
HETATM   13  C   UNL     1      -8.991   5.412 -32.484  1.00  0.00     0.273 C 
BRANCH  13  14
HETATM   14  C   UNL     1     -10.209   4.654 -32.936  1.00  0.00    -0.032 A 
HETATM   15  C   UNL     1     -10.199   3.981 -34.165  1.00  0.00     0.011 A 
HETATM   16  C   UNL     1     -11.319   3.263 -34.598  1.00  0.00     0.030 A 
HETATM   17  C   UNL     1     -12.468   3.193 -33.813  1.00  0.00     0.034 A 
HETATM   18  C   UNL     1     -12.482   3.866 -32.585  1.00  0.00     0.030 A 
HETATM   19  C   UNL     1     -11.366   4.594 -32.150  1.00  0.00     0.011 A 
BRANCH  17  20
HETATM   20  N   UNL     1     -13.620   2.463 -34.171  1.00  0.00    -0.328 N 
HETATM   21  C   UNL     1     -13.831   1.102 -34.014  1.00  0.00     0.218 C 
HETATM   22  C   UNL     1     -15.211   0.667 -34.442  1.00  0.00     0.117 C 
HETATM   23  O   UNL     1     -13.033   0.290 -33.559  1.00  0.00    -0.274 OA
HETATM   24  H   UNL     1     -14.382   2.993 -34.576  1.00  0.00     0.169 HD
ENDBRANCH  17  20
ENDBRANCH  13  14
ENDBRANCH   1  13
BRANCH   4  25
HETATM   25  C   UNL     1      -6.399   1.504 -32.525  1.00  0.00     0.006 A 
HETATM   26  C   UNL     1      -5.641   0.327 -32.306  1.00  0.00     0.077 A 
HETATM   27  C   UNL     1      -5.486  -0.614 -33.329  1.00  0.00     0.037 A 
HETATM   28  C   UNL     1      -6.104  -0.423 -34.563  1.00  0.00     0.003 A 
HETATM   29  C   UNL     1      -6.898   0.696 -34.774  1.00  0.00     0.001 A 
HETATM   30  C   UNL     1      -7.055   1.645 -33.762  1.00  0.00     0.012 A 
BRANCH  26  31
HETATM   31  O   UNL     1      -5.117   0.182 -31.046  1.00  0.00    -0.355 OA
HETATM   32  C   UNL     1      -3.717  -0.048 -30.932  1.00  0.00     0.210 C 
ENDBRANCH  26  31
ENDBRANCH   4  25
TORSDOF 5
ENDMDL
MODEL 6
REMARK VINA RESULT:      -8.1      2.719      8.873
REMARK  5 active torsions:
REMARK  status: ('A' for Active; 'I' for Inactive)
REMARK       I    between atoms: C_2  and  N_3 
REMARK    1  A    between atoms: N_3  and  C_4 
REMARK    2  A    between atoms: C_7  and  C_8 
REMARK    3  A    between atoms: C_8  and  N_9 
REMARK    4  A    between atoms: C_12  and  C_13 
REMARK    5  A    between atoms: C_14  and  O_15 
ROOT
HETATM    1  N   UNL     1      -4.236   3.610 -33.074  1.00  0.00    -0.060 N 
HETATM    2  H   UNL     1      -4.419   3.008 -33.883  1.00  0.00     0.280 HD
HETATM    3  C   UNL     1      -5.573   3.940 -32.401  1.00  0.00     0.272 C 
HETATM    4  C   UNL     1      -6.437   2.721 -31.987  1.00  0.00     0.190 C 
HETATM    5  O   UNL     1      -5.760   1.956 -30.961  1.00  0.00    -0.339 OA
HETATM    6  C   UNL     1      -4.888   1.015 -31.430  1.00  0.00     0.077 A 
HETATM    7  C   UNL     1      -3.697   1.380 -32.056  1.00  0.00     0.001 A 
HETATM    8  C   UNL     1      -3.319   2.820 -32.173  1.00  0.00     0.276 C 
HETATM    9  C   UNL     1      -5.180  -0.323 -31.177  1.00  0.00     0.037 A 
HETATM   10  C   UNL     1      -4.317  -1.321 -31.622  1.00  0.00     0.003 A 
HETATM   11  C   UNL     1      -3.150  -0.977 -32.295  1.00  0.00     0.001 A 
HETATM   12  C   UNL     1      -2.834   0.368 -32.506  1.00  0.00     0.012 A 
ENDROOT
BRANCH   1  13
HETATM   13  C   UNL     1      -3.519   4.844 -33.578  1.00  0.00     0.273 C 
BRANCH  13  14
HETATM   14  C   UNL     1      -2.647   5.530 -32.561  1.00  0.00    -0.032 A 
HETATM   15  C   UNL     1      -1.255   5.538 -32.724  1.00  0.00     0.011 A 
HETATM   16  C   UNL     1      -0.429   6.178 -31.795  1.00  0.00     0.030 A 
HETATM   17  C   UNL     1      -0.971   6.830 -30.689  1.00  0.00     0.034 A 
HETATM   18  C   UNL     1      -2.362   6.822 -30.523  1.00  0.00     0.030 A 
HETATM   19  C   UNL     1      -3.194   6.175 -31.446  1.00  0.00     0.011 A 
BRANCH  17  20
HETATM   20  N   UNL     1      -0.203   7.522 -29.730  1.00  0.00    -0.328 N 
HETATM   21  C   UNL     1       0.445   6.982 -28.630  1.00  0.00     0.218 C 
HETATM   22  C   UNL     1       1.237   8.005 -27.854  1.00  0.00     0.117 C 
HETATM   23  O   UNL     1       0.436   5.806 -28.285  1.00  0.00    -0.274 OA
HETATM   24  H   UNL     1      -0.103   8.520 -29.867  1.00  0.00     0.169 HD
ENDBRANCH  17  20
ENDBRANCH  13  14
ENDBRANCH   1  13
BRANCH   4  25
HETATM   25  C   UNL     1      -7.140   1.905 -33.081  1.00  0.00     0.006 A 
HETATM   26  C   UNL     1      -8.519   1.609 -32.943  1.00  0.00     0.077 A 
HETATM   27  C   UNL     1      -9.177   0.843 -33.911  1.00  0.00     0.037 A 
HETATM   28  C   UNL     1      -8.494   0.392 -35.038  1.00  0.00     0.003 A 
HETATM   29  C   UNL     1      -7.157   0.722 -35.216  1.00  0.00     0.001 A 
HETATM   30  C   UNL     1      -6.488   1.482 -34.254  1.00  0.00     0.012 A 
BRANCH  26  31
HETATM   31  O   UNL     1      -9.135   2.142 -31.839  1.00  0.00    -0.355 OA
HETATM   32  C   UNL     1     -10.157   3.110 -32.051  1.00  0.00     0.210 C 
ENDBRANCH  26  31
ENDBRANCH   4  25
TORSDOF 5
ENDMDL
MODEL 7
REMARK VINA RESULT:      -8.0      4.544      8.503
REMARK  5 active torsions:
REMARK  status: ('A' for Active; 'I' for Inactive)
REMARK       I    between atoms: C_2  and  N_3 
REMARK    1  A    between atoms: N_3  and  C_4 
REMARK    2  A    between atoms: C_7  and  C_8 
REMARK    3  A    between atoms: C_8  and  N_9 
REMARK    4  A    between atoms: C_12  and  C_13 
REMARK    5  A    between atoms: C_14  and  O_15 
ROOT
HETATM    1  N   UNL     1      -9.415   3.336 -33.805  1.00  0.00    -0.060 N 
HETATM    2  H   UNL     1      -9.815   3.859 -33.020  1.00  0.00     0.280 HD
HETATM    3  C   UNL     1     -10.326   2.142 -34.110  1.00  0.00     0.272 C 
HETATM    4  C   UNL     1     -11.813   2.485 -34.388  1.00  0.00     0.190 C 
HETATM    5  O   UNL     1     -11.925   3.271 -35.598  1.00  0.00    -0.339 OA
HETATM    6  C   UNL     1     -11.781   4.618 -35.421  1.00  0.00     0.077 A 
HETATM    7  C   UNL     1     -10.552   5.176 -35.077  1.00  0.00     0.001 A 
HETATM    8  C   UNL     1      -9.341   4.311 -34.954  1.00  0.00     0.276 C 
HETATM    9  C   UNL     1     -12.883   5.428 -35.690  1.00  0.00     0.037 A 
HETATM   10  C   UNL     1     -12.786   6.808 -35.538  1.00  0.00     0.003 A 
HETATM   11  C   UNL     1     -11.579   7.378 -35.144  1.00  0.00     0.001 A 
HETATM   12  C   UNL     1     -10.462   6.569 -34.922  1.00  0.00     0.012 A 
ENDROOT
BRANCH   1  13
HETATM   13  C   UNL     1      -8.018   2.912 -33.403  1.00  0.00     0.273 C 
BRANCH  13  14
HETATM   14  C   UNL     1      -7.686   1.473 -33.689  1.00  0.00    -0.032 A 
HETATM   15  C   UNL     1      -7.630   0.546 -32.639  1.00  0.00     0.011 A 
HETATM   16  C   UNL     1      -7.331  -0.798 -32.885  1.00  0.00     0.030 A 
HETATM   17  C   UNL     1      -7.092  -1.249 -34.182  1.00  0.00     0.034 A 
HETATM   18  C   UNL     1      -7.144  -0.324 -35.232  1.00  0.00     0.030 A 
HETATM   19  C   UNL     1      -7.434   1.025 -34.991  1.00  0.00     0.011 A 
BRANCH  17  20
HETATM   20  N   UNL     1      -6.817  -2.594 -34.508  1.00  0.00    -0.328 N 
HETATM   21  C   UNL     1      -5.569  -3.180 -34.654  1.00  0.00     0.218 C 
HETATM   22  C   UNL     1      -5.645  -4.660 -34.936  1.00  0.00     0.117 C 
HETATM   23  O   UNL     1      -4.484  -2.619 -34.552  1.00  0.00    -0.274 OA
HETATM   24  H   UNL     1      -7.617  -3.199 -34.637  1.00  0.00     0.169 HD
ENDBRANCH  17  20
ENDBRANCH  13  14
ENDBRANCH   1  13
BRANCH   4  25
HETATM   25  C   UNL     1     -12.704   2.921 -33.216  1.00  0.00     0.006 A 
HETATM   26  C   UNL     1     -14.010   2.382 -33.104  1.00  0.00     0.077 A 
HETATM   27  C   UNL     1     -14.853   2.785 -32.063  1.00  0.00     0.037 A 
HETATM   28  C   UNL     1     -14.408   3.694 -31.106  1.00  0.00     0.003 A 
HETATM   29  C   UNL     1     -13.111   4.187 -31.169  1.00  0.00     0.001 A 
HETATM   30  C   UNL     1     -12.262   3.796 -32.207  1.00  0.00     0.012 A 
BRANCH  26  31
HETATM   31  O   UNL     1     -14.351   1.447 -34.048  1.00  0.00    -0.355 OA
HETATM   32  C   UNL     1     -14.265   0.073 -33.683  1.00  0.00     0.210 C 
ENDBRANCH  26  31
ENDBRANCH   4  25
TORSDOF 5
ENDMDL
MODEL 8
REMARK VINA RESULT:      -7.9     17.228     19.906
REMARK  5 active torsions:
REMARK  status: ('A' for Active; 'I' for Inactive)
REMARK       I    between atoms: C_2  and  N_3 
REMARK    1  A    between atoms: N_3  and  C_4 
REMARK    2  A    between atoms: C_7  and  C_8 
REMARK    3  A    between atoms: C_8  and  N_9 
REMARK    4  A    between atoms: C_12  and  C_13 
REMARK    5  A    between atoms: C_14  and  O_15 
ROOT
HETATM    1  N   UNL     1      -7.073 -13.589 -36.222  1.00  0.00    -0.060 N 
HETATM    2  H   UNL     1      -7.638 -12.917 -36.753  1.00  0.00     0.280 HD
HETATM    3  C   UNL     1      -7.647 -14.991 -36.447  1.00  0.00     0.272 C 
HETATM    4  C   UNL     1      -7.773 -15.438 -37.928  1.00  0.00     0.190 C 
HETATM    5  O   UNL     1      -6.460 -15.545 -38.529  1.00  0.00    -0.339 OA
HETATM    6  C   UNL     1      -5.975 -14.381 -39.055  1.00  0.00     0.077 A 
HETATM    7  C   UNL     1      -5.601 -13.317 -38.237  1.00  0.00     0.001 A 
HETATM    8  C   UNL     1      -5.666 -13.451 -36.751  1.00  0.00     0.276 C 
HETATM    9  C   UNL     1      -5.775 -14.327 -40.432  1.00  0.00     0.037 A 
HETATM   10  C   UNL     1      -5.269 -13.170 -41.018  1.00  0.00     0.003 A 
HETATM   11  C   UNL     1      -4.940 -12.078 -40.221  1.00  0.00     0.001 A 
HETATM   12  C   UNL     1      -5.096 -12.151 -38.835  1.00  0.00     0.012 A 
ENDROOT
BRANCH   1  13
HETATM   13  C   UNL     1      -7.116 -13.170 -34.768  1.00  0.00     0.273 C 
BRANCH  13  14
HETATM   14  C   UNL     1      -6.627 -14.208 -33.795  1.00  0.00    -0.032 A 
HETATM   15  C   UNL     1      -5.280 -14.224 -33.407  1.00  0.00     0.011 A 
HETATM   16  C   UNL     1      -4.809 -15.175 -32.497  1.00  0.00     0.030 A 
HETATM   17  C   UNL     1      -5.669 -16.124 -31.947  1.00  0.00     0.034 A 
HETATM   18  C   UNL     1      -7.015 -16.112 -32.336  1.00  0.00     0.030 A 
HETATM   19  C   UNL     1      -7.491 -15.167 -33.254  1.00  0.00     0.011 A 
BRANCH  17  20
HETATM   20  N   UNL     1      -5.271 -17.092 -31.002  1.00  0.00    -0.328 N 
HETATM   21  C   UNL     1      -5.101 -16.908 -29.639  1.00  0.00     0.218 C 
HETATM   22  C   UNL     1      -4.736 -18.181 -28.915  1.00  0.00     0.117 C 
HETATM   23  O   UNL     1      -5.240 -15.858 -29.022  1.00  0.00    -0.274 OA
HETATM   24  H   UNL     1      -5.103 -18.025 -31.355  1.00  0.00     0.169 HD
ENDBRANCH  17  20
ENDBRANCH  13  14
ENDBRANCH   1  13
BRANCH   4  25
HETATM   25  C   UNL     1      -8.864 -14.805 -38.802  1.00  0.00     0.006 A 
HETATM   26  C   UNL     1      -9.514 -15.600 -39.777  1.00  0.00     0.077 A 
HETATM   27  C   UNL     1     -10.491 -15.040 -40.608  1.00  0.00     0.037 A 
HETATM   28  C   UNL     1     -10.861 -13.705 -40.461  1.00  0.00     0.003 A 
HETATM   29  C   UNL     1     -10.275 -12.928 -39.471  1.00  0.00     0.001 A 
HETATM   30  C   UNL     1      -9.294 -13.475 -38.640  1.00  0.00     0.012 A 
BRANCH  26  31
HETATM   31  O   UNL     1      -9.140 -16.919 -39.817  1.00  0.00    -0.355 OA
HETATM   32  C   UNL     1     -10.127 -17.899 -39.514  1.00  0.00     0.210 C 
ENDBRANCH  26  31
ENDBRANCH   4  25
TORSDOF 5
ENDMDL
MODEL 9
REMARK VINA RESULT:      -7.8      3.204      5.383
REMARK  5 active torsions:
REMARK  status: ('A' for Active; 'I' for Inactive)
REMARK       I    between atoms: C_2  and  N_3 
REMARK    1  A    between atoms: N_3  and  C_4 
REMARK    2  A    between atoms: C_7  and  C_8 
REMARK    3  A    between atoms: C_8  and  N_9 
REMARK    4  A    between atoms: C_12  and  C_13 
REMARK    5  A    between atoms: C_14  and  O_15 
ROOT
HETATM    1  N   UNL     1      -7.311   3.784 -33.074  1.00  0.00    -0.060 N 
HETATM    2  H   UNL     1      -7.140   3.535 -32.094  1.00  0.00     0.280 HD
HETATM    3  C   UNL     1      -7.784   5.240 -33.130  1.00  0.00     0.272 C 
HETATM    4  C   UNL     1      -6.847   6.280 -32.461  1.00  0.00     0.190 C 
HETATM    5  O   UNL     1      -5.585   6.341 -33.168  1.00  0.00    -0.339 OA
HETATM    6  C   UNL     1      -4.655   5.429 -32.759  1.00  0.00     0.077 A 
HETATM    7  C   UNL     1      -4.818   4.067 -33.006  1.00  0.00     0.001 A 
HETATM    8  C   UNL     1      -5.995   3.579 -33.785  1.00  0.00     0.276 C 
HETATM    9  C   UNL     1      -3.488   5.913 -32.171  1.00  0.00     0.037 A 
HETATM   10  C   UNL     1      -2.501   5.026 -31.748  1.00  0.00     0.003 A 
HETATM   11  C   UNL     1      -2.672   3.659 -31.940  1.00  0.00     0.001 A 
HETATM   12  C   UNL     1      -3.820   3.179 -32.573  1.00  0.00     0.012 A 
ENDROOT
BRANCH   1  13
HETATM   13  C   UNL     1      -8.341   2.817 -33.617  1.00  0.00     0.273 C 
BRANCH  13  14
HETATM   14  C   UNL     1      -7.850   1.408 -33.806  1.00  0.00    -0.032 A 
HETATM   15  C   UNL     1      -7.390   0.674 -32.705  1.00  0.00     0.011 A 
HETATM   16  C   UNL     1      -6.937  -0.641 -32.859  1.00  0.00     0.030 A 
HETATM   17  C   UNL     1      -6.943  -1.255 -34.110  1.00  0.00     0.034 A 
HETATM   18  C   UNL     1      -7.400  -0.522 -35.213  1.00  0.00     0.030 A 
HETATM   19  C   UNL     1      -7.846   0.798 -35.066  1.00  0.00     0.011 A 
BRANCH  17  20
HETATM   20  N   UNL     1      -6.532  -2.585 -34.335  1.00  0.00    -0.328 N 
HETATM   21  C   UNL     1      -5.231  -3.061 -34.384  1.00  0.00     0.218 C 
HETATM   22  C   UNL     1      -5.159  -4.557 -34.573  1.00  0.00     0.117 C 
HETATM   23  O   UNL     1      -4.207  -2.397 -34.269  1.00  0.00    -0.274 OA
HETATM   24  H   UNL     1      -7.267  -3.269 -34.461  1.00  0.00     0.169 HD
ENDBRANCH  17  20
ENDBRANCH  13  14
ENDBRANCH   1  13
BRANCH   4  25
HETATM   25  C   UNL     1      -6.763   6.321 -30.929  1.00  0.00     0.006 A 
HETATM   26  C   UNL     1      -6.363   7.522 -30.292  1.00  0.00     0.077 A 
HETATM   27  C   UNL     1      -6.248   7.579 -28.899  1.00  0.00     0.037 A 
HETATM   28  C   UNL     1      -6.561   6.467 -28.120  1.00  0.00     0.003 A 
HETATM   29  C   UNL     1      -7.010   5.301 -28.725  1.00  0.00     0.001 A 
HETATM   30  C   UNL     1      -7.122   5.231 -30.115  1.00  0.00     0.012 A 
BRANCH  26  31
HETATM   31  O   UNL     1      -6.134   8.590 -31.124  1.00  0.00    -0.355 OA
HETATM   32  C   UNL     1      -4.935   9.333 -30.935  1.00  0.00     0.210 C 
ENDBRANCH  26  31
ENDBRANCH   4  25
TORSDOF 5
ENDMDL
MODEL 10
REMARK VINA RESULT:      -7.8      4.182      7.519
REMARK  5 active torsions:
REMARK  status: ('A' for Active; 'I' for Inactive)
REMARK       I    between atoms: C_2  and  N_3 
REMARK    1  A    between atoms: N_3  and  C_4 
REMARK    2  A    between atoms: C_7  and  C_8 
REMARK    3  A    between atoms: C_8  and  N_9 
REMARK    4  A    between atoms: C_12  and  C_13 
REMARK    5  A    between atoms: C_14  and  O_15 
ROOT
HETATM    1  N   UNL     1      -8.560   3.251 -33.269  1.00  0.00    -0.060 N 
HETATM    2  H   UNL     1      -8.829   3.580 -34.202  1.00  0.00     0.280 HD
HETATM    3  C   UNL     1      -8.753   4.400 -32.274  1.00  0.00     0.272 C 
HETATM    4  C   UNL     1     -10.169   5.031 -32.240  1.00  0.00     0.190 C 
HETATM    5  O   UNL     1     -11.136   4.058 -31.775  1.00  0.00    -0.339 OA
HETATM    6  C   UNL     1     -11.656   3.256 -32.750  1.00  0.00     0.077 A 
HETATM    7  C   UNL     1     -10.876   2.294 -33.388  1.00  0.00     0.001 A 
HETATM    8  C   UNL     1      -9.459   2.076 -32.971  1.00  0.00     0.276 C 
HETATM    9  C   UNL     1     -13.018   3.365 -33.020  1.00  0.00     0.037 A 
HETATM   10  C   UNL     1     -13.602   2.560 -33.995  1.00  0.00     0.003 A 
HETATM   11  C   UNL     1     -12.826   1.630 -34.679  1.00  0.00     0.001 A 
HETATM   12  C   UNL     1     -11.470   1.489 -34.373  1.00  0.00     0.012 A 
ENDROOT
BRANCH   1  13
HETATM   13  C   UNL     1      -7.121   2.786 -33.347  1.00  0.00     0.273 C 
BRANCH  13  14
HETATM   14  C   UNL     1      -6.943   1.325 -33.655  1.00  0.00    -0.032 A 
HETATM   15  C   UNL     1      -6.499   0.448 -32.655  1.00  0.00     0.011 A 
HETATM   16  C   UNL     1      -6.336  -0.916 -32.920  1.00  0.00     0.030 A 
HETATM   17  C   UNL     1      -6.619  -1.436 -34.181  1.00  0.00     0.034 A 
HETATM   18  C   UNL     1      -7.060  -0.562 -35.182  1.00  0.00     0.030 A 
HETATM   19  C   UNL     1      -7.217   0.807 -34.926  1.00  0.00     0.011 A 
BRANCH  17  20
HETATM   20  N   UNL     1      -6.508  -2.803 -34.510  1.00  0.00    -0.328 N 
HETATM   21  C   UNL     1      -5.341  -3.532 -34.671  1.00  0.00     0.218 C 
HETATM   22  C   UNL     1      -5.593  -4.993 -34.952  1.00  0.00     0.117 C 
HETATM   23  O   UNL     1      -4.196  -3.102 -34.584  1.00  0.00    -0.274 OA
HETATM   24  H   UNL     1      -7.376  -3.310 -34.628  1.00  0.00     0.169 HD
ENDBRANCH  17  20
ENDBRANCH  13  14
ENDBRANCH   1  13
BRANCH   4  25
HETATM   25  C   UNL     1     -10.615   5.914 -33.414  1.00  0.00     0.006 A 
HETATM   26  C   UNL     1     -11.646   6.864 -33.210  1.00  0.00     0.077 A 
HETATM   27  C   UNL     1     -12.092   7.661 -34.269  1.00  0.00     0.037 A 
HETATM   28  C   UNL     1     -11.504   7.555 -35.528  1.00  0.00     0.003 A 
HETATM   29  C   UNL     1     -10.453   6.670 -35.729  1.00  0.00     0.001 A 
HETATM   30  C   UNL     1     -10.003   5.866 -34.680  1.00  0.00     0.012 A 
BRANCH  26  31
HETATM   31  O   UNL     1     -12.130   6.952 -31.928  1.00  0.00    -0.355 OA
HETATM   32  C   UNL     1     -13.542   6.958 -31.752  1.00  0.00     0.210 C 
ENDBRANCH  26  31
ENDBRANCH   4  25
TORSDOF 5
ENDMDL
