MODEL 1
REMARK VINA RESULT:      -8.3      0.000      0.000
REMARK  10 active torsions:
REMARK  status: ('A' for Active; 'I' for Inactive)
REMARK    1  A    between atoms: C_2  and  O_3 
REMARK    2  A    between atoms: O_3  and  C_4 
REMARK    3  A    between atoms: C_7  and  C_8 
REMARK    4  A    between atoms: C_8  and  C_9 
REMARK    5  A    between atoms: C_10  and  C_11 
REMARK    6  A    between atoms: C_13  and  N_14 
REMARK    7  A    between atoms: N_20  and  C_21 
REMARK    8  A    between atoms: C_21  and  C_22 
REMARK    9  A    between atoms: C_22  and  N_23 
REMARK   10  A    between atoms: C_34  and  O_35 
ROOT
HETATM    1  C   UNL     1      -8.413   3.194 -32.661  1.00  0.00     0.059 C 
HETATM    2  C   UNL     1      -6.924   3.170 -32.604  1.00  0.00     0.161 C 
HETATM    3  N   UNL     1      -6.644   4.502 -32.094  1.00  0.00    -0.332 N 
HETATM    4  C   UNL     1      -7.780   5.296 -32.140  1.00  0.00     0.278 C 
HETATM    5  O   UNL     1      -7.757   6.517 -32.163  1.00  0.00    -0.265 OA
HETATM    6  C   UNL     1      -8.933   4.391 -32.357  1.00  0.00     0.146 C 
ENDROOT
BRANCH   1   7
HETATM    7  C   UNL     1      -9.261   2.123 -33.217  1.00  0.00     0.193 C 
HETATM    8  O   UNL     1     -10.457   2.290 -33.400  1.00  0.00    -0.287 OA
BRANCH   7   9
HETATM    9  C   UNL     1      -8.540   0.950 -33.740  1.00  0.00     0.015 A 
HETATM   10  C   UNL     1      -8.432  -0.224 -32.995  1.00  0.00     0.018 A 
HETATM   11  C   UNL     1      -7.561  -1.231 -33.425  1.00  0.00     0.038 A 
HETATM   12  C   UNL     1      -6.817  -1.061 -34.595  1.00  0.00     0.069 A 
HETATM   13  C   UNL     1      -7.003   0.083 -35.377  1.00  0.00     0.038 A 
HETATM   14  C   UNL     1      -7.856   1.098 -34.949  1.00  0.00     0.018 A 
BRANCH  12  15
HETATM   15  O   UNL     1      -5.922  -1.957 -35.102  1.00  0.00    -0.347 OA
BRANCH  15  16
HETATM   16  C   UNL     1      -5.787  -3.223 -34.441  1.00  0.00     0.120 C 
HETATM   17  C   UNL     1      -4.308  -3.580 -34.295  1.00  0.00     0.040 C 
HETATM   18  C   UNL     1      -6.486  -4.253 -35.323  1.00  0.00     0.040 C 
ENDBRANCH  15  16
ENDBRANCH  12  15
ENDBRANCH   7   9
ENDBRANCH   1   7
BRANCH   2  19
HETATM   19  C   UNL     1      -6.257   2.099 -31.774  1.00  0.00    -0.028 A 
HETATM   20  C   UNL     1      -5.133   1.442 -32.306  1.00  0.00     0.045 A 
HETATM   21  C   UNL     1      -4.441   0.484 -31.551  1.00  0.00     0.103 A 
HETATM   22  C   UNL     1      -4.870   0.144 -30.268  1.00  0.00     0.036 A 
HETATM   23  C   UNL     1      -5.989   0.788 -29.736  1.00  0.00     0.003 A 
HETATM   24  C   UNL     1      -6.670   1.765 -30.476  1.00  0.00     0.010 A 
BRANCH  21  25
HETATM   25  N   UNL     1      -3.233  -0.126 -32.117  1.00  0.00    -0.116 N 
HETATM   26  O   UNL     1      -3.251  -0.369 -33.336  1.00  0.00    -0.532 OA
HETATM   27  O   UNL     1      -2.283  -0.341 -31.361  1.00  0.00    -0.532 OA
ENDBRANCH  21  25
ENDBRANCH   2  19
BRANCH   6  28
HETATM   28  O   UNL     1     -10.232   4.798 -32.421  1.00  0.00    -0.355 OA
HETATM   29  H   UNL     1     -10.780   4.150 -31.920  1.00  0.00     0.218 HD
ENDBRANCH   6  28
BRANCH   3  30
HETATM   30  C   UNL     1      -5.320   5.094 -32.058  1.00  0.00     0.155 C 
BRANCH  30  31
HETATM   31  C   UNL     1      -4.784   5.388 -33.471  1.00  0.00     0.254 C 
BRANCH  31  32
HETATM   32  N   UNL     1      -3.519   4.598 -33.799  1.00  0.00    -0.066 N 
HETATM   33  H   UNL     1      -3.846   3.718 -34.234  1.00  0.00     0.280 HD
HETATM   34  C   UNL     1      -2.696   4.179 -32.564  1.00  0.00     0.262 C 
HETATM   35  C   UNL     1      -1.897   5.363 -31.965  1.00  0.00     0.260 C 
HETATM   36  N   UNL     1      -1.075   6.058 -33.033  1.00  0.00    -0.072 N 
HETATM   37  H   UNL     1      -0.267   5.471 -33.301  1.00  0.00     0.277 HD
HETATM   38  H   UNL     1      -0.638   6.896 -32.610  1.00  0.00     0.277 HD
HETATM   39  C   UNL     1      -1.857   6.478 -34.252  1.00  0.00     0.260 C 
HETATM   40  C   UNL     1      -2.645   5.287 -34.851  1.00  0.00     0.262 C 
ENDBRANCH  31  32
ENDBRANCH  30  31
ENDBRANCH   3  30
TORSDOF 10
ENDMDL
MODEL 2
REMARK VINA RESULT:      -8.2      2.383      5.418
REMARK  10 active torsions:
REMARK  status: ('A' for Active; 'I' for Inactive)
REMARK    1  A    between atoms: C_2  and  O_3 
REMARK    2  A    between atoms: O_3  and  C_4 
REMARK    3  A    between atoms: C_7  and  C_8 
REMARK    4  A    between atoms: C_8  and  C_9 
REMARK    5  A    between atoms: C_10  and  C_11 
REMARK    6  A    between atoms: C_13  and  N_14 
REMARK    7  A    between atoms: N_20  and  C_21 
REMARK    8  A    between atoms: C_21  and  C_22 
REMARK    9  A    between atoms: C_22  and  N_23 
REMARK   10  A    between atoms: C_34  and  O_35 
ROOT
HETATM    1  C   UNL     1      -4.707   2.157 -31.241  1.00  0.00     0.059 C 
HETATM    2  C   UNL     1      -5.123   3.146 -32.275  1.00  0.00     0.161 C 
HETATM    3  N   UNL     1      -6.204   3.831 -31.585  1.00  0.00    -0.332 N 
HETATM    4  C   UNL     1      -6.572   3.141 -30.439  1.00  0.00     0.278 C 
HETATM    5  O   UNL     1      -7.665   3.244 -29.905  1.00  0.00    -0.265 OA
HETATM    6  C   UNL     1      -5.495   2.163 -30.158  1.00  0.00     0.146 C 
ENDROOT
BRANCH   1   7
HETATM    7  C   UNL     1      -3.698   1.099 -31.432  1.00  0.00     0.193 C 
HETATM    8  O   UNL     1      -2.638   1.112 -30.824  1.00  0.00    -0.287 OA
BRANCH   7   9
HETATM    9  C   UNL     1      -4.143  -0.069 -32.212  1.00  0.00     0.015 A 
HETATM   10  C   UNL     1      -3.474  -1.290 -32.131  1.00  0.00     0.018 A 
HETATM   11  C   UNL     1      -3.785  -2.305 -33.043  1.00  0.00     0.038 A 
HETATM   12  C   UNL     1      -4.764  -2.094 -34.018  1.00  0.00     0.069 A 
HETATM   13  C   UNL     1      -5.486  -0.897 -34.030  1.00  0.00     0.038 A 
HETATM   14  C   UNL     1      -5.173   0.125 -33.136  1.00  0.00     0.018 A 
BRANCH  12  15
HETATM   15  O   UNL     1      -5.137  -2.994 -34.973  1.00  0.00    -0.347 OA
BRANCH  15  16
HETATM   16  C   UNL     1      -5.790  -4.198 -34.547  1.00  0.00     0.120 C 
HETATM   17  C   UNL     1      -4.757  -5.306 -34.342  1.00  0.00     0.040 C 
HETATM   18  C   UNL     1      -6.757  -4.587 -35.661  1.00  0.00     0.040 C 
ENDBRANCH  15  16
ENDBRANCH  12  15
ENDBRANCH   7   9
ENDBRANCH   1   7
BRANCH   2  19
HETATM   19  C   UNL     1      -4.088   4.114 -32.797  1.00  0.00    -0.028 A 
HETATM   20  C   UNL     1      -2.974   4.404 -31.988  1.00  0.00     0.045 A 
HETATM   21  C   UNL     1      -1.955   5.249 -32.452  1.00  0.00     0.103 A 
HETATM   22  C   UNL     1      -2.040   5.840 -33.712  1.00  0.00     0.036 A 
HETATM   23  C   UNL     1      -3.147   5.562 -34.517  1.00  0.00     0.003 A 
HETATM   24  C   UNL     1      -4.157   4.698 -34.070  1.00  0.00     0.010 A 
BRANCH  21  25
HETATM   25  N   UNL     1      -0.777   5.467 -31.605  1.00  0.00    -0.116 N 
HETATM   26  O   UNL     1      -0.429   4.520 -30.880  1.00  0.00    -0.532 OA
HETATM   27  O   UNL     1      -0.206   6.558 -31.677  1.00  0.00    -0.532 OA
ENDBRANCH  21  25
ENDBRANCH   2  19
BRANCH   6  28
HETATM   28  O   UNL     1      -5.478   1.323 -29.085  1.00  0.00    -0.355 OA
HETATM   29  H   UNL     1      -5.728   0.422 -29.398  1.00  0.00     0.218 HD
ENDBRANCH   6  28
BRANCH   3  30
HETATM   30  C   UNL     1      -7.121   4.752 -32.230  1.00  0.00     0.155 C 
BRANCH  30  31
HETATM   31  C   UNL     1      -7.952   4.061 -33.326  1.00  0.00     0.254 C 
BRANCH  31  32
HETATM   32  N   UNL     1      -9.028   3.139 -32.759  1.00  0.00    -0.066 N 
HETATM   33  H   UNL     1      -9.027   3.307 -31.738  1.00  0.00     0.280 HD
HETATM   34  C   UNL     1      -8.735   1.636 -32.941  1.00  0.00     0.262 C 
HETATM   35  C   UNL     1      -8.984   1.164 -34.395  1.00  0.00     0.260 C 
HETATM   36  N   UNL     1     -10.366   1.573 -34.867  1.00  0.00    -0.072 N 
HETATM   37  H   UNL     1     -11.088   0.990 -34.410  1.00  0.00     0.277 HD
HETATM   38  H   UNL     1     -10.451   1.324 -35.869  1.00  0.00     0.277 HD
HETATM   39  C   UNL     1     -10.678   3.039 -34.700  1.00  0.00     0.260 C 
HETATM   40  C   UNL     1     -10.435   3.501 -33.242  1.00  0.00     0.262 C 
ENDBRANCH  31  32
ENDBRANCH  30  31
ENDBRANCH   3  30
TORSDOF 10
ENDMDL
MODEL 3
REMARK VINA RESULT:      -8.1      2.650      3.691
REMARK  10 active torsions:
REMARK  status: ('A' for Active; 'I' for Inactive)
REMARK    1  A    between atoms: C_2  and  O_3 
REMARK    2  A    between atoms: O_3  and  C_4 
REMARK    3  A    between atoms: C_7  and  C_8 
REMARK    4  A    between atoms: C_8  and  C_9 
REMARK    5  A    between atoms: C_10  and  C_11 
REMARK    6  A    between atoms: C_13  and  N_14 
REMARK    7  A    between atoms: N_20  and  C_21 
REMARK    8  A    between atoms: C_21  and  C_22 
REMARK    9  A    between atoms: C_22  and  N_23 
REMARK   10  A    between atoms: C_34  and  O_35 
ROOT
HETATM    1  C   UNL     1      -8.148   3.270 -31.784  1.00  0.00     0.059 C 
HETATM    2  C   UNL     1      -7.181   4.377 -32.030  1.00  0.00     0.161 C 
HETATM    3  N   UNL     1      -7.369   5.182 -30.835  1.00  0.00    -0.332 N 
HETATM    4  C   UNL     1      -8.500   4.775 -30.140  1.00  0.00     0.278 C 
HETATM    5  O   UNL     1      -9.113   5.488 -29.361  1.00  0.00    -0.265 OA
HETATM    6  C   UNL     1      -8.888   3.452 -30.682  1.00  0.00     0.146 C 
ENDROOT
BRANCH   1   7
HETATM    7  C   UNL     1      -8.470   2.193 -32.737  1.00  0.00     0.193 C 
HETATM    8  O   UNL     1      -9.354   2.323 -33.571  1.00  0.00    -0.287 OA
BRANCH   7   9
HETATM    9  C   UNL     1      -7.520   1.067 -32.768  1.00  0.00     0.015 A 
HETATM   10  C   UNL     1      -7.209   0.351 -31.613  1.00  0.00     0.018 A 
HETATM   11  C   UNL     1      -6.147  -0.559 -31.635  1.00  0.00     0.038 A 
HETATM   12  C   UNL     1      -5.413  -0.751 -32.808  1.00  0.00     0.069 A 
HETATM   13  C   UNL     1      -5.793  -0.091 -33.981  1.00  0.00     0.038 A 
HETATM   14  C   UNL     1      -6.839   0.829 -33.965  1.00  0.00     0.018 A 
BRANCH  12  15
HETATM   15  O   UNL     1      -4.346  -1.589 -32.946  1.00  0.00    -0.347 OA
BRANCH  15  16
HETATM   16  C   UNL     1      -3.524  -1.831 -31.796  1.00  0.00     0.120 C 
HETATM   17  C   UNL     1      -2.359  -0.840 -31.771  1.00  0.00     0.040 C 
HETATM   18  C   UNL     1      -2.993  -3.255 -31.931  1.00  0.00     0.040 C 
ENDBRANCH  15  16
ENDBRANCH  12  15
ENDBRANCH   7   9
ENDBRANCH   1   7
BRANCH   2  19
HETATM   19  C   UNL     1      -5.728   4.023 -32.245  1.00  0.00    -0.028 A 
HETATM   20  C   UNL     1      -5.057   4.591 -33.343  1.00  0.00     0.045 A 
HETATM   21  C   UNL     1      -3.692   4.343 -33.551  1.00  0.00     0.103 A 
HETATM   22  C   UNL     1      -2.981   3.507 -32.690  1.00  0.00     0.036 A 
HETATM   23  C   UNL     1      -3.644   2.935 -31.603  1.00  0.00     0.003 A 
HETATM   24  C   UNL     1      -5.002   3.199 -31.373  1.00  0.00     0.010 A 
BRANCH  21  25
HETATM   25  N   UNL     1      -3.015   5.011 -34.668  1.00  0.00    -0.116 N 
HETATM   26  O   UNL     1      -1.773   4.956 -34.679  1.00  0.00    -0.532 OA
HETATM   27  O   UNL     1      -3.712   5.564 -35.522  1.00  0.00    -0.532 OA
ENDBRANCH  21  25
ENDBRANCH   2  19
BRANCH   6  28
HETATM   28  O   UNL     1      -9.934   2.709 -30.224  1.00  0.00    -0.355 OA
HETATM   29  H   UNL     1     -10.730   2.939 -30.759  1.00  0.00     0.218 HD
ENDBRANCH   6  28
BRANCH   3  30
HETATM   30  C   UNL     1      -6.827   6.516 -30.663  1.00  0.00     0.155 C 
BRANCH  30  31
HETATM   31  C   UNL     1      -5.722   6.553 -29.591  1.00  0.00     0.254 C 
BRANCH  31  32
HETATM   32  N   UNL     1      -4.692   7.653 -29.842  1.00  0.00    -0.066 N 
HETATM   33  H   UNL     1      -5.228   8.453 -30.221  1.00  0.00     0.280 HD
HETATM   34  C   UNL     1      -3.641   7.302 -30.914  1.00  0.00     0.262 C 
HETATM   35  C   UNL     1      -2.573   6.313 -30.384  1.00  0.00     0.260 C 
HETATM   36  N   UNL     1      -1.971   6.812 -29.085  1.00  0.00    -0.072 N 
HETATM   37  H   UNL     1      -1.338   7.609 -29.266  1.00  0.00     0.277 HD
HETATM   38  H   UNL     1      -1.338   6.078 -28.720  1.00  0.00     0.277 HD
HETATM   39  C   UNL     1      -2.979   7.161 -28.019  1.00  0.00     0.260 C 
HETATM   40  C   UNL     1      -4.037   8.158 -28.554  1.00  0.00     0.262 C 
ENDBRANCH  31  32
ENDBRANCH  30  31
ENDBRANCH   3  30
TORSDOF 10
ENDMDL
MODEL 4
REMARK VINA RESULT:      -7.7      3.277      7.953
REMARK  10 active torsions:
REMARK  status: ('A' for Active; 'I' for Inactive)
REMARK    1  A    between atoms: C_2  and  O_3 
REMARK    2  A    between atoms: O_3  and  C_4 
REMARK    3  A    between atoms: C_7  and  C_8 
REMARK    4  A    between atoms: C_8  and  C_9 
REMARK    5  A    between atoms: C_10  and  C_11 
REMARK    6  A    between atoms: C_13  and  N_14 
REMARK    7  A    between atoms: N_20  and  C_21 
REMARK    8  A    between atoms: C_21  and  C_22 
REMARK    9  A    between atoms: C_22  and  N_23 
REMARK   10  A    between atoms: C_34  and  O_35 
ROOT
HETATM    1  C   UNL     1      -6.345   6.301 -31.811  1.00  0.00     0.059 C 
HETATM    2  C   UNL     1      -5.740   4.971 -32.103  1.00  0.00     0.161 C 
HETATM    3  N   UNL     1      -6.379   4.647 -33.367  1.00  0.00    -0.332 N 
HETATM    4  C   UNL     1      -7.434   5.512 -33.622  1.00  0.00     0.278 C 
HETATM    5  O   UNL     1      -8.366   5.247 -34.365  1.00  0.00    -0.265 OA
HETATM    6  C   UNL     1      -7.290   6.656 -32.692  1.00  0.00     0.146 C 
ENDROOT
BRANCH   1   7
HETATM    7  C   UNL     1      -6.141   7.076 -30.573  1.00  0.00     0.193 C 
HETATM    8  O   UNL     1      -7.072   7.334 -29.823  1.00  0.00    -0.287 OA
BRANCH   7   9
HETATM    9  C   UNL     1      -4.737   7.310 -30.194  1.00  0.00     0.015 A 
HETATM   10  C   UNL     1      -4.204   6.769 -29.024  1.00  0.00     0.018 A 
HETATM   11  C   UNL     1      -2.944   7.189 -28.586  1.00  0.00     0.038 A 
HETATM   12  C   UNL     1      -2.227   8.136 -29.322  1.00  0.00     0.069 A 
HETATM   13  C   UNL     1      -2.737   8.603 -30.537  1.00  0.00     0.038 A 
HETATM   14  C   UNL     1      -3.998   8.201 -30.974  1.00  0.00     0.018 A 
BRANCH  12  15
HETATM   15  O   UNL     1      -1.005   8.640 -28.986  1.00  0.00    -0.347 OA
BRANCH  15  16
HETATM   16  C   UNL     1       0.042   7.714 -28.664  1.00  0.00     0.120 C 
HETATM   17  C   UNL     1       1.224   8.458 -28.043  1.00  0.00     0.040 C 
HETATM   18  C   UNL     1       0.468   7.063 -29.977  1.00  0.00     0.040 C 
ENDBRANCH  15  16
ENDBRANCH  12  15
ENDBRANCH   7   9
ENDBRANCH   1   7
BRANCH   2  19
HETATM   19  C   UNL     1      -4.236   4.874 -32.194  1.00  0.00    -0.028 A 
HETATM   20  C   UNL     1      -3.575   5.626 -33.181  1.00  0.00     0.045 A 
HETATM   21  C   UNL     1      -2.174   5.618 -33.267  1.00  0.00     0.103 A 
HETATM   22  C   UNL     1      -1.413   4.842 -32.395  1.00  0.00     0.036 A 
HETATM   23  C   UNL     1      -2.064   4.087 -31.417  1.00  0.00     0.003 A 
HETATM   24  C   UNL     1      -3.461   4.110 -31.308  1.00  0.00     0.010 A 
BRANCH  21  25
HETATM   25  N   UNL     1      -1.523   6.472 -34.266  1.00  0.00    -0.116 N 
HETATM   26  O   UNL     1      -0.934   5.894 -35.195  1.00  0.00    -0.532 OA
HETATM   27  O   UNL     1      -1.613   7.695 -34.130  1.00  0.00    -0.532 OA
ENDBRANCH  21  25
ENDBRANCH   2  19
BRANCH   6  28
HETATM   28  O   UNL     1      -8.119   7.737 -32.666  1.00  0.00    -0.355 OA
HETATM   29  H   UNL     1      -8.366   7.909 -31.727  1.00  0.00     0.218 HD
ENDBRANCH   6  28
BRANCH   3  30
HETATM   30  C   UNL     1      -6.316   3.340 -33.995  1.00  0.00     0.155 C 
BRANCH  30  31
HETATM   31  C   UNL     1      -6.668   2.212 -33.009  1.00  0.00     0.254 C 
BRANCH  31  32
HETATM   32  N   UNL     1      -7.577   1.151 -33.626  1.00  0.00    -0.066 N 
HETATM   33  H   UNL     1      -7.008   0.689 -34.357  1.00  0.00     0.280 HD
HETATM   34  C   UNL     1      -8.814   1.720 -34.349  1.00  0.00     0.262 C 
HETATM   35  C   UNL     1      -9.905   2.192 -33.356  1.00  0.00     0.260 C 
HETATM   36  N   UNL     1     -10.236   1.101 -32.356  1.00  0.00    -0.072 N 
HETATM   37  H   UNL     1     -10.783   0.351 -32.812  1.00  0.00     0.277 HD
HETATM   38  H   UNL     1     -10.894   1.491 -31.658  1.00  0.00     0.277 HD
HETATM   39  C   UNL     1      -9.043   0.527 -31.635  1.00  0.00     0.260 C 
HETATM   40  C   UNL     1      -7.960   0.049 -32.634  1.00  0.00     0.262 C 
ENDBRANCH  31  32
ENDBRANCH  30  31
ENDBRANCH   3  30
TORSDOF 10
ENDMDL
MODEL 5
REMARK VINA RESULT:      -7.7      3.016      4.679
REMARK  10 active torsions:
REMARK  status: ('A' for Active; 'I' for Inactive)
REMARK    1  A    between atoms: C_2  and  O_3 
REMARK    2  A    between atoms: O_3  and  C_4 
REMARK    3  A    between atoms: C_7  and  C_8 
REMARK    4  A    between atoms: C_8  and  C_9 
REMARK    5  A    between atoms: C_10  and  C_11 
REMARK    6  A    between atoms: C_13  and  N_14 
REMARK    7  A    between atoms: N_20  and  C_21 
REMARK    8  A    between atoms: C_21  and  C_22 
REMARK    9  A    between atoms: C_22  and  N_23 
REMARK   10  A    between atoms: C_34  and  O_35 
ROOT
HETATM    1  C   UNL     1      -6.617   5.758 -30.496  1.00  0.00     0.059 C 
HETATM    2  C   UNL     1      -5.341   6.384 -30.944  1.00  0.00     0.161 C 
HETATM    3  N   UNL     1      -4.831   6.905 -29.687  1.00  0.00    -0.332 N 
HETATM    4  C   UNL     1      -5.809   6.864 -28.704  1.00  0.00     0.278 C 
HETATM    5  O   UNL     1      -5.806   7.575 -27.711  1.00  0.00    -0.265 OA
HETATM    6  C   UNL     1      -6.889   5.981 -29.203  1.00  0.00     0.146 C 
ENDROOT
BRANCH   1   7
HETATM    7  C   UNL     1      -7.628   5.156 -31.385  1.00  0.00     0.193 C 
HETATM    8  O   UNL     1      -8.420   5.847 -32.009  1.00  0.00    -0.287 OA
BRANCH   7   9
HETATM    9  C   UNL     1      -7.470   3.714 -31.641  1.00  0.00     0.015 A 
HETATM   10  C   UNL     1      -7.480   2.788 -30.598  1.00  0.00     0.018 A 
HETATM   11  C   UNL     1      -7.109   1.463 -30.853  1.00  0.00     0.038 A 
HETATM   12  C   UNL     1      -6.742   1.075 -32.144  1.00  0.00     0.069 A 
HETATM   13  C   UNL     1      -6.822   1.994 -33.195  1.00  0.00     0.038 A 
HETATM   14  C   UNL     1      -7.175   3.319 -32.948  1.00  0.00     0.018 A 
BRANCH  12  15
HETATM   15  O   UNL     1      -6.340  -0.176 -32.511  1.00  0.00    -0.347 OA
BRANCH  15  16
HETATM   16  C   UNL     1      -5.602  -0.317 -33.732  1.00  0.00     0.120 C 
HETATM   17  C   UNL     1      -6.220  -1.422 -34.589  1.00  0.00     0.040 C 
HETATM   18  C   UNL     1      -4.177  -0.698 -33.340  1.00  0.00     0.040 C 
ENDBRANCH  15  16
ENDBRANCH  12  15
ENDBRANCH   7   9
ENDBRANCH   1   7
BRANCH   2  19
HETATM   19  C   UNL     1      -4.325   5.514 -31.645  1.00  0.00    -0.028 A 
HETATM   20  C   UNL     1      -3.604   6.061 -32.721  1.00  0.00     0.045 A 
HETATM   21  C   UNL     1      -2.606   5.315 -33.366  1.00  0.00     0.103 A 
HETATM   22  C   UNL     1      -2.328   4.007 -32.970  1.00  0.00     0.036 A 
HETATM   23  C   UNL     1      -3.046   3.455 -31.906  1.00  0.00     0.003 A 
HETATM   24  C   UNL     1      -4.027   4.204 -31.241  1.00  0.00     0.010 A 
BRANCH  21  25
HETATM   25  N   UNL     1      -1.830   5.949 -34.437  1.00  0.00    -0.116 N 
HETATM   26  O   UNL     1      -1.658   7.177 -34.349  1.00  0.00    -0.532 OA
HETATM   27  O   UNL     1      -1.389   5.229 -35.337  1.00  0.00    -0.532 OA
ENDBRANCH  21  25
ENDBRANCH   2  19
BRANCH   6  28
HETATM   28  O   UNL     1      -8.011   5.661 -28.499  1.00  0.00    -0.355 OA
HETATM   29  H   UNL     1      -8.519   6.491 -28.341  1.00  0.00     0.218 HD
ENDBRANCH   6  28
BRANCH   3  30
HETATM   30  C   UNL     1      -3.706   7.816 -29.585  1.00  0.00     0.155 C 
BRANCH  30  31
HETATM   31  C   UNL     1      -2.570   7.230 -28.727  1.00  0.00     0.254 C 
BRANCH  31  32
HETATM   32  N   UNL     1      -1.185   7.554 -29.283  1.00  0.00    -0.066 N 
HETATM   33  H   UNL     1      -1.242   8.531 -29.619  1.00  0.00     0.280 HD
HETATM   34  C   UNL     1      -0.779   6.707 -30.506  1.00  0.00     0.262 C 
HETATM   35  C   UNL     1      -0.372   5.266 -30.110  1.00  0.00     0.260 C 
HETATM   36  N   UNL     1       0.673   5.281 -29.011  1.00  0.00    -0.072 N 
HETATM   37  H   UNL     1       1.587   5.581 -29.390  1.00  0.00     0.277 HD
HETATM   38  H   UNL     1       0.842   4.304 -28.713  1.00  0.00     0.277 HD
HETATM   39  C   UNL     1       0.301   6.102 -27.803  1.00  0.00     0.260 C 
HETATM   40  C   UNL     1      -0.097   7.544 -28.205  1.00  0.00     0.262 C 
ENDBRANCH  31  32
ENDBRANCH  30  31
ENDBRANCH   3  30
TORSDOF 10
ENDMDL
MODEL 6
REMARK VINA RESULT:      -7.6      2.709      4.916
REMARK  10 active torsions:
REMARK  status: ('A' for Active; 'I' for Inactive)
REMARK    1  A    between atoms: C_2  and  O_3 
REMARK    2  A    between atoms: O_3  and  C_4 
REMARK    3  A    between atoms: C_7  and  C_8 
REMARK    4  A    between atoms: C_8  and  C_9 
REMARK    5  A    between atoms: C_10  and  C_11 
REMARK    6  A    between atoms: C_13  and  N_14 
REMARK    7  A    between atoms: N_20  and  C_21 
REMARK    8  A    between atoms: C_21  and  C_22 
REMARK    9  A    between atoms: C_22  and  N_23 
REMARK   10  A    between atoms: C_34  and  O_35 
ROOT
HETATM    1  C   UNL     1      -7.534   1.692 -31.872  1.00  0.00     0.059 C 
HETATM    2  C   UNL     1      -7.110   2.780 -32.798  1.00  0.00     0.161 C 
HETATM    3  N   UNL     1      -8.321   3.582 -32.857  1.00  0.00    -0.332 N 
HETATM    4  C   UNL     1      -9.392   2.900 -32.299  1.00  0.00     0.278 C 
HETATM    5  O   UNL     1     -10.561   3.136 -32.561  1.00  0.00    -0.265 OA
HETATM    6  C   UNL     1      -8.829   1.762 -31.535  1.00  0.00     0.146 C 
ENDROOT
BRANCH   1   7
HETATM    7  C   UNL     1      -6.728   0.508 -31.524  1.00  0.00     0.193 C 
HETATM    8  O   UNL     1      -6.609   0.137 -30.366  1.00  0.00    -0.287 OA
BRANCH   7   9
HETATM    9  C   UNL     1      -6.279  -0.312 -32.663  1.00  0.00     0.015 A 
HETATM   10  C   UNL     1      -7.138  -0.614 -33.719  1.00  0.00     0.018 A 
HETATM   11  C   UNL     1      -6.751  -1.569 -34.666  1.00  0.00     0.038 A 
HETATM   12  C   UNL     1      -5.512  -2.204 -34.553  1.00  0.00     0.069 A 
HETATM   13  C   UNL     1      -4.627  -1.826 -33.539  1.00  0.00     0.038 A 
HETATM   14  C   UNL     1      -5.009  -0.887 -32.583  1.00  0.00     0.018 A 
BRANCH  12  15
HETATM   15  O   UNL     1      -5.035  -3.165 -35.397  1.00  0.00    -0.347 OA
BRANCH  15  16
HETATM   16  C   UNL     1      -5.479  -4.514 -35.203  1.00  0.00     0.120 C 
HETATM   17  C   UNL     1      -6.932  -4.522 -34.729  1.00  0.00     0.040 C 
HETATM   18  C   UNL     1      -4.578  -5.120 -34.130  1.00  0.00     0.040 C 
ENDBRANCH  15  16
ENDBRANCH  12  15
ENDBRANCH   7   9
ENDBRANCH   1   7
BRANCH   2  19
HETATM   19  C   UNL     1      -5.906   3.610 -32.422  1.00  0.00    -0.028 A 
HETATM   20  C   UNL     1      -4.978   3.937 -33.428  1.00  0.00     0.045 A 
HETATM   21  C   UNL     1      -3.875   4.756 -33.145  1.00  0.00     0.103 A 
HETATM   22  C   UNL     1      -3.662   5.240 -31.854  1.00  0.00     0.036 A 
HETATM   23  C   UNL     1      -4.575   4.913 -30.849  1.00  0.00     0.003 A 
HETATM   24  C   UNL     1      -5.694   4.116 -31.132  1.00  0.00     0.010 A 
BRANCH  21  25
HETATM   25  N   UNL     1      -2.972   5.129 -34.238  1.00  0.00    -0.116 N 
HETATM   26  O   UNL     1      -3.453   5.834 -35.143  1.00  0.00    -0.532 OA
HETATM   27  O   UNL     1      -1.803   4.739 -34.183  1.00  0.00    -0.532 OA
ENDBRANCH  21  25
ENDBRANCH   2  19
BRANCH   6  28
HETATM   28  O   UNL     1      -9.571   0.878 -30.810  1.00  0.00    -0.355 OA
HETATM   29  H   UNL     1     -10.523   1.085 -30.958  1.00  0.00     0.218 HD
ENDBRANCH   6  28
BRANCH   3  30
HETATM   30  C   UNL     1      -8.534   4.658 -33.807  1.00  0.00     0.155 C 
BRANCH  30  31
HETATM   31  C   UNL     1      -8.816   5.998 -33.104  1.00  0.00     0.254 C 
BRANCH  31  32
HETATM   32  N   UNL     1     -10.301   6.354 -33.087  1.00  0.00    -0.066 N 
HETATM   33  H   UNL     1     -10.733   5.710 -32.402  1.00  0.00     0.280 HD
HETATM   34  C   UNL     1     -11.028   6.103 -34.423  1.00  0.00     0.262 C 
HETATM   35  C   UNL     1     -10.699   7.185 -35.480  1.00  0.00     0.260 C 
HETATM   36  N   UNL     1     -10.925   8.576 -34.920  1.00  0.00    -0.072 N 
HETATM   37  H   UNL     1     -11.937   8.770 -34.840  1.00  0.00     0.277 HD
HETATM   38  H   UNL     1     -10.601   9.264 -35.624  1.00  0.00     0.277 HD
HETATM   39  C   UNL     1     -10.224   8.848 -33.613  1.00  0.00     0.260 C 
HETATM   40  C   UNL     1     -10.566   7.767 -32.558  1.00  0.00     0.262 C 
ENDBRANCH  31  32
ENDBRANCH  30  31
ENDBRANCH   3  30
TORSDOF 10
ENDMDL
MODEL 7
REMARK VINA RESULT:      -7.6      3.190      4.506
REMARK  10 active torsions:
REMARK  status: ('A' for Active; 'I' for Inactive)
REMARK    1  A    between atoms: C_2  and  O_3 
REMARK    2  A    between atoms: O_3  and  C_4 
REMARK    3  A    between atoms: C_7  and  C_8 
REMARK    4  A    between atoms: C_8  and  C_9 
REMARK    5  A    between atoms: C_10  and  C_11 
REMARK    6  A    between atoms: C_13  and  N_14 
REMARK    7  A    between atoms: N_20  and  C_21 
REMARK    8  A    between atoms: C_21  and  C_22 
REMARK    9  A    between atoms: C_22  and  N_23 
REMARK   10  A    between atoms: C_34  and  O_35 
ROOT
HETATM    1  C   UNL     1      -7.463   5.425 -32.357  1.00  0.00     0.059 C 
HETATM    2  C   UNL     1      -6.200   6.215 -32.380  1.00  0.00     0.161 C 
HETATM    3  N   UNL     1      -6.293   6.926 -31.115  1.00  0.00    -0.332 N 
HETATM    4  C   UNL     1      -7.567   6.808 -30.577  1.00  0.00     0.278 C 
HETATM    5  O   UNL     1      -8.041   7.594 -29.772  1.00  0.00    -0.265 OA
HETATM    6  C   UNL     1      -8.247   5.714 -31.309  1.00  0.00     0.146 C 
ENDROOT
BRANCH   1   7
HETATM    7  C   UNL     1      -7.961   4.583 -33.460  1.00  0.00     0.193 C 
HETATM    8  O   UNL     1      -8.408   5.077 -34.485  1.00  0.00    -0.287 OA
BRANCH   7   9
HETATM    9  C   UNL     1      -7.673   3.144 -33.340  1.00  0.00     0.015 A 
HETATM   10  C   UNL     1      -8.317   2.354 -32.387  1.00  0.00     0.018 A 
HETATM   11  C   UNL     1      -7.863   1.051 -32.156  1.00  0.00     0.038 A 
HETATM   12  C   UNL     1      -6.780   0.548 -32.881  1.00  0.00     0.069 A 
HETATM   13  C   UNL     1      -6.202   1.321 -33.894  1.00  0.00     0.038 A 
HETATM   14  C   UNL     1      -6.638   2.625 -34.121  1.00  0.00     0.018 A 
BRANCH  12  15
HETATM   15  O   UNL     1      -6.233  -0.692 -32.730  1.00  0.00    -0.347 OA
BRANCH  15  16
HETATM   16  C   UNL     1      -5.640  -1.314 -33.878  1.00  0.00     0.120 C 
HETATM   17  C   UNL     1      -6.590  -2.366 -34.450  1.00  0.00     0.040 C 
HETATM   18  C   UNL     1      -4.354  -1.980 -33.399  1.00  0.00     0.040 C 
ENDBRANCH  15  16
ENDBRANCH  12  15
ENDBRANCH   7   9
ENDBRANCH   1   7
BRANCH   2  19
HETATM   19  C   UNL     1      -4.892   5.471 -32.509  1.00  0.00    -0.028 A 
HETATM   20  C   UNL     1      -3.941   5.944 -33.431  1.00  0.00     0.045 A 
HETATM   21  C   UNL     1      -2.687   5.325 -33.546  1.00  0.00     0.103 A 
HETATM   22  C   UNL     1      -2.370   4.212 -32.768  1.00  0.00     0.036 A 
HETATM   23  C   UNL     1      -3.313   3.733 -31.857  1.00  0.00     0.003 A 
HETATM   24  C   UNL     1      -4.558   4.362 -31.718  1.00  0.00     0.010 A 
BRANCH  21  25
HETATM   25  N   UNL     1      -1.700   5.894 -34.469  1.00  0.00    -0.116 N 
HETATM   26  O   UNL     1      -1.400   7.089 -34.298  1.00  0.00    -0.532 OA
HETATM   27  O   UNL     1      -1.224   5.157 -35.336  1.00  0.00    -0.532 OA
ENDBRANCH  21  25
ENDBRANCH   2  19
BRANCH   6  28
HETATM   28  O   UNL     1      -9.508   5.273 -31.039  1.00  0.00    -0.355 OA
HETATM   29  H   UNL     1      -9.495   4.837 -30.155  1.00  0.00     0.218 HD
ENDBRANCH   6  28
BRANCH   3  30
HETATM   30  C   UNL     1      -5.419   8.019 -30.734  1.00  0.00     0.155 C 
BRANCH  30  31
HETATM   31  C   UNL     1      -4.327   7.564 -29.749  1.00  0.00     0.254 C 
BRANCH  31  32
HETATM   32  N   UNL     1      -4.521   8.136 -28.346  1.00  0.00    -0.066 N 
HETATM   33  H   UNL     1      -4.962   9.062 -28.483  1.00  0.00     0.280 HD
HETATM   34  C   UNL     1      -3.207   8.402 -27.584  1.00  0.00     0.262 C 
HETATM   35  C   UNL     1      -2.567   7.097 -27.049  1.00  0.00     0.260 C 
HETATM   36  N   UNL     1      -3.574   6.285 -26.257  1.00  0.00    -0.072 N 
HETATM   37  H   UNL     1      -3.754   6.732 -25.342  1.00  0.00     0.277 HD
HETATM   38  H   UNL     1      -3.134   5.382 -26.005  1.00  0.00     0.277 HD
HETATM   39  C   UNL     1      -4.868   6.011 -26.981  1.00  0.00     0.260 C 
HETATM   40  C   UNL     1      -5.506   7.321 -27.505  1.00  0.00     0.262 C 
ENDBRANCH  31  32
ENDBRANCH  30  31
ENDBRANCH   3  30
TORSDOF 10
ENDMDL
MODEL 8
REMARK VINA RESULT:      -7.5      2.738      4.818
REMARK  10 active torsions:
REMARK  status: ('A' for Active; 'I' for Inactive)
REMARK    1  A    between atoms: C_2  and  O_3 
REMARK    2  A    between atoms: O_3  and  C_4 
REMARK    3  A    between atoms: C_7  and  C_8 
REMARK    4  A    between atoms: C_8  and  C_9 
REMARK    5  A    between atoms: C_10  and  C_11 
REMARK    6  A    between atoms: C_13  and  N_14 
REMARK    7  A    between atoms: N_20  and  C_21 
REMARK    8  A    between atoms: C_21  and  C_22 
REMARK    9  A    between atoms: C_22  and  N_23 
REMARK   10  A    between atoms: C_34  and  O_35 
ROOT
HETATM    1  C   UNL     1      -5.092   2.460 -31.416  1.00  0.00     0.059 C 
HETATM    2  C   UNL     1      -5.060   3.472 -32.510  1.00  0.00     0.161 C 
HETATM    3  N   UNL     1      -6.073   4.409 -32.051  1.00  0.00    -0.332 N 
HETATM    4  C   UNL     1      -6.807   3.868 -31.005  1.00  0.00     0.278 C 
HETATM    5  O   UNL     1      -7.931   4.234 -30.702  1.00  0.00    -0.265 OA
HETATM    6  C   UNL     1      -6.057   2.688 -30.515  1.00  0.00     0.146 C 
ENDROOT
BRANCH   1   7
HETATM    7  C   UNL     1      -4.332   1.197 -31.403  1.00  0.00     0.193 C 
HETATM    8  O   UNL     1      -3.649   0.875 -30.443  1.00  0.00    -0.287 OA
BRANCH   7   9
HETATM    9  C   UNL     1      -4.631   0.264 -32.503  1.00  0.00     0.015 A 
HETATM   10  C   UNL     1      -5.929   0.111 -32.989  1.00  0.00     0.018 A 
HETATM   11  C   UNL     1      -6.212  -0.934 -33.875  1.00  0.00     0.038 A 
HETATM   12  C   UNL     1      -5.197  -1.808 -34.272  1.00  0.00     0.069 A 
HETATM   13  C   UNL     1      -3.884  -1.588 -33.846  1.00  0.00     0.038 A 
HETATM   14  C   UNL     1      -3.596  -0.559 -32.951  1.00  0.00     0.018 A 
BRANCH  12  15
HETATM   15  O   UNL     1      -5.354  -2.875 -35.109  1.00  0.00    -0.347 OA
BRANCH  15  16
HETATM   16  C   UNL     1      -5.855  -4.099 -34.555  1.00  0.00     0.120 C 
HETATM   17  C   UNL     1      -4.699  -5.066 -34.298  1.00  0.00     0.040 C 
HETATM   18  C   UNL     1      -6.807  -4.689 -35.592  1.00  0.00     0.040 C 
ENDBRANCH  15  16
ENDBRANCH  12  15
ENDBRANCH   7   9
ENDBRANCH   1   7
BRANCH   2  19
HETATM   19  C   UNL     1      -3.751   4.163 -32.808  1.00  0.00    -0.028 A 
HETATM   20  C   UNL     1      -2.889   4.455 -31.736  1.00  0.00     0.045 A 
HETATM   21  C   UNL     1      -1.635   5.041 -31.967  1.00  0.00     0.103 A 
HETATM   22  C   UNL     1      -1.231   5.369 -33.261  1.00  0.00     0.036 A 
HETATM   23  C   UNL     1      -2.086   5.088 -34.329  1.00  0.00     0.003 A 
HETATM   24  C   UNL     1      -3.329   4.480 -34.108  1.00  0.00     0.010 A 
BRANCH  21  25
HETATM   25  N   UNL     1      -0.738   5.264 -30.828  1.00  0.00    -0.116 N 
HETATM   26  O   UNL     1      -0.178   4.260 -30.355  1.00  0.00    -0.532 OA
HETATM   27  O   UNL     1      -0.587   6.421 -30.427  1.00  0.00    -0.532 OA
ENDBRANCH  21  25
ENDBRANCH   2  19
BRANCH   6  28
HETATM   28  O   UNL     1      -6.443   1.911 -29.464  1.00  0.00    -0.355 OA
HETATM   29  H   UNL     1      -6.781   2.506 -28.753  1.00  0.00     0.218 HD
ENDBRANCH   6  28
BRANCH   3  30
HETATM   30  C   UNL     1      -6.611   5.483 -32.864  1.00  0.00     0.155 C 
BRANCH  30  31
HETATM   31  C   UNL     1      -6.281   6.868 -32.279  1.00  0.00     0.254 C 
BRANCH  31  32
HETATM   32  N   UNL     1      -7.371   7.389 -31.346  1.00  0.00    -0.066 N 
HETATM   33  H   UNL     1      -8.041   6.607 -31.237  1.00  0.00     0.280 HD
HETATM   34  C   UNL     1      -8.185   8.567 -31.919  1.00  0.00     0.262 C 
HETATM   35  C   UNL     1      -7.397   9.899 -31.872  1.00  0.00     0.260 C 
HETATM   36  N   UNL     1      -6.854  10.159 -30.481  1.00  0.00    -0.072 N 
HETATM   37  H   UNL     1      -7.620  10.433 -29.842  1.00  0.00     0.277 HD
HETATM   38  H   UNL     1      -6.256  11.004 -30.520  1.00  0.00     0.277 HD
HETATM   39  C   UNL     1      -6.053   9.022 -29.897  1.00  0.00     0.260 C 
HETATM   40  C   UNL     1      -6.851   7.695 -29.938  1.00  0.00     0.262 C 
ENDBRANCH  31  32
ENDBRANCH  30  31
ENDBRANCH   3  30
TORSDOF 10
ENDMDL
MODEL 9
REMARK VINA RESULT:      -7.5      3.558      6.428
REMARK  10 active torsions:
REMARK  status: ('A' for Active; 'I' for Inactive)
REMARK    1  A    between atoms: C_2  and  O_3 
REMARK    2  A    between atoms: O_3  and  C_4 
REMARK    3  A    between atoms: C_7  and  C_8 
REMARK    4  A    between atoms: C_8  and  C_9 
REMARK    5  A    between atoms: C_10  and  C_11 
REMARK    6  A    between atoms: C_13  and  N_14 
REMARK    7  A    between atoms: N_20  and  C_21 
REMARK    8  A    between atoms: C_21  and  C_22 
REMARK    9  A    between atoms: C_22  and  N_23 
REMARK   10  A    between atoms: C_34  and  O_35 
ROOT
HETATM    1  C   UNL     1      -2.725   6.451 -32.252  1.00  0.00     0.059 C 
HETATM    2  C   UNL     1      -3.369   6.627 -30.920  1.00  0.00     0.161 C 
HETATM    3  N   UNL     1      -3.297   8.071 -30.766  1.00  0.00    -0.332 N 
HETATM    4  C   UNL     1      -2.458   8.627 -31.720  1.00  0.00     0.278 C 
HETATM    5  O   UNL     1      -1.906   9.709 -31.594  1.00  0.00    -0.265 OA
HETATM    6  C   UNL     1      -2.232   7.591 -32.754  1.00  0.00     0.146 C 
ENDROOT
BRANCH   1   7
HETATM    7  C   UNL     1      -2.420   5.154 -32.885  1.00  0.00     0.193 C 
HETATM    8  O   UNL     1      -1.278   4.722 -32.929  1.00  0.00    -0.287 OA
BRANCH   7   9
HETATM    9  C   UNL     1      -3.588   4.331 -33.242  1.00  0.00     0.015 A 
HETATM   10  C   UNL     1      -4.554   4.795 -34.134  1.00  0.00     0.018 A 
HETATM   11  C   UNL     1      -5.751   4.086 -34.279  1.00  0.00     0.038 A 
HETATM   12  C   UNL     1      -5.968   2.920 -33.540  1.00  0.00     0.069 A 
HETATM   13  C   UNL     1      -4.954   2.421 -32.716  1.00  0.00     0.038 A 
HETATM   14  C   UNL     1      -3.765   3.129 -32.554  1.00  0.00     0.018 A 
BRANCH  12  15
HETATM   15  O   UNL     1      -7.099   2.158 -33.577  1.00  0.00    -0.347 OA
BRANCH  15  16
HETATM   16  C   UNL     1      -6.956   0.748 -33.796  1.00  0.00     0.120 C 
HETATM   17  C   UNL     1      -7.209   0.420 -35.267  1.00  0.00     0.040 C 
HETATM   18  C   UNL     1      -8.002   0.063 -32.922  1.00  0.00     0.040 C 
ENDBRANCH  15  16
ENDBRANCH  12  15
ENDBRANCH   7   9
ENDBRANCH   1   7
BRANCH   2  19
HETATM   19  C   UNL     1      -4.776   6.112 -30.731  1.00  0.00    -0.028 A 
HETATM   20  C   UNL     1      -5.803   6.666 -31.518  1.00  0.00     0.045 A 
HETATM   21  C   UNL     1      -7.115   6.180 -31.424  1.00  0.00     0.103 A 
HETATM   22  C   UNL     1      -7.433   5.158 -30.530  1.00  0.00     0.036 A 
HETATM   23  C   UNL     1      -6.420   4.610 -29.741  1.00  0.00     0.003 A 
HETATM   24  C   UNL     1      -5.101   5.073 -29.848  1.00  0.00     0.010 A 
BRANCH  21  25
HETATM   25  N   UNL     1      -8.140   6.737 -32.313  1.00  0.00    -0.116 N 
HETATM   26  O   UNL     1      -8.783   5.925 -33.001  1.00  0.00    -0.532 OA
HETATM   27  O   UNL     1      -8.309   7.960 -32.310  1.00  0.00    -0.532 OA
ENDBRANCH  21  25
ENDBRANCH   2  19
BRANCH   6  28
HETATM   28  O   UNL     1      -1.487   7.775 -33.881  1.00  0.00    -0.355 OA
HETATM   29  H   UNL     1      -1.786   8.610 -34.311  1.00  0.00     0.218 HD
ENDBRANCH   6  28
BRANCH   3  30
HETATM   30  C   UNL     1      -3.585   8.769 -29.526  1.00  0.00     0.155 C 
BRANCH  30  31
HETATM   31  C   UNL     1      -2.719   8.253 -28.363  1.00  0.00     0.254 C 
BRANCH  31  32
HETATM   32  N   UNL     1      -1.240   8.593 -28.532  1.00  0.00    -0.066 N 
HETATM   33  H   UNL     1      -1.190   9.202 -29.367  1.00  0.00     0.280 HD
HETATM   34  C   UNL     1      -0.342   7.378 -28.838  1.00  0.00     0.262 C 
HETATM   35  C   UNL     1      -0.081   6.512 -27.580  1.00  0.00     0.260 C 
HETATM   36  N   UNL     1       0.423   7.364 -26.432  1.00  0.00    -0.072 N 
HETATM   37  H   UNL     1       1.401   7.653 -26.602  1.00  0.00     0.277 HD
HETATM   38  H   UNL     1       0.490   6.764 -25.590  1.00  0.00     0.277 HD
HETATM   39  C   UNL     1      -0.438   8.560 -26.111  1.00  0.00     0.260 C 
HETATM   40  C   UNL     1      -0.687   9.425 -27.372  1.00  0.00     0.262 C 
ENDBRANCH  31  32
ENDBRANCH  30  31
ENDBRANCH   3  30
TORSDOF 10
ENDMDL
MODEL 10
REMARK VINA RESULT:      -7.4      3.073      4.898
REMARK  10 active torsions:
REMARK  status: ('A' for Active; 'I' for Inactive)
REMARK    1  A    between atoms: C_2  and  O_3 
REMARK    2  A    between atoms: O_3  and  C_4 
REMARK    3  A    between atoms: C_7  and  C_8 
REMARK    4  A    between atoms: C_8  and  C_9 
REMARK    5  A    between atoms: C_10  and  C_11 
REMARK    6  A    between atoms: C_13  and  N_14 
REMARK    7  A    between atoms: N_20  and  C_21 
REMARK    8  A    between atoms: C_21  and  C_22 
REMARK    9  A    between atoms: C_22  and  N_23 
REMARK   10  A    between atoms: C_34  and  O_35 
ROOT
HETATM    1  C   UNL     1      -5.075   2.339 -30.815  1.00  0.00     0.059 C 
HETATM    2  C   UNL     1      -6.024   3.378 -30.324  1.00  0.00     0.161 C 
HETATM    3  N   UNL     1      -5.342   4.594 -30.733  1.00  0.00    -0.332 N 
HETATM    4  C   UNL     1      -4.040   4.319 -31.127  1.00  0.00     0.278 C 
HETATM    5  O   UNL     1      -3.141   5.146 -31.132  1.00  0.00    -0.265 OA
HETATM    6  C   UNL     1      -3.946   2.854 -31.321  1.00  0.00     0.146 C 
ENDROOT
BRANCH   1   7
HETATM    7  C   UNL     1      -5.203   0.890 -30.577  1.00  0.00     0.193 C 
HETATM    8  O   UNL     1      -5.565   0.452 -29.496  1.00  0.00    -0.287 OA
BRANCH   7   9
HETATM    9  C   UNL     1      -5.090   0.038 -31.774  1.00  0.00     0.015 A 
HETATM   10  C   UNL     1      -6.061   0.065 -32.775  1.00  0.00     0.018 A 
HETATM   11  C   UNL     1      -6.037  -0.907 -33.780  1.00  0.00     0.038 A 
HETATM   12  C   UNL     1      -5.043  -1.889 -33.781  1.00  0.00     0.069 A 
HETATM   13  C   UNL     1      -4.027  -1.850 -32.822  1.00  0.00     0.038 A 
HETATM   14  C   UNL     1      -4.051  -0.894 -31.808  1.00  0.00     0.018 A 
BRANCH  12  15
HETATM   15  O   UNL     1      -4.929  -2.900 -34.690  1.00  0.00    -0.347 OA
BRANCH  15  16
HETATM   16  C   UNL     1      -5.531  -4.163 -34.375  1.00  0.00     0.120 C 
HETATM   17  C   UNL     1      -4.447  -5.224 -34.189  1.00  0.00     0.040 C 
HETATM   18  C   UNL     1      -6.422  -4.530 -35.558  1.00  0.00     0.040 C 
ENDBRANCH  15  16
ENDBRANCH  12  15
ENDBRANCH   7   9
ENDBRANCH   1   7
BRANCH   2  19
HETATM   19  C   UNL     1      -7.449   3.339 -30.822  1.00  0.00    -0.028 A 
HETATM   20  C   UNL     1      -7.675   3.058 -32.182  1.00  0.00     0.045 A 
HETATM   21  C   UNL     1      -8.981   2.951 -32.682  1.00  0.00     0.103 A 
HETATM   22  C   UNL     1     -10.081   3.148 -31.847  1.00  0.00     0.036 A 
HETATM   23  C   UNL     1      -9.863   3.434 -30.498  1.00  0.00     0.003 A 
HETATM   24  C   UNL     1      -8.560   3.518 -29.986  1.00  0.00     0.010 A 
BRANCH  21  25
HETATM   25  N   UNL     1      -9.172   2.587 -34.090  1.00  0.00    -0.116 N 
HETATM   26  O   UNL     1     -10.046   3.212 -34.714  1.00  0.00    -0.532 OA
HETATM   27  O   UNL     1      -8.450   1.705 -34.563  1.00  0.00    -0.532 OA
ENDBRANCH  21  25
ENDBRANCH   2  19
BRANCH   6  28
HETATM   28  O   UNL     1      -2.828   2.202 -31.748  1.00  0.00    -0.355 OA
HETATM   29  H   UNL     1      -2.042   2.687 -31.403  1.00  0.00     0.218 HD
ENDBRANCH   6  28
BRANCH   3  30
HETATM   30  C   UNL     1      -5.726   5.924 -30.299  1.00  0.00     0.155 C 
BRANCH  30  31
HETATM   31  C   UNL     1      -5.543   6.108 -28.782  1.00  0.00     0.254 C 
BRANCH  31  32
HETATM   32  N   UNL     1      -4.142   6.588 -28.409  1.00  0.00    -0.066 N 
HETATM   33  H   UNL     1      -3.498   5.855 -28.753  1.00  0.00     0.280 HD
HETATM   34  C   UNL     1      -3.892   6.695 -26.892  1.00  0.00     0.262 C 
HETATM   35  C   UNL     1      -4.570   7.943 -26.274  1.00  0.00     0.260 C 
HETATM   36  N   UNL     1      -4.196   9.197 -27.039  1.00  0.00    -0.072 N 
HETATM   37  H   UNL     1      -3.217   9.461 -26.837  1.00  0.00     0.277 HD
HETATM   38  H   UNL     1      -4.745   9.986 -26.654  1.00  0.00     0.277 HD
HETATM   39  C   UNL     1      -4.431   9.119 -28.527  1.00  0.00     0.260 C 
HETATM   40  C   UNL     1      -3.742   7.874 -29.138  1.00  0.00     0.262 C 
ENDBRANCH  31  32
ENDBRANCH  30  31
ENDBRANCH   3  30
TORSDOF 10
ENDMDL
