MODEL 1
REMARK VINA RESULT:      -9.7      0.000      0.000
REMARK  5 active torsions:
REMARK  status: ('A' for Active; 'I' for Inactive)
REMARK    1  A    between atoms: C_11  and  N_12 
REMARK    2  A    between atoms: N_12  and  N_13 
REMARK       I    between atoms: N_13  and  C_14 
REMARK    3  A    between atoms: C_14  and  C_15 
REMARK    4  A    between atoms: C_15  and  C_16 
REMARK    5  A    between atoms: N_23  and  C_24 
ROOT
HETATM    1  C   UNL     1      -0.022   5.413 -31.495  1.00  0.00     0.046 C 
HETATM    2  C   UNL     1      -1.520   5.747 -31.495  1.00  0.00     0.058 C 
HETATM    3  C   UNL     1      -1.792   6.746 -32.633  1.00  0.00     0.046 C 
HETATM    4  O   UNL     1      -1.793   6.339 -30.204  1.00  0.00    -0.376 OA
HETATM    5  C   UNL     1      -3.151   6.764 -29.981  1.00  0.00     0.215 C 
HETATM    6  C   UNL     1      -4.091   5.695 -30.433  1.00  0.00     0.016 A 
HETATM    7  C   UNL     1      -3.749   4.617 -31.225  1.00  0.00    -0.021 A 
HETATM    8  C   UNL     1      -4.879   3.781 -31.485  1.00  0.00     0.077 A 
HETATM    9  C   UNL     1      -6.028   4.271 -30.916  1.00  0.00     0.133 A 
HETATM   10  N   UNL     1      -7.256   3.709 -30.959  1.00  0.00    -0.054 NA
HETATM   11  C   UNL     1      -7.353   2.580 -31.624  1.00  0.00     0.730 A 
HETATM   12  N   UNL     1      -6.261   2.000 -32.317  1.00  0.00    -0.107 N 
HETATM   13  C   UNL     1      -4.964   2.549 -32.245  1.00  0.00     0.280 A 
HETATM   14  O   UNL     1      -3.964   2.086 -32.789  1.00  0.00    -0.266 OA
HETATM   15  S   UNL     1      -5.749   5.721 -30.055  1.00  0.00    -0.071 SA
HETATM   16  C   UNL     1      -2.330   4.432 -31.668  1.00  0.00     0.078 C 
ENDROOT
BRANCH  11  17
HETATM   17  N   UNL     1      -8.570   1.920 -31.565  1.00  0.00    -0.127 N 
HETATM   18  H   UNL     1      -8.625   0.932 -31.317  1.00  0.00     0.206 HD
BRANCH  17  19
HETATM   19  N   UNL     1      -9.558   2.330 -32.476  1.00  0.00    -0.255 N 
HETATM   20  C   UNL     1     -10.207   1.325 -33.167  1.00  0.00     0.240 C 
HETATM   21  O   UNL     1     -10.023   0.133 -32.913  1.00  0.00    -0.272 OA
HETATM   22  H   UNL     1      -9.426   3.268 -32.856  1.00  0.00     0.190 HD
BRANCH  20  23
HETATM   23  C   UNL     1     -11.179   1.815 -34.224  1.00  0.00     0.143 C 
BRANCH  23  24
HETATM   24  C   UNL     1     -12.634   1.667 -33.846  1.00  0.00    -0.049 A 
HETATM   25  C   UNL     1     -13.211   2.480 -32.860  1.00  0.00     0.007 A 
HETATM   26  C   UNL     1     -14.568   2.369 -32.550  1.00  0.00     0.001 A 
HETATM   27  C   UNL     1     -15.367   1.454 -33.231  1.00  0.00     0.000 A 
HETATM   28  C   UNL     1     -14.809   0.649 -34.221  1.00  0.00     0.001 A 
HETATM   29  C   UNL     1     -13.451   0.755 -34.529  1.00  0.00     0.007 A 
ENDBRANCH  23  24
ENDBRANCH  20  23
ENDBRANCH  17  19
ENDBRANCH  11  17
BRANCH  12  30
HETATM   30  C   UNL     1      -6.446   0.858 -33.166  1.00  0.00     0.060 A 
HETATM   31  C   UNL     1      -6.204  -0.438 -32.688  1.00  0.00     0.030 A 
HETATM   32  C   UNL     1      -6.391  -1.548 -33.515  1.00  0.00     0.002 A 
HETATM   33  C   UNL     1      -6.808  -1.376 -34.832  1.00  0.00     0.000 A 
HETATM   34  C   UNL     1      -7.030  -0.094 -35.328  1.00  0.00     0.002 A 
HETATM   35  C   UNL     1      -6.844   1.017 -34.503  1.00  0.00     0.030 A 
ENDBRANCH  12  30
TORSDOF 5
ENDMDL
MODEL 2
REMARK VINA RESULT:      -9.3      2.887      7.992
REMARK  5 active torsions:
REMARK  status: ('A' for Active; 'I' for Inactive)
REMARK    1  A    between atoms: C_11  and  N_12 
REMARK    2  A    between atoms: N_12  and  N_13 
REMARK       I    between atoms: N_13  and  C_14 
REMARK    3  A    between atoms: C_14  and  C_15 
REMARK    4  A    between atoms: C_15  and  C_16 
REMARK    5  A    between atoms: N_23  and  C_24 
ROOT
HETATM    1  C   UNL     1     -13.264   5.649 -34.630  1.00  0.00     0.046 C 
HETATM    2  C   UNL     1     -12.431   4.360 -34.655  1.00  0.00     0.058 C 
HETATM    3  C   UNL     1     -12.446   3.803 -36.088  1.00  0.00     0.046 C 
HETATM    4  O   UNL     1     -13.080   3.453 -33.735  1.00  0.00    -0.376 OA
HETATM    5  C   UNL     1     -12.482   2.148 -33.610  1.00  0.00     0.215 C 
HETATM    6  C   UNL     1     -11.002   2.286 -33.473  1.00  0.00     0.016 A 
HETATM    7  C   UNL     1     -10.282   3.434 -33.739  1.00  0.00    -0.021 A 
HETATM    8  C   UNL     1      -8.883   3.236 -33.516  1.00  0.00     0.077 A 
HETATM    9  C   UNL     1      -8.598   1.951 -33.127  1.00  0.00     0.133 A 
HETATM   10  N   UNL     1      -7.381   1.449 -32.821  1.00  0.00    -0.054 NA
HETATM   11  C   UNL     1      -6.370   2.284 -32.916  1.00  0.00     0.730 A 
HETATM   12  N   UNL     1      -6.515   3.618 -33.371  1.00  0.00    -0.107 N 
HETATM   13  C   UNL     1      -7.783   4.170 -33.651  1.00  0.00     0.280 A 
HETATM   14  O   UNL     1      -7.991   5.325 -34.017  1.00  0.00    -0.266 OA
HETATM   15  S   UNL     1     -10.004   0.988 -33.012  1.00  0.00    -0.071 SA
HETATM   16  C   UNL     1     -10.990   4.682 -34.169  1.00  0.00     0.078 C 
ENDROOT
BRANCH  11  17
HETATM   17  N   UNL     1      -5.137   1.828 -32.476  1.00  0.00    -0.127 N 
HETATM   18  H   UNL     1      -4.448   2.466 -32.079  1.00  0.00     0.206 HD
BRANCH  17  19
HETATM   19  N   UNL     1      -4.573   0.752 -33.180  1.00  0.00    -0.255 N 
HETATM   20  C   UNL     1      -4.412  -0.424 -32.472  1.00  0.00     0.240 C 
HETATM   21  O   UNL     1      -4.849  -0.563 -31.329  1.00  0.00    -0.272 OA
HETATM   22  H   UNL     1      -3.966   1.019 -33.956  1.00  0.00     0.190 HD
BRANCH  20  23
HETATM   23  C   UNL     1      -3.692  -1.522 -33.232  1.00  0.00     0.143 C 
BRANCH  23  24
HETATM   24  C   UNL     1      -4.603  -2.582 -33.803  1.00  0.00    -0.049 A 
HETATM   25  C   UNL     1      -5.878  -2.255 -34.288  1.00  0.00     0.007 A 
HETATM   26  C   UNL     1      -6.696  -3.234 -34.857  1.00  0.00     0.001 A 
HETATM   27  C   UNL     1      -6.245  -4.547 -34.962  1.00  0.00     0.000 A 
HETATM   28  C   UNL     1      -4.977  -4.883 -34.494  1.00  0.00     0.001 A 
HETATM   29  C   UNL     1      -4.159  -3.907 -33.919  1.00  0.00     0.007 A 
ENDBRANCH  23  24
ENDBRANCH  20  23
ENDBRANCH  17  19
ENDBRANCH  11  17
BRANCH  12  30
HETATM   30  C   UNL     1      -5.369   4.445 -33.617  1.00  0.00     0.060 A 
HETATM   31  C   UNL     1      -4.760   4.470 -34.880  1.00  0.00     0.030 A 
HETATM   32  C   UNL     1      -3.648   5.281 -35.118  1.00  0.00     0.002 A 
HETATM   33  C   UNL     1      -3.122   6.065 -34.094  1.00  0.00     0.000 A 
HETATM   34  C   UNL     1      -3.701   6.033 -32.828  1.00  0.00     0.002 A 
HETATM   35  C   UNL     1      -4.813   5.222 -32.588  1.00  0.00     0.030 A 
ENDBRANCH  12  30
TORSDOF 5
ENDMDL
MODEL 3
REMARK VINA RESULT:      -9.1      3.122     10.043
REMARK  5 active torsions:
REMARK  status: ('A' for Active; 'I' for Inactive)
REMARK    1  A    between atoms: C_11  and  N_12 
REMARK    2  A    between atoms: N_12  and  N_13 
REMARK       I    between atoms: N_13  and  C_14 
REMARK    3  A    between atoms: C_14  and  C_15 
REMARK    4  A    between atoms: C_15  and  C_16 
REMARK    5  A    between atoms: N_23  and  C_24 
ROOT
HETATM    1  C   UNL     1      -7.186  -0.046 -35.299  1.00  0.00     0.046 C 
HETATM    2  C   UNL     1      -7.137   0.400 -33.831  1.00  0.00     0.058 C 
HETATM    3  C   UNL     1      -6.499  -0.729 -33.005  1.00  0.00     0.046 C 
HETATM    4  O   UNL     1      -8.511   0.622 -33.439  1.00  0.00    -0.376 OA
HETATM    5  C   UNL     1      -8.718   1.029 -32.073  1.00  0.00     0.215 C 
HETATM    6  C   UNL     1      -7.744   2.102 -31.716  1.00  0.00     0.016 A 
HETATM    7  C   UNL     1      -6.623   2.436 -32.450  1.00  0.00    -0.021 A 
HETATM    8  C   UNL     1      -5.895   3.502 -31.835  1.00  0.00     0.077 A 
HETATM    9  C   UNL     1      -6.467   3.906 -30.655  1.00  0.00     0.133 A 
HETATM   10  N   UNL     1      -6.036   4.899 -29.845  1.00  0.00    -0.054 NA
HETATM   11  C   UNL     1      -4.952   5.533 -30.233  1.00  0.00     0.730 A 
HETATM   12  N   UNL     1      -4.224   5.172 -31.394  1.00  0.00    -0.107 N 
HETATM   13  C   UNL     1      -4.684   4.169 -32.273  1.00  0.00     0.280 A 
HETATM   14  O   UNL     1      -4.127   3.824 -33.313  1.00  0.00    -0.266 OA
HETATM   15  S   UNL     1      -7.884   3.024 -30.293  1.00  0.00    -0.071 SA
HETATM   16  C   UNL     1      -6.327   1.723 -33.734  1.00  0.00     0.078 C 
ENDROOT
BRANCH  11  17
HETATM   17  N   UNL     1      -4.574   6.640 -29.489  1.00  0.00    -0.127 N 
HETATM   18  H   UNL     1      -4.435   7.550 -29.929  1.00  0.00     0.206 HD
BRANCH  17  19
HETATM   19  N   UNL     1      -3.730   6.407 -28.391  1.00  0.00    -0.255 N 
HETATM   20  C   UNL     1      -3.234   7.528 -27.753  1.00  0.00     0.240 C 
HETATM   21  O   UNL     1      -3.606   8.665 -28.047  1.00  0.00    -0.272 OA
HETATM   22  H   UNL     1      -3.231   5.517 -28.416  1.00  0.00     0.190 HD
BRANCH  20  23
HETATM   23  C   UNL     1      -2.236   7.233 -26.649  1.00  0.00     0.143 C 
BRANCH  23  24
HETATM   24  C   UNL     1      -0.832   7.712 -26.937  1.00  0.00    -0.049 A 
HETATM   25  C   UNL     1      -0.247   7.521 -28.197  1.00  0.00     0.007 A 
HETATM   26  C   UNL     1       1.033   8.008 -28.469  1.00  0.00     0.001 A 
HETATM   27  C   UNL     1       1.738   8.704 -27.491  1.00  0.00     0.000 A 
HETATM   28  C   UNL     1       1.163   8.912 -26.239  1.00  0.00     0.001 A 
HETATM   29  C   UNL     1      -0.115   8.420 -25.963  1.00  0.00     0.007 A 
ENDBRANCH  23  24
ENDBRANCH  20  23
ENDBRANCH  17  19
ENDBRANCH  11  17
BRANCH  12  30
HETATM   30  C   UNL     1      -2.959   5.779 -31.692  1.00  0.00     0.060 A 
HETATM   31  C   UNL     1      -2.886   6.938 -32.478  1.00  0.00     0.030 A 
HETATM   32  C   UNL     1      -1.653   7.529 -32.761  1.00  0.00     0.002 A 
HETATM   33  C   UNL     1      -0.477   6.962 -32.275  1.00  0.00     0.000 A 
HETATM   34  C   UNL     1      -0.531   5.798 -31.512  1.00  0.00     0.002 A 
HETATM   35  C   UNL     1      -1.763   5.205 -31.229  1.00  0.00     0.030 A 
ENDBRANCH  12  30
TORSDOF 5
ENDMDL
MODEL 4
REMARK VINA RESULT:      -9.0      3.548      8.329
REMARK  5 active torsions:
REMARK  status: ('A' for Active; 'I' for Inactive)
REMARK    1  A    between atoms: C_11  and  N_12 
REMARK    2  A    between atoms: N_12  and  N_13 
REMARK       I    between atoms: N_13  and  C_14 
REMARK    3  A    between atoms: C_14  and  C_15 
REMARK    4  A    between atoms: C_15  and  C_16 
REMARK    5  A    between atoms: N_23  and  C_24 
ROOT
HETATM    1  C   UNL     1      -6.743  -4.473 -35.278  1.00  0.00     0.046 C 
HETATM    2  C   UNL     1      -5.639  -3.519 -34.803  1.00  0.00     0.058 C 
HETATM    3  C   UNL     1      -4.870  -3.017 -36.036  1.00  0.00     0.046 C 
HETATM    4  O   UNL     1      -4.785  -4.302 -33.938  1.00  0.00    -0.376 OA
HETATM    5  C   UNL     1      -3.646  -3.614 -33.385  1.00  0.00     0.215 C 
HETATM    6  C   UNL     1      -4.071  -2.279 -32.867  1.00  0.00     0.016 A 
HETATM    7  C   UNL     1      -5.274  -1.662 -33.148  1.00  0.00    -0.021 A 
HETATM    8  C   UNL     1      -5.371  -0.390 -32.504  1.00  0.00     0.077 A 
HETATM    9  C   UNL     1      -4.237  -0.080 -31.796  1.00  0.00     0.133 A 
HETATM   10  N   UNL     1      -4.019   1.035 -31.063  1.00  0.00    -0.054 NA
HETATM   11  C   UNL     1      -4.998   1.911 -31.037  1.00  0.00     0.730 A 
HETATM   12  N   UNL     1      -6.195   1.748 -31.778  1.00  0.00    -0.107 N 
HETATM   13  C   UNL     1      -6.457   0.572 -32.511  1.00  0.00     0.280 A 
HETATM   14  O   UNL     1      -7.482   0.344 -33.149  1.00  0.00    -0.266 OA
HETATM   15  S   UNL     1      -3.064  -1.320 -31.887  1.00  0.00    -0.071 SA
HETATM   16  C   UNL     1      -6.289  -2.353 -34.007  1.00  0.00     0.078 C 
ENDROOT
BRANCH  11  17
HETATM   17  N   UNL     1      -4.848   2.993 -30.184  1.00  0.00    -0.127 N 
HETATM   18  H   UNL     1      -5.599   3.279 -29.556  1.00  0.00     0.206 HD
BRANCH  17  19
HETATM   19  N   UNL     1      -4.059   4.059 -30.646  1.00  0.00    -0.255 N 
HETATM   20  C   UNL     1      -4.650   5.308 -30.629  1.00  0.00     0.240 C 
HETATM   21  O   UNL     1      -5.757   5.501 -30.124  1.00  0.00    -0.272 OA
HETATM   22  H   UNL     1      -3.336   3.797 -31.317  1.00  0.00     0.190 HD
BRANCH  20  23
HETATM   23  C   UNL     1      -3.809   6.410 -31.246  1.00  0.00     0.143 C 
BRANCH  23  24
HETATM   24  C   UNL     1      -3.161   6.035 -32.558  1.00  0.00    -0.049 A 
HETATM   25  C   UNL     1      -1.768   5.909 -32.666  1.00  0.00     0.007 A 
HETATM   26  C   UNL     1      -1.180   5.517 -33.871  1.00  0.00     0.001 A 
HETATM   27  C   UNL     1      -1.976   5.233 -34.977  1.00  0.00     0.000 A 
HETATM   28  C   UNL     1      -3.362   5.343 -34.880  1.00  0.00     0.001 A 
HETATM   29  C   UNL     1      -3.952   5.741 -33.678  1.00  0.00     0.007 A 
ENDBRANCH  23  24
ENDBRANCH  20  23
ENDBRANCH  17  19
ENDBRANCH  11  17
BRANCH  12  30
HETATM   30  C   UNL     1      -7.166   2.801 -31.854  1.00  0.00     0.060 A 
HETATM   31  C   UNL     1      -8.218   2.876 -30.929  1.00  0.00     0.030 A 
HETATM   32  C   UNL     1      -9.158   3.905 -31.003  1.00  0.00     0.002 A 
HETATM   33  C   UNL     1      -9.069   4.864 -32.009  1.00  0.00     0.000 A 
HETATM   34  C   UNL     1      -8.044   4.790 -32.949  1.00  0.00     0.002 A 
HETATM   35  C   UNL     1      -7.102   3.761 -32.877  1.00  0.00     0.030 A 
ENDBRANCH  12  30
TORSDOF 5
ENDMDL
MODEL 5
REMARK VINA RESULT:      -9.0      3.736      9.118
REMARK  5 active torsions:
REMARK  status: ('A' for Active; 'I' for Inactive)
REMARK    1  A    between atoms: C_11  and  N_12 
REMARK    2  A    between atoms: N_12  and  N_13 
REMARK       I    between atoms: N_13  and  C_14 
REMARK    3  A    between atoms: C_14  and  C_15 
REMARK    4  A    between atoms: C_15  and  C_16 
REMARK    5  A    between atoms: N_23  and  C_24 
ROOT
HETATM    1  C   UNL     1      -6.746  -4.317 -35.101  1.00  0.00     0.046 C 
HETATM    2  C   UNL     1      -5.579  -3.413 -34.683  1.00  0.00     0.058 C 
HETATM    3  C   UNL     1      -4.753  -3.080 -35.936  1.00  0.00     0.046 C 
HETATM    4  O   UNL     1      -4.804  -4.182 -33.735  1.00  0.00    -0.376 OA
HETATM    5  C   UNL     1      -3.624  -3.537 -33.217  1.00  0.00     0.215 C 
HETATM    6  C   UNL     1      -3.951  -2.135 -32.823  1.00  0.00     0.016 A 
HETATM    7  C   UNL     1      -5.097  -1.454 -33.184  1.00  0.00    -0.021 A 
HETATM    8  C   UNL     1      -5.105  -0.127 -32.652  1.00  0.00     0.077 A 
HETATM    9  C   UNL     1      -3.961   0.155 -31.947  1.00  0.00     0.133 A 
HETATM   10  N   UNL     1      -3.669   1.309 -31.307  1.00  0.00    -0.054 NA
HETATM   11  C   UNL     1      -4.576   2.257 -31.378  1.00  0.00     0.730 A 
HETATM   12  N   UNL     1      -5.770   2.123 -32.130  1.00  0.00    -0.107 N 
HETATM   13  C   UNL     1      -6.111   0.911 -32.767  1.00  0.00     0.280 A 
HETATM   14  O   UNL     1      -7.141   0.709 -33.407  1.00  0.00    -0.266 OA
HETATM   15  S   UNL     1      -2.888  -1.174 -31.906  1.00  0.00    -0.071 SA
HETATM   16  C   UNL     1      -6.149  -2.136 -34.004  1.00  0.00     0.078 C 
ENDROOT
BRANCH  11  17
HETATM   17  N   UNL     1      -4.356   3.394 -30.616  1.00  0.00    -0.127 N 
HETATM   18  H   UNL     1      -5.097   3.798 -30.044  1.00  0.00     0.206 HD
BRANCH  17  19
HETATM   19  N   UNL     1      -3.463   4.343 -31.140  1.00  0.00    -0.255 N 
HETATM   20  C   UNL     1      -3.944   5.633 -31.259  1.00  0.00     0.240 C 
HETATM   21  O   UNL     1      -5.046   5.963 -30.819  1.00  0.00    -0.272 OA
HETATM   22  H   UNL     1      -2.744   3.961 -31.755  1.00  0.00     0.190 HD
BRANCH  20  23
HETATM   23  C   UNL     1      -2.990   6.599 -31.937  1.00  0.00     0.143 C 
BRANCH  23  24
HETATM   24  C   UNL     1      -1.745   6.907 -31.138  1.00  0.00    -0.049 A 
HETATM   25  C   UNL     1      -1.828   7.523 -29.881  1.00  0.00     0.007 A 
HETATM   26  C   UNL     1      -0.676   7.762 -29.129  1.00  0.00     0.001 A 
HETATM   27  C   UNL     1       0.569   7.376 -29.616  1.00  0.00     0.000 A 
HETATM   28  C   UNL     1       0.664   6.752 -30.858  1.00  0.00     0.001 A 
HETATM   29  C   UNL     1      -0.486   6.517 -31.615  1.00  0.00     0.007 A 
ENDBRANCH  23  24
ENDBRANCH  20  23
ENDBRANCH  17  19
ENDBRANCH  11  17
BRANCH  12  30
HETATM   30  C   UNL     1      -6.655   3.236 -32.318  1.00  0.00     0.060 A 
HETATM   31  C   UNL     1      -7.683   3.499 -31.402  1.00  0.00     0.030 A 
HETATM   32  C   UNL     1      -8.539   4.587 -31.585  1.00  0.00     0.002 A 
HETATM   33  C   UNL     1      -8.386   5.418 -32.692  1.00  0.00     0.000 A 
HETATM   34  C   UNL     1      -7.384   5.157 -33.623  1.00  0.00     0.002 A 
HETATM   35  C   UNL     1      -6.528   4.069 -33.442  1.00  0.00     0.030 A 
ENDBRANCH  12  30
TORSDOF 5
ENDMDL
MODEL 6
REMARK VINA RESULT:      -8.9      2.366      9.151
REMARK  5 active torsions:
REMARK  status: ('A' for Active; 'I' for Inactive)
REMARK    1  A    between atoms: C_11  and  N_12 
REMARK    2  A    between atoms: N_12  and  N_13 
REMARK       I    between atoms: N_13  and  C_14 
REMARK    3  A    between atoms: C_14  and  C_15 
REMARK    4  A    between atoms: C_15  and  C_16 
REMARK    5  A    between atoms: N_23  and  C_24 
ROOT
HETATM    1  C   UNL     1     -13.921   0.740 -34.301  1.00  0.00     0.046 C 
HETATM    2  C   UNL     1     -13.036   1.958 -34.005  1.00  0.00     0.058 C 
HETATM    3  C   UNL     1     -13.459   2.545 -32.648  1.00  0.00     0.046 C 
HETATM    4  O   UNL     1     -13.282   2.895 -35.079  1.00  0.00    -0.376 OA
HETATM    5  C   UNL     1     -12.569   4.144 -35.000  1.00  0.00     0.215 C 
HETATM    6  C   UNL     1     -11.139   3.884 -34.660  1.00  0.00     0.016 A 
HETATM    7  C   UNL     1     -10.638   2.689 -34.184  1.00  0.00    -0.021 A 
HETATM    8  C   UNL     1      -9.230   2.768 -33.950  1.00  0.00     0.077 A 
HETATM    9  C   UNL     1      -8.730   4.018 -34.221  1.00  0.00     0.133 A 
HETATM   10  N   UNL     1      -7.441   4.413 -34.121  1.00  0.00    -0.054 NA
HETATM   11  C   UNL     1      -6.586   3.502 -33.714  1.00  0.00     0.730 A 
HETATM   12  N   UNL     1      -6.979   2.194 -33.336  1.00  0.00    -0.107 N 
HETATM   13  C   UNL     1      -8.311   1.752 -33.476  1.00  0.00     0.280 A 
HETATM   14  O   UNL     1      -8.719   0.626 -33.202  1.00  0.00    -0.266 OA
HETATM   15  S   UNL     1      -9.942   5.088 -34.773  1.00  0.00    -0.071 SA
HETATM   16  C   UNL     1     -11.547   1.511 -34.008  1.00  0.00     0.078 C 
ENDROOT
BRANCH  11  17
HETATM   17  N   UNL     1      -5.244   3.848 -33.736  1.00  0.00    -0.127 N 
HETATM   18  H   UNL     1      -4.524   3.160 -33.953  1.00  0.00     0.206 HD
BRANCH  17  19
HETATM   19  N   UNL     1      -4.830   4.833 -32.825  1.00  0.00    -0.255 N 
HETATM   20  C   UNL     1      -3.985   5.808 -33.322  1.00  0.00     0.240 C 
HETATM   21  O   UNL     1      -3.708   5.884 -34.521  1.00  0.00    -0.272 OA
HETATM   22  H   UNL     1      -4.819   4.537 -31.849  1.00  0.00     0.190 HD
BRANCH  20  23
HETATM   23  C   UNL     1      -3.467   6.782 -32.281  1.00  0.00     0.143 C 
BRANCH  23  24
HETATM   24  C   UNL     1      -2.089   6.455 -31.755  1.00  0.00    -0.049 A 
HETATM   25  C   UNL     1      -1.813   5.207 -31.178  1.00  0.00     0.007 A 
HETATM   26  C   UNL     1      -0.525   4.896 -30.737  1.00  0.00     0.001 A 
HETATM   27  C   UNL     1       0.505   5.822 -30.880  1.00  0.00     0.000 A 
HETATM   28  C   UNL     1       0.246   7.061 -31.461  1.00  0.00     0.001 A 
HETATM   29  C   UNL     1      -1.042   7.377 -31.898  1.00  0.00     0.007 A 
ENDBRANCH  23  24
ENDBRANCH  20  23
ENDBRANCH  17  19
ENDBRANCH  11  17
BRANCH  12  30
HETATM   30  C   UNL     1      -6.042   1.284 -32.742  1.00  0.00     0.060 A 
HETATM   31  C   UNL     1      -5.440   0.273 -33.506  1.00  0.00     0.030 A 
HETATM   32  C   UNL     1      -4.525  -0.607 -32.926  1.00  0.00     0.002 A 
HETATM   33  C   UNL     1      -4.210  -0.499 -31.573  1.00  0.00     0.000 A 
HETATM   34  C   UNL     1      -4.817   0.485 -30.796  1.00  0.00     0.002 A 
HETATM   35  C   UNL     1      -5.733   1.366 -31.374  1.00  0.00     0.030 A 
ENDBRANCH  12  30
TORSDOF 5
ENDMDL
MODEL 7
REMARK VINA RESULT:      -8.8      3.790      6.123
REMARK  5 active torsions:
REMARK  status: ('A' for Active; 'I' for Inactive)
REMARK    1  A    between atoms: C_11  and  N_12 
REMARK    2  A    between atoms: N_12  and  N_13 
REMARK       I    between atoms: N_13  and  C_14 
REMARK    3  A    between atoms: C_14  and  C_15 
REMARK    4  A    between atoms: C_15  and  C_16 
REMARK    5  A    between atoms: N_23  and  C_24 
ROOT
HETATM    1  C   UNL     1      -1.531  10.179 -27.150  1.00  0.00     0.046 C 
HETATM    2  C   UNL     1      -1.140   8.762 -27.592  1.00  0.00     0.058 C 
HETATM    3  C   UNL     1      -1.036   7.877 -26.339  1.00  0.00     0.046 C 
HETATM    4  O   UNL     1       0.143   8.894 -28.247  1.00  0.00    -0.376 OA
HETATM    5  C   UNL     1       0.731   7.670 -28.731  1.00  0.00     0.215 C 
HETATM    6  C   UNL     1      -0.303   6.868 -29.449  1.00  0.00     0.016 A 
HETATM    7  C   UNL     1      -1.664   7.090 -29.393  1.00  0.00    -0.021 A 
HETATM    8  C   UNL     1      -2.381   6.142 -30.188  1.00  0.00     0.077 A 
HETATM    9  C   UNL     1      -1.547   5.227 -30.782  1.00  0.00     0.133 A 
HETATM   10  N   UNL     1      -1.907   4.219 -31.606  1.00  0.00    -0.054 NA
HETATM   11  C   UNL     1      -3.192   4.105 -31.855  1.00  0.00     0.730 A 
HETATM   12  N   UNL     1      -4.168   4.939 -31.254  1.00  0.00    -0.107 N 
HETATM   13  C   UNL     1      -3.807   6.024 -30.428  1.00  0.00     0.280 A 
HETATM   14  O   UNL     1      -4.591   6.809 -29.899  1.00  0.00    -0.266 OA
HETATM   15  S   UNL     1       0.094   5.515 -30.401  1.00  0.00    -0.071 SA
HETATM   16  C   UNL     1      -2.206   8.234 -28.593  1.00  0.00     0.078 C 
ENDROOT
BRANCH  11  17
HETATM   17  N   UNL     1      -3.567   3.166 -32.803  1.00  0.00    -0.127 N 
HETATM   18  H   UNL     1      -4.098   3.434 -33.631  1.00  0.00     0.206 HD
BRANCH  17  19
HETATM   19  N   UNL     1      -3.862   1.876 -32.333  1.00  0.00    -0.255 N 
HETATM   20  C   UNL     1      -5.059   1.330 -32.758  1.00  0.00     0.240 C 
HETATM   21  O   UNL     1      -5.769   1.886 -33.598  1.00  0.00    -0.272 OA
HETATM   22  H   UNL     1      -3.430   1.636 -31.440  1.00  0.00     0.190 HD
BRANCH  20  23
HETATM   23  C   UNL     1      -5.394  -0.011 -32.135  1.00  0.00     0.143 C 
BRANCH  23  24
HETATM   24  C   UNL     1      -5.498  -1.148 -33.125  1.00  0.00    -0.049 A 
HETATM   25  C   UNL     1      -6.728  -1.495 -33.700  1.00  0.00     0.007 A 
HETATM   26  C   UNL     1      -6.808  -2.516 -34.650  1.00  0.00     0.001 A 
HETATM   27  C   UNL     1      -5.657  -3.192 -35.046  1.00  0.00     0.000 A 
HETATM   28  C   UNL     1      -4.426  -2.849 -34.491  1.00  0.00     0.001 A 
HETATM   29  C   UNL     1      -4.345  -1.832 -33.537  1.00  0.00     0.007 A 
ENDBRANCH  23  24
ENDBRANCH  20  23
ENDBRANCH  17  19
ENDBRANCH  11  17
BRANCH  12  30
HETATM   30  C   UNL     1      -5.569   4.679 -31.422  1.00  0.00     0.060 A 
HETATM   31  C   UNL     1      -6.263   3.870 -30.511  1.00  0.00     0.030 A 
HETATM   32  C   UNL     1      -7.627   3.623 -30.674  1.00  0.00     0.002 A 
HETATM   33  C   UNL     1      -8.313   4.170 -31.756  1.00  0.00     0.000 A 
HETATM   34  C   UNL     1      -7.633   4.957 -32.682  1.00  0.00     0.002 A 
HETATM   35  C   UNL     1      -6.267   5.204 -32.521  1.00  0.00     0.030 A 
ENDBRANCH  12  30
TORSDOF 5
ENDMDL
MODEL 8
REMARK VINA RESULT:      -8.7      3.893      7.659
REMARK  5 active torsions:
REMARK  status: ('A' for Active; 'I' for Inactive)
REMARK    1  A    between atoms: C_11  and  N_12 
REMARK    2  A    between atoms: N_12  and  N_13 
REMARK       I    between atoms: N_13  and  C_14 
REMARK    3  A    between atoms: C_14  and  C_15 
REMARK    4  A    between atoms: C_15  and  C_16 
REMARK    5  A    between atoms: N_23  and  C_24 
ROOT
HETATM    1  C   UNL     1     -11.413   9.422 -34.560  1.00  0.00     0.046 C 
HETATM    2  C   UNL     1     -11.310   8.009 -35.150  1.00  0.00     0.058 C 
HETATM    3  C   UNL     1     -10.655   8.111 -36.538  1.00  0.00     0.046 C 
HETATM    4  O   UNL     1     -12.668   7.522 -35.248  1.00  0.00    -0.376 OA
HETATM    5  C   UNL     1     -12.826   6.204 -35.808  1.00  0.00     0.215 C 
HETATM    6  C   UNL     1     -11.831   5.276 -35.193  1.00  0.00     0.016 A 
HETATM    7  C   UNL     1     -10.732   5.665 -34.453  1.00  0.00    -0.021 A 
HETATM    8  C   UNL     1      -9.974   4.535 -34.011  1.00  0.00     0.077 A 
HETATM    9  C   UNL     1     -10.503   3.350 -34.459  1.00  0.00     0.133 A 
HETATM   10  N   UNL     1     -10.036   2.108 -34.203  1.00  0.00    -0.054 NA
HETATM   11  C   UNL     1      -8.960   2.037 -33.452  1.00  0.00     0.730 A 
HETATM   12  N   UNL     1      -8.275   3.184 -32.981  1.00  0.00    -0.107 N 
HETATM   13  C   UNL     1      -8.773   4.485 -33.201  1.00  0.00     0.280 A 
HETATM   14  O   UNL     1      -8.254   5.524 -32.797  1.00  0.00    -0.266 OA
HETATM   15  S   UNL     1     -11.915   3.589 -35.391  1.00  0.00    -0.071 SA
HETATM   16  C   UNL     1     -10.485   7.117 -34.180  1.00  0.00     0.078 C 
ENDROOT
BRANCH  11  17
HETATM   17  N   UNL     1      -8.548   0.771 -33.066  1.00  0.00    -0.127 N 
HETATM   18  H   UNL     1      -8.542   0.493 -32.085  1.00  0.00     0.206 HD
BRANCH  17  19
HETATM   19  N   UNL     1      -7.529   0.177 -33.830  1.00  0.00    -0.255 N 
HETATM   20  C   UNL     1      -6.486  -0.389 -33.121  1.00  0.00     0.240 C 
HETATM   21  O   UNL     1      -6.505  -0.482 -31.892  1.00  0.00    -0.272 OA
HETATM   22  H   UNL     1      -7.416   0.564 -34.767  1.00  0.00     0.190 HD
BRANCH  20  23
HETATM   23  C   UNL     1      -5.352  -0.912 -33.982  1.00  0.00     0.143 C 
BRANCH  23  24
HETATM   24  C   UNL     1      -5.390  -2.403 -34.221  1.00  0.00    -0.049 A 
HETATM   25  C   UNL     1      -6.519  -3.017 -34.782  1.00  0.00     0.007 A 
HETATM   26  C   UNL     1      -6.529  -4.389 -35.043  1.00  0.00     0.001 A 
HETATM   27  C   UNL     1      -5.405  -5.161 -34.760  1.00  0.00     0.000 A 
HETATM   28  C   UNL     1      -4.273  -4.562 -34.213  1.00  0.00     0.001 A 
HETATM   29  C   UNL     1      -4.263  -3.191 -33.946  1.00  0.00     0.007 A 
ENDBRANCH  23  24
ENDBRANCH  20  23
ENDBRANCH  17  19
ENDBRANCH  11  17
BRANCH  12  30
HETATM   30  C   UNL     1      -7.015   3.067 -32.305  1.00  0.00     0.060 A 
HETATM   31  C   UNL     1      -6.959   2.903 -30.914  1.00  0.00     0.030 A 
HETATM   32  C   UNL     1      -5.731   2.784 -30.260  1.00  0.00     0.002 A 
HETATM   33  C   UNL     1      -4.544   2.841 -30.985  1.00  0.00     0.000 A 
HETATM   34  C   UNL     1      -4.582   3.026 -32.365  1.00  0.00     0.002 A 
HETATM   35  C   UNL     1      -5.809   3.146 -33.021  1.00  0.00     0.030 A 
ENDBRANCH  12  30
TORSDOF 5
ENDMDL
MODEL 9
REMARK VINA RESULT:      -8.7      1.478      2.017
REMARK  5 active torsions:
REMARK  status: ('A' for Active; 'I' for Inactive)
REMARK    1  A    between atoms: C_11  and  N_12 
REMARK    2  A    between atoms: N_12  and  N_13 
REMARK       I    between atoms: N_13  and  C_14 
REMARK    3  A    between atoms: C_14  and  C_15 
REMARK    4  A    between atoms: C_15  and  C_16 
REMARK    5  A    between atoms: N_23  and  C_24 
ROOT
HETATM    1  C   UNL     1       0.372   6.641 -31.599  1.00  0.00     0.046 C 
HETATM    2  C   UNL     1      -1.162   6.687 -31.582  1.00  0.00     0.058 C 
HETATM    3  C   UNL     1      -1.637   7.420 -32.847  1.00  0.00     0.046 C 
HETATM    4  O   UNL     1      -1.521   7.418 -30.388  1.00  0.00    -0.376 OA
HETATM    5  C   UNL     1      -2.932   7.614 -30.170  1.00  0.00     0.215 C 
HETATM    6  C   UNL     1      -3.658   6.331 -30.407  1.00  0.00     0.016 A 
HETATM    7  C   UNL     1      -3.129   5.222 -31.036  1.00  0.00    -0.021 A 
HETATM    8  C   UNL     1      -4.083   4.159 -31.111  1.00  0.00     0.077 A 
HETATM    9  C   UNL     1      -5.295   4.513 -30.572  1.00  0.00     0.133 A 
HETATM   10  N   UNL     1      -6.395   3.734 -30.471  1.00  0.00    -0.054 NA
HETATM   11  C   UNL     1      -6.285   2.513 -30.946  1.00  0.00     0.730 A 
HETATM   12  N   UNL     1      -5.114   2.042 -31.590  1.00  0.00    -0.107 N 
HETATM   13  C   UNL     1      -3.944   2.826 -31.665  1.00  0.00     0.280 A 
HETATM   14  O   UNL     1      -2.883   2.475 -32.176  1.00  0.00    -0.266 OA
HETATM   15  S   UNL     1      -5.285   6.109 -29.961  1.00  0.00    -0.071 SA
HETATM   16  C   UNL     1      -1.708   5.233 -31.510  1.00  0.00     0.078 C 
ENDROOT
BRANCH  11  17
HETATM   17  N   UNL     1      -7.354   1.658 -30.729  1.00  0.00    -0.127 N 
HETATM   18  H   UNL     1      -7.311   0.678 -31.007  1.00  0.00     0.206 HD
BRANCH  17  19
HETATM   19  N   UNL     1      -8.639   2.216 -30.815  1.00  0.00    -0.255 N 
HETATM   20  C   UNL     1      -9.300   2.043 -32.017  1.00  0.00     0.240 C 
HETATM   21  O   UNL     1      -8.846   1.336 -32.917  1.00  0.00    -0.272 OA
HETATM   22  H   UNL     1      -8.800   3.019 -30.206  1.00  0.00     0.190 HD
BRANCH  20  23
HETATM   23  C   UNL     1     -10.633   2.762 -32.110  1.00  0.00     0.143 C 
BRANCH  23  24
HETATM   24  C   UNL     1     -11.216   2.812 -33.502  1.00  0.00    -0.049 A 
HETATM   25  C   UNL     1     -12.088   1.813 -33.958  1.00  0.00     0.007 A 
HETATM   26  C   UNL     1     -12.659   1.891 -35.230  1.00  0.00     0.001 A 
HETATM   27  C   UNL     1     -12.378   2.976 -36.056  1.00  0.00     0.000 A 
HETATM   28  C   UNL     1     -11.523   3.982 -35.611  1.00  0.00     0.001 A 
HETATM   29  C   UNL     1     -10.946   3.902 -34.342  1.00  0.00     0.007 A 
ENDBRANCH  23  24
ENDBRANCH  20  23
ENDBRANCH  17  19
ENDBRANCH  11  17
BRANCH  12  30
HETATM   30  C   UNL     1      -5.092   0.764 -32.241  1.00  0.00     0.060 A 
HETATM   31  C   UNL     1      -4.445  -0.331 -31.650  1.00  0.00     0.030 A 
HETATM   32  C   UNL     1      -4.430  -1.576 -32.284  1.00  0.00     0.002 A 
HETATM   33  C   UNL     1      -5.049  -1.738 -33.521  1.00  0.00     0.000 A 
HETATM   34  C   UNL     1      -5.676  -0.655 -34.131  1.00  0.00     0.002 A 
HETATM   35  C   UNL     1      -5.691   0.591 -33.500  1.00  0.00     0.030 A 
ENDBRANCH  12  30
TORSDOF 5
ENDMDL
MODEL 10
REMARK VINA RESULT:      -8.7      2.897      7.475
REMARK  5 active torsions:
REMARK  status: ('A' for Active; 'I' for Inactive)
REMARK    1  A    between atoms: C_11  and  N_12 
REMARK    2  A    between atoms: N_12  and  N_13 
REMARK       I    between atoms: N_13  and  C_14 
REMARK    3  A    between atoms: C_14  and  C_15 
REMARK    4  A    between atoms: C_15  and  C_16 
REMARK    5  A    between atoms: N_23  and  C_24 
ROOT
HETATM    1  C   UNL     1     -10.958   7.313 -33.603  1.00  0.00     0.046 C 
HETATM    2  C   UNL     1     -10.323   5.939 -33.861  1.00  0.00     0.058 C 
HETATM    3  C   UNL     1     -10.417   5.639 -35.366  1.00  0.00     0.046 C 
HETATM    4  O   UNL     1     -11.100   4.995 -33.091  1.00  0.00    -0.376 OA
HETATM    5  C   UNL     1     -10.700   3.615 -33.198  1.00  0.00     0.215 C 
HETATM    6  C   UNL     1      -9.216   3.512 -33.073  1.00  0.00     0.016 A 
HETATM    7  C   UNL     1      -8.335   4.571 -33.161  1.00  0.00    -0.021 A 
HETATM    8  C   UNL     1      -6.981   4.139 -33.005  1.00  0.00     0.077 A 
HETATM    9  C   UNL     1      -6.887   2.779 -32.842  1.00  0.00     0.133 A 
HETATM   10  N   UNL     1      -5.758   2.062 -32.652  1.00  0.00    -0.054 NA
HETATM   11  C   UNL     1      -4.635   2.746 -32.629  1.00  0.00     0.730 A 
HETATM   12  N   UNL     1      -4.583   4.144 -32.853  1.00  0.00    -0.107 N 
HETATM   13  C   UNL     1      -5.755   4.913 -33.008  1.00  0.00     0.280 A 
HETATM   14  O   UNL     1      -5.791   6.131 -33.172  1.00  0.00    -0.266 OA
HETATM   15  S   UNL     1      -8.420   2.024 -32.857  1.00  0.00    -0.071 SA
HETATM   16  C   UNL     1      -8.852   5.963 -33.362  1.00  0.00     0.078 C 
ENDROOT
BRANCH  11  17
HETATM   17  N   UNL     1      -3.483   2.049 -32.299  1.00  0.00    -0.127 N 
HETATM   18  H   UNL     1      -2.586   2.524 -32.211  1.00  0.00     0.206 HD
BRANCH  17  19
HETATM   19  N   UNL     1      -3.384   0.731 -32.774  1.00  0.00    -0.255 N 
HETATM   20  C   UNL     1      -3.536  -0.270 -31.833  1.00  0.00     0.240 C 
HETATM   21  O   UNL     1      -3.863  -0.029 -30.670  1.00  0.00    -0.272 OA
HETATM   22  H   UNL     1      -2.814   0.620 -33.613  1.00  0.00     0.190 HD
BRANCH  20  23
HETATM   23  C   UNL     1      -3.303  -1.672 -32.364  1.00  0.00     0.143 C 
BRANCH  23  24
HETATM   24  C   UNL     1      -4.399  -2.183 -33.270  1.00  0.00    -0.049 A 
HETATM   25  C   UNL     1      -4.253  -3.387 -33.973  1.00  0.00     0.007 A 
HETATM   26  C   UNL     1      -5.289  -3.876 -34.771  1.00  0.00     0.001 A 
HETATM   27  C   UNL     1      -6.488  -3.175 -34.866  1.00  0.00     0.000 A 
HETATM   28  C   UNL     1      -6.651  -1.982 -34.164  1.00  0.00     0.001 A 
HETATM   29  C   UNL     1      -5.613  -1.489 -33.369  1.00  0.00     0.007 A 
ENDBRANCH  23  24
ENDBRANCH  20  23
ENDBRANCH  17  19
ENDBRANCH  11  17
BRANCH  12  30
HETATM   30  C   UNL     1      -3.327   4.826 -32.984  1.00  0.00     0.060 A 
HETATM   31  C   UNL     1      -2.706   4.952 -34.235  1.00  0.00     0.030 A 
HETATM   32  C   UNL     1      -1.487   5.621 -34.359  1.00  0.00     0.002 A 
HETATM   33  C   UNL     1      -0.866   6.160 -33.235  1.00  0.00     0.000 A 
HETATM   34  C   UNL     1      -1.459   6.023 -31.982  1.00  0.00     0.002 A 
HETATM   35  C   UNL     1      -2.678   5.353 -31.856  1.00  0.00     0.030 A 
ENDBRANCH  12  30
TORSDOF 5
ENDMDL
