MODEL 1
REMARK VINA RESULT:      -7.5      0.000      0.000
REMARK  3 active torsions:
REMARK  status: ('A' for Active; 'I' for Inactive)
REMARK    1  A    between atoms: O_2  and  C_3 
REMARK    2  A    between atoms: C_4  and  C_5 
REMARK    3  A    between atoms: C_16  and  N_17 
ROOT
HETATM    1  C   UNL     1      -4.587   1.027 -31.382  1.00  0.00     0.246 C 
HETATM    2  N   UNL     1      -5.183   0.422 -32.553  1.00  0.00    -0.151 N 
HETATM    3  C   UNL     1      -4.524  -0.560 -33.251  1.00  0.00     0.734 A 
HETATM    4  N   UNL     1      -5.257  -0.936 -34.277  1.00  0.00    -0.060 NA
HETATM    5  C   UNL     1      -6.430  -0.230 -34.195  1.00  0.00     0.103 A 
HETATM    6  C   UNL     1      -6.424   0.623 -33.096  1.00  0.00     0.083 A 
HETATM    7  C   UNL     1      -7.555  -0.271 -35.031  1.00  0.00     0.034 A 
HETATM    8  C   UNL     1      -8.647   0.550 -34.727  1.00  0.00     0.002 A 
HETATM    9  C   UNL     1      -8.619   1.393 -33.613  1.00  0.00     0.002 A 
HETATM   10  C   UNL     1      -7.504   1.450 -32.768  1.00  0.00     0.033 A 
HETATM   11  N   UNL     1      -3.313  -1.035 -32.885  1.00  0.00    -0.033 NA
HETATM   12  C   UNL     1      -2.783  -0.607 -31.796  1.00  0.00     0.193 C 
HETATM   13  N   UNL     1      -3.354   0.360 -30.969  1.00  0.00    -0.338 N 
HETATM   14  H   UNL     1      -2.953   0.620 -30.081  1.00  0.00     0.164 HD
ENDROOT
BRANCH   1  15
HETATM   15  C   UNL     1      -4.257   2.510 -31.526  1.00  0.00     0.020 A 
HETATM   16  C   UNL     1      -4.937   3.440 -30.702  1.00  0.00     0.078 A 
HETATM   17  C   UNL     1      -4.673   4.809 -30.817  1.00  0.00     0.039 A 
HETATM   18  C   UNL     1      -3.725   5.271 -31.732  1.00  0.00     0.022 A 
HETATM   19  C   UNL     1      -3.030   4.364 -32.522  1.00  0.00     0.011 A 
HETATM   20  C   UNL     1      -3.280   2.995 -32.419  1.00  0.00     0.033 A 
HETATM   21 BR   UNL     1      -1.737   4.989 -33.750  1.00  0.00    -0.051 Br
BRANCH  16  22
HETATM   22  O   UNL     1      -5.821   2.894 -29.803  1.00  0.00    -0.355 OA
HETATM   23  C   UNL     1      -7.115   3.489 -29.717  1.00  0.00     0.210 C 
ENDBRANCH  16  22
ENDBRANCH   1  15
BRANCH  12  24
HETATM   24  N   UNL     1      -1.601  -1.056 -31.329  1.00  0.00    -0.272 NA
HETATM   25  H   UNL     1      -1.381  -1.973 -31.712  1.00  0.00     0.127 HD
HETATM   26  H   UNL     1      -0.815  -0.425 -31.412  1.00  0.00     0.127 HD
ENDBRANCH  12  24
TORSDOF 3
ENDMDL
MODEL 2
REMARK VINA RESULT:      -7.2      3.395      5.203
REMARK  3 active torsions:
REMARK  status: ('A' for Active; 'I' for Inactive)
REMARK    1  A    between atoms: O_2  and  C_3 
REMARK    2  A    between atoms: C_4  and  C_5 
REMARK    3  A    between atoms: C_16  and  N_17 
ROOT
HETATM    1  C   UNL     1      -7.730   0.342 -31.688  1.00  0.00     0.246 C 
HETATM    2  N   UNL     1      -6.527  -0.132 -32.339  1.00  0.00    -0.151 N 
HETATM    3  C   UNL     1      -5.303   0.410 -32.035  1.00  0.00     0.734 A 
HETATM    4  N   UNL     1      -4.374  -0.170 -32.764  1.00  0.00    -0.060 NA
HETATM    5  C   UNL     1      -5.006  -1.142 -33.497  1.00  0.00     0.103 A 
HETATM    6  C   UNL     1      -6.372  -1.160 -33.230  1.00  0.00     0.083 A 
HETATM    7  C   UNL     1      -4.470  -2.056 -34.415  1.00  0.00     0.034 A 
HETATM    8  C   UNL     1      -5.332  -2.968 -35.034  1.00  0.00     0.002 A 
HETATM    9  C   UNL     1      -6.699  -2.971 -34.744  1.00  0.00     0.002 A 
HETATM   10  C   UNL     1      -7.253  -2.064 -33.832  1.00  0.00     0.033 A 
HETATM   11  N   UNL     1      -5.138   1.382 -31.110  1.00  0.00    -0.033 NA
HETATM   12  C   UNL     1      -6.156   1.767 -30.429  1.00  0.00     0.193 C 
HETATM   13  N   UNL     1      -7.451   1.280 -30.604  1.00  0.00    -0.338 N 
HETATM   14  H   UNL     1      -8.216   1.545 -30.002  1.00  0.00     0.164 HD
ENDROOT
BRANCH   1  15
HETATM   15  C   UNL     1      -8.732   1.025 -32.615  1.00  0.00     0.020 A 
HETATM   16  C   UNL     1      -8.312   2.160 -33.351  1.00  0.00     0.078 A 
HETATM   17  C   UNL     1      -9.208   2.821 -34.198  1.00  0.00     0.039 A 
HETATM   18  C   UNL     1     -10.518   2.360 -34.339  1.00  0.00     0.022 A 
HETATM   19  C   UNL     1     -10.930   1.229 -33.646  1.00  0.00     0.011 A 
HETATM   20  C   UNL     1     -10.049   0.557 -32.798  1.00  0.00     0.033 A 
HETATM   21 BR   UNL     1     -12.699   0.597 -33.850  1.00  0.00    -0.051 Br
BRANCH  16  22
HETATM   22  O   UNL     1      -6.997   2.518 -33.182  1.00  0.00    -0.355 OA
HETATM   23  C   UNL     1      -6.552   3.701 -33.844  1.00  0.00     0.210 C 
ENDBRANCH  16  22
ENDBRANCH   1  15
BRANCH  12  24
HETATM   24  N   UNL     1      -6.079   2.697 -29.456  1.00  0.00    -0.272 NA
HETATM   25  H   UNL     1      -5.738   3.582 -29.823  1.00  0.00     0.127 HD
HETATM   26  H   UNL     1      -6.908   2.827 -28.891  1.00  0.00     0.127 HD
ENDBRANCH  12  24
TORSDOF 3
ENDMDL
MODEL 3
REMARK VINA RESULT:      -7.1      3.266      5.483
REMARK  3 active torsions:
REMARK  status: ('A' for Active; 'I' for Inactive)
REMARK    1  A    between atoms: O_2  and  C_3 
REMARK    2  A    between atoms: C_4  and  C_5 
REMARK    3  A    between atoms: C_16  and  N_17 
ROOT
HETATM    1  C   UNL     1      -8.652   1.296 -31.719  1.00  0.00     0.246 C 
HETATM    2  N   UNL     1      -7.331   0.852 -32.108  1.00  0.00    -0.151 N 
HETATM    3  C   UNL     1      -6.209   1.397 -31.534  1.00  0.00     0.734 A 
HETATM    4  N   UNL     1      -5.136   0.847 -32.062  1.00  0.00    -0.060 NA
HETATM    5  C   UNL     1      -5.581  -0.111 -32.937  1.00  0.00     0.103 A 
HETATM    6  C   UNL     1      -6.972  -0.149 -32.970  1.00  0.00     0.083 A 
HETATM    7  C   UNL     1      -4.847  -0.994 -33.742  1.00  0.00     0.034 A 
HETATM    8  C   UNL     1      -5.542  -1.897 -34.554  1.00  0.00     0.002 A 
HETATM    9  C   UNL     1      -6.939  -1.920 -34.564  1.00  0.00     0.002 A 
HETATM   10  C   UNL     1      -7.690  -1.045 -33.770  1.00  0.00     0.033 A 
HETATM   11  N   UNL     1      -6.261   2.344 -30.572  1.00  0.00    -0.033 NA
HETATM   12  C   UNL     1      -7.406   2.700 -30.116  1.00  0.00     0.193 C 
HETATM   13  N   UNL     1      -8.626   2.206 -30.576  1.00  0.00    -0.338 N 
HETATM   14  H   UNL     1      -9.507   2.446 -30.147  1.00  0.00     0.164 HD
ENDROOT
BRANCH   1  15
HETATM   15  C   UNL     1      -9.443   1.994 -32.821  1.00  0.00     0.020 A 
HETATM   16  C   UNL     1     -10.490   1.286 -33.460  1.00  0.00     0.078 A 
HETATM   17  C   UNL     1     -11.225   1.889 -34.486  1.00  0.00     0.039 A 
HETATM   18  C   UNL     1     -10.947   3.200 -34.878  1.00  0.00     0.022 A 
HETATM   19  C   UNL     1      -9.943   3.914 -34.236  1.00  0.00     0.011 A 
HETATM   20  C   UNL     1      -9.201   3.328 -33.211  1.00  0.00     0.033 A 
HETATM   21 BR   UNL     1      -9.577   5.692 -34.759  1.00  0.00    -0.051 Br
BRANCH  16  22
HETATM   22  O   UNL     1     -10.721   0.019 -32.981  1.00  0.00    -0.355 OA
HETATM   23  C   UNL     1     -12.010  -0.544 -33.222  1.00  0.00     0.210 C 
ENDBRANCH  16  22
ENDBRANCH   1  15
BRANCH  12  24
HETATM   24  N   UNL     1      -7.555   3.603 -29.125  1.00  0.00    -0.272 NA
HETATM   25  H   UNL     1      -6.680   3.742 -28.624  1.00  0.00     0.127 HD
HETATM   26  H   UNL     1      -7.977   4.487 -29.380  1.00  0.00     0.127 HD
ENDBRANCH  12  24
TORSDOF 3
ENDMDL
MODEL 4
REMARK VINA RESULT:      -7.0      3.392      6.261
REMARK  3 active torsions:
REMARK  status: ('A' for Active; 'I' for Inactive)
REMARK    1  A    between atoms: O_2  and  C_3 
REMARK    2  A    between atoms: C_4  and  C_5 
REMARK    3  A    between atoms: C_16  and  N_17 
ROOT
HETATM    1  C   UNL     1      -4.450   3.510 -30.785  1.00  0.00     0.246 C 
HETATM    2  N   UNL     1      -4.061   4.806 -31.296  1.00  0.00    -0.151 N 
HETATM    3  C   UNL     1      -4.588   5.959 -30.767  1.00  0.00     0.734 A 
HETATM    4  N   UNL     1      -4.097   6.999 -31.406  1.00  0.00    -0.060 NA
HETATM    5  C   UNL     1      -3.193   6.507 -32.313  1.00  0.00     0.103 A 
HETATM    6  C   UNL     1      -3.129   5.118 -32.250  1.00  0.00     0.083 A 
HETATM    7  C   UNL     1      -2.382   7.195 -33.226  1.00  0.00     0.034 A 
HETATM    8  C   UNL     1      -1.523   6.457 -34.049  1.00  0.00     0.002 A 
HETATM    9  C   UNL     1      -1.472   5.063 -33.961  1.00  0.00     0.002 A 
HETATM   10  C   UNL     1      -2.276   4.358 -33.057  1.00  0.00     0.033 A 
HETATM   11  N   UNL     1      -5.466   5.961 -29.739  1.00  0.00    -0.033 NA
HETATM   12  C   UNL     1      -5.767   4.846 -29.180  1.00  0.00     0.193 C 
HETATM   13  N   UNL     1      -5.280   3.604 -29.586  1.00  0.00    -0.338 N 
HETATM   14  H   UNL     1      -5.473   2.753 -29.080  1.00  0.00     0.164 HD
ENDROOT
BRANCH   1  15
HETATM   15  C   UNL     1      -5.206   2.631 -31.777  1.00  0.00     0.020 A 
HETATM   16  C   UNL     1      -4.605   1.425 -32.212  1.00  0.00     0.078 A 
HETATM   17  C   UNL     1      -5.262   0.603 -33.134  1.00  0.00     0.039 A 
HETATM   18  C   UNL     1      -6.523   0.953 -33.620  1.00  0.00     0.022 A 
HETATM   19  C   UNL     1      -7.135   2.118 -33.175  1.00  0.00     0.011 A 
HETATM   20  C   UNL     1      -6.494   2.949 -32.256  1.00  0.00     0.033 A 
HETATM   21 BR   UNL     1      -8.847   2.584 -33.823  1.00  0.00    -0.051 Br
BRANCH  16  22
HETATM   22  O   UNL     1      -3.384   1.140 -31.651  1.00  0.00    -0.355 OA
HETATM   23  C   UNL     1      -3.148  -0.210 -31.252  1.00  0.00     0.210 C 
ENDBRANCH  16  22
ENDBRANCH   1  15
BRANCH  12  24
HETATM   24  N   UNL     1      -6.597   4.755 -28.121  1.00  0.00    -0.272 NA
HETATM   25  H   UNL     1      -6.160   4.243 -27.358  1.00  0.00     0.127 HD
HETATM   26  H   UNL     1      -7.007   5.621 -27.795  1.00  0.00     0.127 HD
ENDBRANCH  12  24
TORSDOF 3
ENDMDL
MODEL 5
REMARK VINA RESULT:      -7.0      3.269      5.660
REMARK  3 active torsions:
REMARK  status: ('A' for Active; 'I' for Inactive)
REMARK    1  A    between atoms: O_2  and  C_3 
REMARK    2  A    between atoms: C_4  and  C_5 
REMARK    3  A    between atoms: C_16  and  N_17 
ROOT
HETATM    1  C   UNL     1      -6.559   0.734 -31.985  1.00  0.00     0.246 C 
HETATM    2  N   UNL     1      -6.492   1.948 -32.771  1.00  0.00    -0.151 N 
HETATM    3  C   UNL     1      -7.615   2.462 -33.370  1.00  0.00     0.734 A 
HETATM    4  N   UNL     1      -7.297   3.551 -34.036  1.00  0.00    -0.060 NA
HETATM    5  C   UNL     1      -5.964   3.773 -33.805  1.00  0.00     0.103 A 
HETATM    6  C   UNL     1      -5.429   2.785 -32.983  1.00  0.00     0.083 A 
HETATM    7  C   UNL     1      -5.139   4.808 -34.265  1.00  0.00     0.034 A 
HETATM    8  C   UNL     1      -3.795   4.819 -33.876  1.00  0.00     0.002 A 
HETATM    9  C   UNL     1      -3.283   3.820 -33.044  1.00  0.00     0.002 A 
HETATM   10  C   UNL     1      -4.090   2.776 -32.576  1.00  0.00     0.033 A 
HETATM   11  N   UNL     1      -8.837   1.896 -33.249  1.00  0.00    -0.033 NA
HETATM   12  C   UNL     1      -8.973   0.877 -32.481  1.00  0.00     0.193 C 
HETATM   13  N   UNL     1      -7.930   0.271 -31.782  1.00  0.00    -0.338 N 
HETATM   14  H   UNL     1      -8.079  -0.480 -31.125  1.00  0.00     0.164 HD
ENDROOT
BRANCH   1  15
HETATM   15  C   UNL     1      -5.777  -0.443 -32.560  1.00  0.00     0.020 A 
HETATM   16  C   UNL     1      -4.507  -0.748 -32.013  1.00  0.00     0.078 A 
HETATM   17  C   UNL     1      -3.755  -1.810 -32.526  1.00  0.00     0.039 A 
HETATM   18  C   UNL     1      -4.255  -2.591 -33.569  1.00  0.00     0.022 A 
HETATM   19  C   UNL     1      -5.514  -2.321 -34.091  1.00  0.00     0.011 A 
HETATM   20  C   UNL     1      -6.277  -1.266 -33.591  1.00  0.00     0.033 A 
HETATM   21 BR   UNL     1      -6.196  -3.387 -35.494  1.00  0.00    -0.051 Br
BRANCH  16  22
HETATM   22  O   UNL     1      -4.113   0.046 -30.963  1.00  0.00    -0.355 OA
HETATM   23  C   UNL     1      -2.716   0.304 -30.829  1.00  0.00     0.210 C 
ENDBRANCH  16  22
ENDBRANCH   1  15
BRANCH  12  24
HETATM   24  N   UNL     1     -10.160   0.275 -32.263  1.00  0.00    -0.272 NA
HETATM   25  H   UNL     1     -10.046  -0.732 -32.165  1.00  0.00     0.127 HD
HETATM   26  H   UNL     1     -10.728   0.655 -31.518  1.00  0.00     0.127 HD
ENDBRANCH  12  24
TORSDOF 3
ENDMDL
MODEL 6
REMARK VINA RESULT:      -7.0      4.249      6.878
REMARK  3 active torsions:
REMARK  status: ('A' for Active; 'I' for Inactive)
REMARK    1  A    between atoms: O_2  and  C_3 
REMARK    2  A    between atoms: C_4  and  C_5 
REMARK    3  A    between atoms: C_16  and  N_17 
ROOT
HETATM    1  C   UNL     1      -3.937   5.797 -32.274  1.00  0.00     0.246 C 
HETATM    2  N   UNL     1      -2.516   6.056 -32.180  1.00  0.00    -0.151 N 
HETATM    3  C   UNL     1      -1.710   5.967 -33.288  1.00  0.00     0.734 A 
HETATM    4  N   UNL     1      -0.466   6.228 -32.946  1.00  0.00    -0.060 NA
HETATM    5  C   UNL     1      -0.489   6.553 -31.614  1.00  0.00     0.103 A 
HETATM    6  C   UNL     1      -1.781   6.477 -31.104  1.00  0.00     0.083 A 
HETATM    7  C   UNL     1       0.565   6.929 -30.770  1.00  0.00     0.034 A 
HETATM    8  C   UNL     1       0.281   7.224 -29.432  1.00  0.00     0.002 A 
HETATM    9  C   UNL     1      -1.027   7.148 -28.945  1.00  0.00     0.002 A 
HETATM   10  C   UNL     1      -2.092   6.772 -29.772  1.00  0.00     0.033 A 
HETATM   11  N   UNL     1      -2.182   5.664 -34.517  1.00  0.00    -0.033 NA
HETATM   12  C   UNL     1      -3.447   5.525 -34.678  1.00  0.00     0.193 C 
HETATM   13  N   UNL     1      -4.387   5.624 -33.653  1.00  0.00    -0.338 N 
HETATM   14  H   UNL     1      -5.381   5.588 -33.822  1.00  0.00     0.164 HD
ENDROOT
BRANCH   1  15
HETATM   15  C   UNL     1      -4.417   4.574 -31.497  1.00  0.00     0.020 A 
HETATM   16  C   UNL     1      -5.430   4.743 -30.522  1.00  0.00     0.078 A 
HETATM   17  C   UNL     1      -5.883   3.648 -29.779  1.00  0.00     0.039 A 
HETATM   18  C   UNL     1      -5.355   2.375 -30.004  1.00  0.00     0.022 A 
HETATM   19  C   UNL     1      -4.384   2.193 -30.980  1.00  0.00     0.011 A 
HETATM   20  C   UNL     1      -3.922   3.275 -31.731  1.00  0.00     0.033 A 
HETATM   21 BR   UNL     1      -3.681   0.468 -31.294  1.00  0.00    -0.051 Br
BRANCH  16  22
HETATM   22  O   UNL     1      -5.919   6.021 -30.397  1.00  0.00    -0.355 OA
HETATM   23  C   UNL     1      -5.928   6.592 -29.089  1.00  0.00     0.210 C 
ENDBRANCH  16  22
ENDBRANCH   1  15
BRANCH  12  24
HETATM   24  N   UNL     1      -4.012   5.268 -35.875  1.00  0.00    -0.272 NA
HETATM   25  H   UNL     1      -5.012   5.106 -35.780  1.00  0.00     0.127 HD
HETATM   26  H   UNL     1      -3.816   5.927 -36.617  1.00  0.00     0.127 HD
ENDBRANCH  12  24
TORSDOF 3
ENDMDL
MODEL 7
REMARK VINA RESULT:      -6.9      5.956      7.975
REMARK  3 active torsions:
REMARK  status: ('A' for Active; 'I' for Inactive)
REMARK    1  A    between atoms: O_2  and  C_3 
REMARK    2  A    between atoms: C_4  and  C_5 
REMARK    3  A    between atoms: C_16  and  N_17 
ROOT
HETATM    1  C   UNL     1      -2.046   7.543 -32.239  1.00  0.00     0.246 C 
HETATM    2  N   UNL     1      -1.216   6.633 -31.479  1.00  0.00    -0.151 N 
HETATM    3  C   UNL     1      -0.856   5.412 -31.994  1.00  0.00     0.734 A 
HETATM    4  N   UNL     1      -0.122   4.765 -31.115  1.00  0.00    -0.060 NA
HETATM    5  C   UNL     1       0.045   5.612 -30.049  1.00  0.00     0.103 A 
HETATM    6  C   UNL     1      -0.618   6.817 -30.261  1.00  0.00     0.083 A 
HETATM    7  C   UNL     1       0.758   5.416 -28.859  1.00  0.00     0.034 A 
HETATM    8  C   UNL     1       0.786   6.450 -27.916  1.00  0.00     0.002 A 
HETATM    9  C   UNL     1       0.119   7.655 -28.156  1.00  0.00     0.002 A 
HETATM   10  C   UNL     1      -0.601   7.867 -29.337  1.00  0.00     0.033 A 
HETATM   11  N   UNL     1      -1.223   4.998 -33.228  1.00  0.00    -0.033 NA
HETATM   12  C   UNL     1      -1.872   5.806 -33.985  1.00  0.00     0.193 C 
HETATM   13  N   UNL     1      -2.272   7.088 -33.609  1.00  0.00    -0.338 N 
HETATM   14  H   UNL     1      -2.713   7.729 -34.250  1.00  0.00     0.164 HD
ENDROOT
BRANCH   1  15
HETATM   15  C   UNL     1      -3.419   7.815 -31.632  1.00  0.00     0.020 A 
HETATM   16  C   UNL     1      -3.679   9.096 -31.086  1.00  0.00     0.078 A 
HETATM   17  C   UNL     1      -4.921   9.375 -30.506  1.00  0.00     0.039 A 
HETATM   18  C   UNL     1      -5.922   8.403 -30.477  1.00  0.00     0.022 A 
HETATM   19  C   UNL     1      -5.688   7.154 -31.039  1.00  0.00     0.011 A 
HETATM   20  C   UNL     1      -4.455   6.859 -31.621  1.00  0.00     0.033 A 
HETATM   21 BR   UNL     1      -7.048   5.844 -31.010  1.00  0.00    -0.051 Br
BRANCH  16  22
HETATM   22  O   UNL     1      -2.652  10.002 -31.196  1.00  0.00    -0.355 OA
HETATM   23  C   UNL     1      -2.444  10.888 -30.097  1.00  0.00     0.210 C 
ENDBRANCH  16  22
ENDBRANCH   1  15
BRANCH  12  24
HETATM   24  N   UNL     1      -2.239   5.498 -35.245  1.00  0.00    -0.272 NA
HETATM   25  H   UNL     1      -2.944   6.146 -35.588  1.00  0.00     0.127 HD
HETATM   26  H   UNL     1      -1.492   5.378 -35.916  1.00  0.00     0.127 HD
ENDBRANCH  12  24
TORSDOF 3
ENDMDL
MODEL 8
REMARK VINA RESULT:      -6.9      4.404      5.479
REMARK  3 active torsions:
REMARK  status: ('A' for Active; 'I' for Inactive)
REMARK    1  A    between atoms: O_2  and  C_3 
REMARK    2  A    between atoms: C_4  and  C_5 
REMARK    3  A    between atoms: C_16  and  N_17 
ROOT
HETATM    1  C   UNL     1      -2.502   4.945 -32.274  1.00  0.00     0.246 C 
HETATM    2  N   UNL     1      -3.864   4.956 -32.762  1.00  0.00    -0.151 N 
HETATM    3  C   UNL     1      -4.131   5.121 -34.099  1.00  0.00     0.734 A 
HETATM    4  N   UNL     1      -5.432   5.114 -34.291  1.00  0.00    -0.060 NA
HETATM    5  C   UNL     1      -6.004   4.874 -33.067  1.00  0.00     0.103 A 
HETATM    6  C   UNL     1      -5.032   4.744 -32.079  1.00  0.00     0.083 A 
HETATM    7  C   UNL     1      -7.357   4.751 -32.724  1.00  0.00     0.034 A 
HETATM    8  C   UNL     1      -7.690   4.493 -31.389  1.00  0.00     0.002 A 
HETATM    9  C   UNL     1      -6.695   4.359 -30.417  1.00  0.00     0.002 A 
HETATM   10  C   UNL     1      -5.338   4.482 -30.740  1.00  0.00     0.033 A 
HETATM   11  N   UNL     1      -3.161   5.256 -35.031  1.00  0.00    -0.033 NA
HETATM   12  C   UNL     1      -1.935   5.150 -34.667  1.00  0.00     0.193 C 
HETATM   13  N   UNL     1      -1.517   4.946 -33.353  1.00  0.00    -0.338 N 
HETATM   14  H   UNL     1      -0.551   4.789 -33.108  1.00  0.00     0.164 HD
ENDROOT
BRANCH   1  15
HETATM   15  C   UNL     1      -2.144   6.105 -31.350  1.00  0.00     0.020 A 
HETATM   16  C   UNL     1      -1.042   5.960 -30.472  1.00  0.00     0.078 A 
HETATM   17  C   UNL     1      -0.695   6.998 -29.600  1.00  0.00     0.039 A 
HETATM   18  C   UNL     1      -1.420   8.191 -29.597  1.00  0.00     0.022 A 
HETATM   19  C   UNL     1      -2.482   8.355 -30.476  1.00  0.00     0.011 A 
HETATM   20  C   UNL     1      -2.841   7.331 -31.354  1.00  0.00     0.033 A 
HETATM   21 BR   UNL     1      -3.453   9.976 -30.481  1.00  0.00    -0.051 Br
BRANCH  16  22
HETATM   22  O   UNL     1      -0.363   4.771 -30.572  1.00  0.00    -0.355 OA
HETATM   23  C   UNL     1       0.860   4.655 -29.845  1.00  0.00     0.210 C 
ENDBRANCH  16  22
ENDBRANCH   1  15
BRANCH  12  24
HETATM   24  N   UNL     1      -0.903   5.225 -35.532  1.00  0.00    -0.272 NA
HETATM   25  H   UNL     1      -0.013   5.120 -35.049  1.00  0.00     0.127 HD
HETATM   26  H   UNL     1      -0.952   4.625 -36.346  1.00  0.00     0.127 HD
ENDBRANCH  12  24
TORSDOF 3
ENDMDL
MODEL 9
REMARK VINA RESULT:      -6.9      3.784      6.415
REMARK  3 active torsions:
REMARK  status: ('A' for Active; 'I' for Inactive)
REMARK    1  A    between atoms: O_2  and  C_3 
REMARK    2  A    between atoms: C_4  and  C_5 
REMARK    3  A    between atoms: C_16  and  N_17 
ROOT
HETATM    1  C   UNL     1      -3.857   5.217 -33.289  1.00  0.00     0.246 C 
HETATM    2  N   UNL     1      -3.182   5.788 -32.143  1.00  0.00    -0.151 N 
HETATM    3  C   UNL     1      -1.837   6.058 -32.181  1.00  0.00     0.734 A 
HETATM    4  N   UNL     1      -1.456   6.552 -31.022  1.00  0.00    -0.060 NA
HETATM    5  C   UNL     1      -2.588   6.661 -30.255  1.00  0.00     0.103 A 
HETATM    6  C   UNL     1      -3.706   6.208 -30.949  1.00  0.00     0.083 A 
HETATM    7  C   UNL     1      -2.737   7.147 -28.949  1.00  0.00     0.034 A 
HETATM    8  C   UNL     1      -4.016   7.165 -28.381  1.00  0.00     0.002 A 
HETATM    9  C   UNL     1      -5.124   6.711 -29.101  1.00  0.00     0.002 A 
HETATM   10  C   UNL     1      -4.995   6.219 -30.406  1.00  0.00     0.033 A 
HETATM   11  N   UNL     1      -1.073   5.837 -33.274  1.00  0.00    -0.033 NA
HETATM   12  C   UNL     1      -1.639   5.429 -34.351  1.00  0.00     0.193 C 
HETATM   13  N   UNL     1      -3.000   5.149 -34.470  1.00  0.00    -0.338 N 
HETATM   14  H   UNL     1      -3.429   4.905 -35.349  1.00  0.00     0.164 HD
ENDROOT
BRANCH   1  15
HETATM   15  C   UNL     1      -4.416   3.815 -33.069  1.00  0.00     0.020 A 
HETATM   16  C   UNL     1      -5.699   3.506 -33.584  1.00  0.00     0.078 A 
HETATM   17  C   UNL     1      -6.249   2.235 -33.387  1.00  0.00     0.039 A 
HETATM   18  C   UNL     1      -5.535   1.254 -32.697  1.00  0.00     0.022 A 
HETATM   19  C   UNL     1      -4.263   1.537 -32.216  1.00  0.00     0.011 A 
HETATM   20  C   UNL     1      -3.698   2.799 -32.405  1.00  0.00     0.033 A 
HETATM   21 BR   UNL     1      -3.291   0.204 -31.295  1.00  0.00    -0.051 Br
BRANCH  16  22
HETATM   22  O   UNL     1      -6.311   4.517 -34.283  1.00  0.00    -0.355 OA
HETATM   23  C   UNL     1      -7.552   5.004 -33.774  1.00  0.00     0.210 C 
ENDBRANCH  16  22
ENDBRANCH   1  15
BRANCH  12  24
HETATM   24  N   UNL     1      -0.966   5.226 -35.502  1.00  0.00    -0.272 NA
HETATM   25  H   UNL     1      -0.307   4.456 -35.409  1.00  0.00     0.127 HD
HETATM   26  H   UNL     1      -1.525   5.131 -36.340  1.00  0.00     0.127 HD
ENDBRANCH  12  24
TORSDOF 3
ENDMDL
MODEL 10
REMARK VINA RESULT:      -6.9      3.059      4.889
REMARK  3 active torsions:
REMARK  status: ('A' for Active; 'I' for Inactive)
REMARK    1  A    between atoms: O_2  and  C_3 
REMARK    2  A    between atoms: C_4  and  C_5 
REMARK    3  A    between atoms: C_16  and  N_17 
ROOT
HETATM    1  C   UNL     1      -4.942   3.983 -33.443  1.00  0.00     0.246 C 
HETATM    2  N   UNL     1      -5.503   2.758 -32.914  1.00  0.00    -0.151 N 
HETATM    3  C   UNL     1      -6.862   2.598 -32.802  1.00  0.00     0.734 A 
HETATM    4  N   UNL     1      -7.122   1.418 -32.282  1.00  0.00    -0.060 NA
HETATM    5  C   UNL     1      -5.914   0.789 -32.122  1.00  0.00     0.103 A 
HETATM    6  C   UNL     1      -4.867   1.605 -32.538  1.00  0.00     0.083 A 
HETATM    7  C   UNL     1      -5.634  -0.492 -31.626  1.00  0.00     0.034 A 
HETATM    8  C   UNL     1      -4.301  -0.914 -31.570  1.00  0.00     0.002 A 
HETATM    9  C   UNL     1      -3.268  -0.078 -32.001  1.00  0.00     0.002 A 
HETATM   10  C   UNL     1      -3.527   1.206 -32.497  1.00  0.00     0.033 A 
HETATM   11  N   UNL     1      -7.748   3.541 -33.192  1.00  0.00    -0.033 NA
HETATM   12  C   UNL     1      -7.310   4.604 -33.763  1.00  0.00     0.193 C 
HETATM   13  N   UNL     1      -5.961   4.884 -33.976  1.00  0.00    -0.338 N 
HETATM   14  H   UNL     1      -5.650   5.690 -34.496  1.00  0.00     0.164 HD
ENDROOT
BRANCH   1  15
HETATM   15  C   UNL     1      -4.117   4.792 -32.446  1.00  0.00     0.020 A 
HETATM   16  C   UNL     1      -2.733   4.966 -32.693  1.00  0.00     0.078 A 
HETATM   17  C   UNL     1      -1.942   5.688 -31.792  1.00  0.00     0.039 A 
HETATM   18  C   UNL     1      -2.511   6.257 -30.652  1.00  0.00     0.022 A 
HETATM   19  C   UNL     1      -3.873   6.119 -30.417  1.00  0.00     0.011 A 
HETATM   20  C   UNL     1      -4.676   5.403 -31.306  1.00  0.00     0.033 A 
HETATM   21 BR   UNL     1      -4.644   6.902 -28.881  1.00  0.00    -0.051 Br
BRANCH  16  22
HETATM   22  O   UNL     1      -2.268   4.407 -33.859  1.00  0.00    -0.355 OA
HETATM   23  C   UNL     1      -1.538   5.256 -34.744  1.00  0.00     0.210 C 
ENDBRANCH  16  22
ENDBRANCH   1  15
BRANCH  12  24
HETATM   24  N   UNL     1      -8.121   5.577 -34.225  1.00  0.00    -0.272 NA
HETATM   25  H   UNL     1      -8.197   5.537 -35.239  1.00  0.00     0.127 HD
HETATM   26  H   UNL     1      -9.031   5.649 -33.790  1.00  0.00     0.127 HD
ENDBRANCH  12  24
TORSDOF 3
ENDMDL
