MODEL 1
REMARK VINA RESULT:      -7.8      0.000      0.000
REMARK  8 active torsions:
REMARK  status: ('A' for Active; 'I' for Inactive)
REMARK    1  A    between atoms: C_2  and  O_3 
REMARK    2  A    between atoms: O_3  and  C_4 
REMARK    3  A    between atoms: C_5  and  O_6 
REMARK    4  A    between atoms: C_9  and  C_10 
REMARK    5  A    between atoms: C_10  and  N_11 
REMARK       I    between atoms: N_11  and  C_12 
REMARK    6  A    between atoms: C_12  and  C_13 
REMARK    7  A    between atoms: C_14  and  N_15 
REMARK       I    between atoms: N_15  and  C_16 
REMARK    8  A    between atoms: C_16  and  C_17 
ROOT
HETATM    1  C   UNL     1      -5.046  -1.338 -33.051  1.00  0.00     0.058 A 
HETATM    2  C   UNL     1      -6.206  -1.309 -33.865  1.00  0.00     0.050 A 
HETATM    3  C   UNL     1      -6.372  -2.307 -34.832  1.00  0.00     0.030 A 
HETATM    4  C   UNL     1      -5.426  -3.325 -34.986  1.00  0.00     0.002 A 
HETATM    5  C   UNL     1      -4.303  -3.367 -34.168  1.00  0.00     0.001 A 
HETATM    6  C   UNL     1      -4.114  -2.382 -33.201  1.00  0.00     0.019 A 
ENDROOT
BRANCH   1   7
HETATM    7  C   UNL     1      -4.830  -0.298 -31.996  1.00  0.00     0.254 C 
HETATM    8  N   UNL     1      -3.777   0.575 -32.175  1.00  0.00    -0.353 N 
HETATM    9  H   UNL     1      -3.265   0.592 -33.044  1.00  0.00     0.163 HD
HETATM   10  O   UNL     1      -5.593  -0.228 -31.037  1.00  0.00    -0.268 OA
BRANCH   8  11
HETATM   11  C   UNL     1      -3.438   1.571 -31.183  1.00  0.00     0.161 C 
BRANCH  11  12
HETATM   12  C   UNL     1      -3.423   2.954 -31.780  1.00  0.00    -0.038 A 
HETATM   13  C   UNL     1      -4.164   3.998 -31.202  1.00  0.00     0.048 A 
HETATM   14  C   UNL     1      -4.177   5.288 -31.762  1.00  0.00     0.102 A 
HETATM   15  C   UNL     1      -3.426   5.530 -32.927  1.00  0.00     0.102 A 
HETATM   16  C   UNL     1      -2.674   4.488 -33.489  1.00  0.00     0.040 A 
HETATM   17  C   UNL     1      -2.674   3.213 -32.929  1.00  0.00     0.012 A 
BRANCH  14  18
HETATM   18  O   UNL     1      -4.866   6.333 -31.207  1.00  0.00    -0.353 OA
HETATM   19  C   UNL     1      -6.227   6.515 -31.573  1.00  0.00     0.210 C 
ENDBRANCH  14  18
BRANCH  15  20
HETATM   20  O   UNL     1      -3.292   6.699 -33.629  1.00  0.00    -0.349 OA
BRANCH  20  21
HETATM   21  C   UNL     1      -1.991   7.257 -33.791  1.00  0.00     0.171 C 
HETATM   22  C   UNL     1      -1.585   7.877 -32.464  1.00  0.00     0.034 C 
ENDBRANCH  20  21
ENDBRANCH  15  20
ENDBRANCH  11  12
ENDBRANCH   8  11
ENDBRANCH   1   7
BRANCH   2  23
HETATM   23  N   UNL     1      -7.154  -0.271 -33.689  1.00  0.00    -0.321 N 
HETATM   24  C   UNL     1      -7.531   0.712 -34.578  1.00  0.00     0.265 C 
HETATM   25  O   UNL     1      -7.152   0.853 -35.736  1.00  0.00    -0.267 OA
HETATM   26  H   UNL     1      -7.662  -0.293 -32.802  1.00  0.00     0.169 HD
BRANCH  24  27
HETATM   27  C   UNL     1      -8.547   1.653 -33.994  1.00  0.00     0.097 C 
HETATM   28  S   UNL     1     -10.158   1.009 -33.863  1.00  0.00    -0.120 SA
HETATM   29  C   UNL     1     -11.041   2.507 -33.360  1.00  0.00     0.106 C 
HETATM   30  C   UNL     1     -10.189   3.271 -32.364  1.00  0.00     0.185 C 
HETATM   31  O   UNL     1      -9.017   3.811 -32.980  1.00  0.00    -0.353 OA
HETATM   32  C   UNL     1      -8.180   2.891 -33.596  1.00  0.00     0.064 C 
HETATM   33  C   UNL     1      -6.803   3.465 -33.807  1.00  0.00     0.078 C 
ENDBRANCH  24  27
ENDBRANCH   2  23
TORSDOF 8
ENDMDL
MODEL 2
REMARK VINA RESULT:      -7.7      3.634      8.582
REMARK  8 active torsions:
REMARK  status: ('A' for Active; 'I' for Inactive)
REMARK    1  A    between atoms: C_2  and  O_3 
REMARK    2  A    between atoms: O_3  and  C_4 
REMARK    3  A    between atoms: C_5  and  O_6 
REMARK    4  A    between atoms: C_9  and  C_10 
REMARK    5  A    between atoms: C_10  and  N_11 
REMARK       I    between atoms: N_11  and  C_12 
REMARK    6  A    between atoms: C_12  and  C_13 
REMARK    7  A    between atoms: C_14  and  N_15 
REMARK       I    between atoms: N_15  and  C_16 
REMARK    8  A    between atoms: C_16  and  C_17 
ROOT
HETATM    1  C   UNL     1      -2.542   4.706 -32.551  1.00  0.00     0.058 A 
HETATM    2  C   UNL     1      -1.783   5.771 -32.005  1.00  0.00     0.050 A 
HETATM    3  C   UNL     1      -0.959   6.513 -32.860  1.00  0.00     0.030 A 
HETATM    4  C   UNL     1      -0.895   6.228 -34.226  1.00  0.00     0.002 A 
HETATM    5  C   UNL     1      -1.662   5.200 -34.764  1.00  0.00     0.001 A 
HETATM    6  C   UNL     1      -2.486   4.444 -33.933  1.00  0.00     0.019 A 
ENDROOT
BRANCH   1   7
HETATM    7  C   UNL     1      -3.444   3.889 -31.679  1.00  0.00     0.254 C 
HETATM    8  N   UNL     1      -3.396   2.519 -31.825  1.00  0.00    -0.353 N 
HETATM    9  H   UNL     1      -2.687   2.087 -32.398  1.00  0.00     0.163 HD
HETATM   10  O   UNL     1      -4.166   4.442 -30.853  1.00  0.00    -0.268 OA
BRANCH   8  11
HETATM   11  C   UNL     1      -4.275   1.643 -31.083  1.00  0.00     0.161 C 
BRANCH  11  12
HETATM   12  C   UNL     1      -4.968   0.663 -31.993  1.00  0.00    -0.038 A 
HETATM   13  C   UNL     1      -6.368   0.650 -32.108  1.00  0.00     0.048 A 
HETATM   14  C   UNL     1      -7.029  -0.275 -32.937  1.00  0.00     0.102 A 
HETATM   15  C   UNL     1      -6.262  -1.203 -33.665  1.00  0.00     0.102 A 
HETATM   16  C   UNL     1      -4.864  -1.172 -33.560  1.00  0.00     0.040 A 
HETATM   17  C   UNL     1      -4.221  -0.256 -32.731  1.00  0.00     0.012 A 
BRANCH  14  18
HETATM   18  O   UNL     1      -8.389  -0.296 -33.092  1.00  0.00    -0.353 OA
HETATM   19  C   UNL     1      -8.992   0.702 -33.904  1.00  0.00     0.210 C 
ENDBRANCH  14  18
BRANCH  15  20
HETATM   20  O   UNL     1      -6.692  -2.178 -34.526  1.00  0.00    -0.349 OA
BRANCH  20  21
HETATM   21  C   UNL     1      -5.762  -3.162 -34.968  1.00  0.00     0.171 C 
HETATM   22  C   UNL     1      -6.511  -4.477 -35.107  1.00  0.00     0.034 C 
ENDBRANCH  20  21
ENDBRANCH  15  20
ENDBRANCH  11  12
ENDBRANCH   8  11
ENDBRANCH   1   7
BRANCH   2  23
HETATM   23  N   UNL     1      -1.866   6.046 -30.618  1.00  0.00    -0.321 N 
HETATM   24  C   UNL     1      -1.874   7.267 -29.980  1.00  0.00     0.265 C 
HETATM   25  O   UNL     1      -1.865   8.378 -30.499  1.00  0.00    -0.267 OA
HETATM   26  H   UNL     1      -1.990   5.225 -30.020  1.00  0.00     0.169 HD
BRANCH  24  27
HETATM   27  C   UNL     1      -1.936   7.131 -28.485  1.00  0.00     0.097 C 
HETATM   28  S   UNL     1      -3.538   7.181 -27.806  1.00  0.00    -0.120 SA
HETATM   29  C   UNL     1      -3.119   7.225 -26.046  1.00  0.00     0.106 C 
HETATM   30  C   UNL     1      -1.959   6.282 -25.793  1.00  0.00     0.185 C 
HETATM   31  O   UNL     1      -0.752   6.757 -26.396  1.00  0.00    -0.353 OA
HETATM   32  C   UNL     1      -0.803   6.963 -27.767  1.00  0.00     0.064 C 
HETATM   33  C   UNL     1       0.579   7.021 -28.361  1.00  0.00     0.078 C 
ENDBRANCH  24  27
ENDBRANCH   2  23
TORSDOF 8
ENDMDL
MODEL 3
REMARK VINA RESULT:      -7.6      3.915      7.353
REMARK  8 active torsions:
REMARK  status: ('A' for Active; 'I' for Inactive)
REMARK    1  A    between atoms: C_2  and  O_3 
REMARK    2  A    between atoms: O_3  and  C_4 
REMARK    3  A    between atoms: C_5  and  O_6 
REMARK    4  A    between atoms: C_9  and  C_10 
REMARK    5  A    between atoms: C_10  and  N_11 
REMARK       I    between atoms: N_11  and  C_12 
REMARK    6  A    between atoms: C_12  and  C_13 
REMARK    7  A    between atoms: C_14  and  N_15 
REMARK       I    between atoms: N_15  and  C_16 
REMARK    8  A    between atoms: C_16  and  C_17 
ROOT
HETATM    1  C   UNL     1      -8.730   3.093 -31.375  1.00  0.00     0.058 A 
HETATM    2  C   UNL     1      -9.934   3.761 -31.040  1.00  0.00     0.050 A 
HETATM    3  C   UNL     1      -9.860   4.934 -30.280  1.00  0.00     0.030 A 
HETATM    4  C   UNL     1      -8.628   5.453 -29.873  1.00  0.00     0.002 A 
HETATM    5  C   UNL     1      -7.447   4.810 -30.226  1.00  0.00     0.001 A 
HETATM    6  C   UNL     1      -7.494   3.638 -30.978  1.00  0.00     0.019 A 
ENDROOT
BRANCH   1   7
HETATM    7  C   UNL     1      -8.757   1.839 -32.193  1.00  0.00     0.254 C 
HETATM    8  N   UNL     1      -8.206   1.896 -33.456  1.00  0.00    -0.353 N 
HETATM    9  H   UNL     1      -7.690   2.710 -33.756  1.00  0.00     0.163 HD
HETATM   10  O   UNL     1      -9.230   0.808 -31.722  1.00  0.00    -0.268 OA
BRANCH   8  11
HETATM   11  C   UNL     1      -8.243   0.763 -34.354  1.00  0.00     0.161 C 
BRANCH  11  12
HETATM   12  C   UNL     1      -7.015  -0.096 -34.202  1.00  0.00    -0.038 A 
HETATM   13  C   UNL     1      -6.938  -1.359 -34.810  1.00  0.00     0.048 A 
HETATM   14  C   UNL     1      -5.806  -2.181 -34.657  1.00  0.00     0.102 A 
HETATM   15  C   UNL     1      -4.731  -1.717 -33.878  1.00  0.00     0.102 A 
HETATM   16  C   UNL     1      -4.807  -0.447 -33.288  1.00  0.00     0.040 A 
HETATM   17  C   UNL     1      -5.935   0.355 -33.441  1.00  0.00     0.012 A 
BRANCH  14  18
HETATM   18  O   UNL     1      -5.689  -3.405 -35.259  1.00  0.00    -0.353 OA
HETATM   19  C   UNL     1      -6.747  -4.341 -35.099  1.00  0.00     0.210 C 
ENDBRANCH  14  18
BRANCH  15  20
HETATM   20  O   UNL     1      -3.543  -2.342 -33.603  1.00  0.00    -0.349 OA
BRANCH  20  21
HETATM   21  C   UNL     1      -3.482  -3.247 -32.506  1.00  0.00     0.171 C 
HETATM   22  C   UNL     1      -3.420  -4.657 -33.070  1.00  0.00     0.034 C 
ENDBRANCH  20  21
ENDBRANCH  15  20
ENDBRANCH  11  12
ENDBRANCH   8  11
ENDBRANCH   1   7
BRANCH   2  23
HETATM   23  N   UNL     1     -11.172   3.221 -31.467  1.00  0.00    -0.321 N 
HETATM   24  C   UNL     1     -11.876   3.484 -32.622  1.00  0.00     0.265 C 
HETATM   25  O   UNL     1     -11.537   4.212 -33.550  1.00  0.00    -0.267 OA
HETATM   26  H   UNL     1     -11.563   2.499 -30.857  1.00  0.00     0.169 HD
BRANCH  24  27
HETATM   27  C   UNL     1     -13.174   2.730 -32.686  1.00  0.00     0.097 C 
HETATM   28  S   UNL     1     -14.512   3.500 -31.881  1.00  0.00    -0.120 SA
HETATM   29  C   UNL     1     -15.739   2.175 -32.005  1.00  0.00     0.106 C 
HETATM   30  C   UNL     1     -15.636   1.534 -33.375  1.00  0.00     0.185 C 
HETATM   31  O   UNL     1     -14.409   0.816 -33.529  1.00  0.00    -0.353 OA
HETATM   32  C   UNL     1     -13.249   1.556 -33.349  1.00  0.00     0.064 C 
HETATM   33  C   UNL     1     -12.059   0.859 -33.954  1.00  0.00     0.078 C 
ENDBRANCH  24  27
ENDBRANCH   2  23
TORSDOF 8
ENDMDL
MODEL 4
REMARK VINA RESULT:      -7.4      4.023      7.105
REMARK  8 active torsions:
REMARK  status: ('A' for Active; 'I' for Inactive)
REMARK    1  A    between atoms: C_2  and  O_3 
REMARK    2  A    between atoms: O_3  and  C_4 
REMARK    3  A    between atoms: C_5  and  O_6 
REMARK    4  A    between atoms: C_9  and  C_10 
REMARK    5  A    between atoms: C_10  and  N_11 
REMARK       I    between atoms: N_11  and  C_12 
REMARK    6  A    between atoms: C_12  and  C_13 
REMARK    7  A    between atoms: C_14  and  N_15 
REMARK       I    between atoms: N_15  and  C_16 
REMARK    8  A    between atoms: C_16  and  C_17 
ROOT
HETATM    1  C   UNL     1     -11.858   1.237 -33.721  1.00  0.00     0.058 A 
HETATM    2  C   UNL     1     -12.946   2.061 -34.102  1.00  0.00     0.050 A 
HETATM    3  C   UNL     1     -14.214   1.483 -34.225  1.00  0.00     0.030 A 
HETATM    4  C   UNL     1     -14.415   0.125 -33.961  1.00  0.00     0.002 A 
HETATM    5  C   UNL     1     -13.351  -0.676 -33.562  1.00  0.00     0.001 A 
HETATM    6  C   UNL     1     -12.078  -0.124 -33.436  1.00  0.00     0.019 A 
ENDROOT
BRANCH   1   7
HETATM    7  C   UNL     1     -10.484   1.812 -33.568  1.00  0.00     0.254 C 
HETATM    8  N   UNL     1      -9.542   1.462 -34.511  1.00  0.00    -0.353 N 
HETATM    9  H   UNL     1      -9.808   0.949 -35.339  1.00  0.00     0.163 HD
HETATM   10  O   UNL     1     -10.242   2.587 -32.646  1.00  0.00    -0.268 OA
BRANCH   8  11
HETATM   11  C   UNL     1      -8.169   1.905 -34.417  1.00  0.00     0.161 C 
BRANCH  11  12
HETATM   12  C   UNL     1      -7.248   0.765 -34.069  1.00  0.00    -0.038 A 
HETATM   13  C   UNL     1      -6.464   0.798 -32.904  1.00  0.00     0.048 A 
HETATM   14  C   UNL     1      -5.583  -0.250 -32.581  1.00  0.00     0.102 A 
HETATM   15  C   UNL     1      -5.493  -1.353 -33.448  1.00  0.00     0.102 A 
HETATM   16  C   UNL     1      -6.291  -1.389 -34.601  1.00  0.00     0.040 A 
HETATM   17  C   UNL     1      -7.156  -0.342 -34.915  1.00  0.00     0.012 A 
BRANCH  14  18
HETATM   18  O   UNL     1      -4.827  -0.260 -31.439  1.00  0.00    -0.353 OA
HETATM   19  C   UNL     1      -3.474   0.166 -31.521  1.00  0.00     0.210 C 
ENDBRANCH  14  18
BRANCH  15  20
HETATM   20  O   UNL     1      -4.714  -2.474 -33.327  1.00  0.00    -0.349 OA
BRANCH  20  21
HETATM   21  C   UNL     1      -4.442  -3.250 -34.490  1.00  0.00     0.171 C 
HETATM   22  C   UNL     1      -3.762  -4.533 -34.042  1.00  0.00     0.034 C 
ENDBRANCH  20  21
ENDBRANCH  15  20
ENDBRANCH  11  12
ENDBRANCH   8  11
ENDBRANCH   1   7
BRANCH   2  23
HETATM   23  N   UNL     1     -12.721   3.436 -34.360  1.00  0.00    -0.321 N 
HETATM   24  C   UNL     1     -12.374   4.046 -35.547  1.00  0.00     0.265 C 
HETATM   25  O   UNL     1     -12.240   3.515 -36.644  1.00  0.00    -0.267 OA
HETATM   26  H   UNL     1     -12.895   4.060 -33.568  1.00  0.00     0.169 HD
BRANCH  24  27
HETATM   27  C   UNL     1     -12.191   5.529 -35.395  1.00  0.00     0.097 C 
HETATM   28  S   UNL     1     -13.621   6.481 -35.678  1.00  0.00    -0.120 SA
HETATM   29  C   UNL     1     -12.895   8.138 -35.626  1.00  0.00     0.106 C 
HETATM   30  C   UNL     1     -11.867   8.191 -34.512  1.00  0.00     0.185 C 
HETATM   31  O   UNL     1     -10.728   7.378 -34.808  1.00  0.00    -0.353 OA
HETATM   32  C   UNL     1     -10.989   6.036 -35.044  1.00  0.00     0.064 C 
HETATM   33  C   UNL     1      -9.741   5.205 -34.899  1.00  0.00     0.078 C 
ENDBRANCH  24  27
ENDBRANCH   2  23
TORSDOF 8
ENDMDL
MODEL 5
REMARK VINA RESULT:      -7.4      1.403      2.341
REMARK  8 active torsions:
REMARK  status: ('A' for Active; 'I' for Inactive)
REMARK    1  A    between atoms: C_2  and  O_3 
REMARK    2  A    between atoms: O_3  and  C_4 
REMARK    3  A    between atoms: C_5  and  O_6 
REMARK    4  A    between atoms: C_9  and  C_10 
REMARK    5  A    between atoms: C_10  and  N_11 
REMARK       I    between atoms: N_11  and  C_12 
REMARK    6  A    between atoms: C_12  and  C_13 
REMARK    7  A    between atoms: C_14  and  N_15 
REMARK       I    between atoms: N_15  and  C_16 
REMARK    8  A    between atoms: C_16  and  C_17 
ROOT
HETATM    1  C   UNL     1      -5.387  -1.144 -32.991  1.00  0.00     0.058 A 
HETATM    2  C   UNL     1      -6.701  -1.075 -33.518  1.00  0.00     0.050 A 
HETATM    3  C   UNL     1      -7.073  -1.985 -34.513  1.00  0.00     0.030 A 
HETATM    4  C   UNL     1      -6.180  -2.958 -34.970  1.00  0.00     0.002 A 
HETATM    5  C   UNL     1      -4.901  -3.042 -34.433  1.00  0.00     0.001 A 
HETATM    6  C   UNL     1      -4.505  -2.144 -33.444  1.00  0.00     0.019 A 
ENDROOT
BRANCH   1   7
HETATM    7  C   UNL     1      -4.945  -0.198 -31.918  1.00  0.00     0.254 C 
HETATM    8  N   UNL     1      -3.800   0.533 -32.151  1.00  0.00    -0.353 N 
HETATM    9  H   UNL     1      -3.360   0.525 -33.060  1.00  0.00     0.163 HD
HETATM   10  O   UNL     1      -5.613  -0.075 -30.895  1.00  0.00    -0.268 OA
BRANCH   8  11
HETATM   11  C   UNL     1      -3.248   1.422 -31.154  1.00  0.00     0.161 C 
BRANCH  11  12
HETATM   12  C   UNL     1      -3.545   2.862 -31.480  1.00  0.00    -0.038 A 
HETATM   13  C   UNL     1      -2.733   3.584 -32.370  1.00  0.00     0.048 A 
HETATM   14  C   UNL     1      -2.986   4.936 -32.665  1.00  0.00     0.102 A 
HETATM   15  C   UNL     1      -4.081   5.571 -32.052  1.00  0.00     0.102 A 
HETATM   16  C   UNL     1      -4.898   4.841 -31.178  1.00  0.00     0.040 A 
HETATM   17  C   UNL     1      -4.634   3.504 -30.888  1.00  0.00     0.012 A 
BRANCH  14  18
HETATM   18  O   UNL     1      -2.230   5.658 -33.549  1.00  0.00    -0.353 OA
HETATM   19  C   UNL     1      -2.305   5.328 -34.930  1.00  0.00     0.210 C 
ENDBRANCH  14  18
BRANCH  15  20
HETATM   20  O   UNL     1      -4.509   6.864 -32.198  1.00  0.00    -0.349 OA
BRANCH  20  21
HETATM   21  C   UNL     1      -5.684   7.280 -31.508  1.00  0.00     0.171 C 
HETATM   22  C   UNL     1      -5.339   8.532 -30.718  1.00  0.00     0.034 C 
ENDBRANCH  20  21
ENDBRANCH  15  20
ENDBRANCH  11  12
ENDBRANCH   8  11
ENDBRANCH   1   7
BRANCH   2  23
HETATM   23  N   UNL     1      -7.592  -0.084 -33.037  1.00  0.00    -0.321 N 
HETATM   24  C   UNL     1      -7.770   1.207 -33.485  1.00  0.00     0.265 C 
HETATM   25  O   UNL     1      -7.219   1.746 -34.439  1.00  0.00    -0.267 OA
HETATM   26  H   UNL     1      -8.223  -0.392 -32.293  1.00  0.00     0.169 HD
BRANCH  24  27
HETATM   27  C   UNL     1      -8.793   1.957 -32.679  1.00  0.00     0.097 C 
HETATM   28  S   UNL     1      -8.203   2.637 -31.189  1.00  0.00    -0.120 SA
HETATM   29  C   UNL     1      -9.766   3.205 -30.477  1.00  0.00     0.106 C 
HETATM   30  C   UNL     1     -10.620   3.806 -31.577  1.00  0.00     0.185 C 
HETATM   31  O   UNL     1     -11.061   2.810 -32.504  1.00  0.00    -0.353 OA
HETATM   32  C   UNL     1     -10.060   2.082 -33.131  1.00  0.00     0.064 C 
HETATM   33  C   UNL     1     -10.576   1.404 -34.373  1.00  0.00     0.078 C 
ENDBRANCH  24  27
ENDBRANCH   2  23
TORSDOF 8
ENDMDL
MODEL 6
REMARK VINA RESULT:      -7.3      2.148      3.039
REMARK  8 active torsions:
REMARK  status: ('A' for Active; 'I' for Inactive)
REMARK    1  A    between atoms: C_2  and  O_3 
REMARK    2  A    between atoms: O_3  and  C_4 
REMARK    3  A    between atoms: C_5  and  O_6 
REMARK    4  A    between atoms: C_9  and  C_10 
REMARK    5  A    between atoms: C_10  and  N_11 
REMARK       I    between atoms: N_11  and  C_12 
REMARK    6  A    between atoms: C_12  and  C_13 
REMARK    7  A    between atoms: C_14  and  N_15 
REMARK       I    between atoms: N_15  and  C_16 
REMARK    8  A    between atoms: C_16  and  C_17 
ROOT
HETATM    1  C   UNL     1      -6.441   0.503 -33.041  1.00  0.00     0.058 A 
HETATM    2  C   UNL     1      -7.507   0.165 -33.911  1.00  0.00     0.050 A 
HETATM    3  C   UNL     1      -7.354  -0.935 -34.762  1.00  0.00     0.030 A 
HETATM    4  C   UNL     1      -6.186  -1.701 -34.746  1.00  0.00     0.002 A 
HETATM    5  C   UNL     1      -5.152  -1.384 -33.873  1.00  0.00     0.001 A 
HETATM    6  C   UNL     1      -5.279  -0.290 -33.019  1.00  0.00     0.019 A 
ENDROOT
BRANCH   1   7
HETATM    7  C   UNL     1      -6.561   1.666 -32.105  1.00  0.00     0.254 C 
HETATM    8  N   UNL     1      -6.050   2.875 -32.529  1.00  0.00    -0.353 N 
HETATM    9  H   UNL     1      -5.733   2.995 -33.480  1.00  0.00     0.163 HD
HETATM   10  O   UNL     1      -7.125   1.528 -31.023  1.00  0.00    -0.268 OA
BRANCH   8  11
HETATM   11  C   UNL     1      -6.052   4.042 -31.677  1.00  0.00     0.161 C 
BRANCH  11  12
HETATM   12  C   UNL     1      -4.688   4.679 -31.617  1.00  0.00    -0.038 A 
HETATM   13  C   UNL     1      -3.725   4.417 -32.606  1.00  0.00     0.048 A 
HETATM   14  C   UNL     1      -2.440   4.987 -32.550  1.00  0.00     0.102 A 
HETATM   15  C   UNL     1      -2.122   5.839 -31.476  1.00  0.00     0.102 A 
HETATM   16  C   UNL     1      -3.093   6.110 -30.502  1.00  0.00     0.040 A 
HETATM   17  C   UNL     1      -4.361   5.535 -30.565  1.00  0.00     0.012 A 
BRANCH  14  18
HETATM   18  O   UNL     1      -1.489   4.774 -33.511  1.00  0.00    -0.353 OA
HETATM   19  C   UNL     1      -1.784   5.153 -34.849  1.00  0.00     0.210 C 
ENDBRANCH  14  18
BRANCH  15  20
HETATM   20  O   UNL     1      -0.946   6.499 -31.229  1.00  0.00    -0.349 OA
BRANCH  20  21
HETATM   21  C   UNL     1      -0.151   6.090 -30.121  1.00  0.00     0.171 C 
HETATM   22  C   UNL     1       0.394   7.343 -29.454  1.00  0.00     0.034 C 
ENDBRANCH  20  21
ENDBRANCH  15  20
ENDBRANCH  11  12
ENDBRANCH   8  11
ENDBRANCH   1   7
BRANCH   2  23
HETATM   23  N   UNL     1      -8.685   0.952 -33.908  1.00  0.00    -0.321 N 
HETATM   24  C   UNL     1      -9.873   0.725 -33.246  1.00  0.00     0.265 C 
HETATM   25  O   UNL     1     -10.131  -0.193 -32.475  1.00  0.00    -0.267 OA
HETATM   26  H   UNL     1      -8.620   1.834 -34.423  1.00  0.00     0.169 HD
BRANCH  24  27
HETATM   27  C   UNL     1     -10.900   1.784 -33.533  1.00  0.00     0.097 C 
HETATM   28  S   UNL     1     -11.946   1.448 -34.883  1.00  0.00    -0.120 SA
HETATM   29  C   UNL     1     -12.812   3.034 -34.995  1.00  0.00     0.106 C 
HETATM   30  C   UNL     1     -13.119   3.527 -33.594  1.00  0.00     0.185 C 
HETATM   31  O   UNL     1     -11.927   3.889 -32.891  1.00  0.00    -0.353 OA
HETATM   32  C   UNL     1     -10.976   2.888 -32.758  1.00  0.00     0.064 C 
HETATM   33  C   UNL     1      -9.999   3.207 -31.657  1.00  0.00     0.078 C 
ENDBRANCH  24  27
ENDBRANCH   2  23
TORSDOF 8
ENDMDL
MODEL 7
REMARK VINA RESULT:      -7.3      2.260      3.013
REMARK  8 active torsions:
REMARK  status: ('A' for Active; 'I' for Inactive)
REMARK    1  A    between atoms: C_2  and  O_3 
REMARK    2  A    between atoms: O_3  and  C_4 
REMARK    3  A    between atoms: C_5  and  O_6 
REMARK    4  A    between atoms: C_9  and  C_10 
REMARK    5  A    between atoms: C_10  and  N_11 
REMARK       I    between atoms: N_11  and  C_12 
REMARK    6  A    between atoms: C_12  and  C_13 
REMARK    7  A    between atoms: C_14  and  N_15 
REMARK       I    between atoms: N_15  and  C_16 
REMARK    8  A    between atoms: C_16  and  C_17 
ROOT
HETATM    1  C   UNL     1      -6.290   0.492 -33.303  1.00  0.00     0.058 A 
HETATM    2  C   UNL     1      -7.370  -0.067 -34.029  1.00  0.00     0.050 A 
HETATM    3  C   UNL     1      -7.209  -1.336 -34.600  1.00  0.00     0.030 A 
HETATM    4  C   UNL     1      -6.017  -2.049 -34.444  1.00  0.00     0.002 A 
HETATM    5  C   UNL     1      -4.969  -1.509 -33.707  1.00  0.00     0.001 A 
HETATM    6  C   UNL     1      -5.104  -0.247 -33.134  1.00  0.00     0.019 A 
ENDROOT
BRANCH   1   7
HETATM    7  C   UNL     1      -6.418   1.842 -32.667  1.00  0.00     0.254 C 
HETATM    8  N   UNL     1      -5.870   2.913 -33.340  1.00  0.00    -0.353 N 
HETATM    9  H   UNL     1      -5.521   2.806 -34.281  1.00  0.00     0.163 HD
HETATM   10  O   UNL     1      -7.018   1.965 -31.603  1.00  0.00    -0.268 OA
BRANCH   8  11
HETATM   11  C   UNL     1      -5.877   4.247 -32.782  1.00  0.00     0.161 C 
BRANCH  11  12
HETATM   12  C   UNL     1      -4.477   4.778 -32.616  1.00  0.00    -0.038 A 
HETATM   13  C   UNL     1      -4.250   6.123 -32.280  1.00  0.00     0.048 A 
HETATM   14  C   UNL     1      -2.948   6.637 -32.145  1.00  0.00     0.102 A 
HETATM   15  C   UNL     1      -1.854   5.777 -32.351  1.00  0.00     0.102 A 
HETATM   16  C   UNL     1      -2.087   4.431 -32.669  1.00  0.00     0.040 A 
HETATM   17  C   UNL     1      -3.382   3.935 -32.807  1.00  0.00     0.012 A 
BRANCH  14  18
HETATM   18  O   UNL     1      -2.694   7.935 -31.791  1.00  0.00    -0.353 OA
HETATM   19  C   UNL     1      -3.728   8.679 -31.163  1.00  0.00     0.210 C 
ENDBRANCH  14  18
BRANCH  15  20
HETATM   20  O   UNL     1      -0.516   6.061 -32.267  1.00  0.00    -0.349 OA
BRANCH  20  21
HETATM   21  C   UNL     1       0.190   5.696 -31.086  1.00  0.00     0.171 C 
HETATM   22  C   UNL     1       0.305   6.935 -30.213  1.00  0.00     0.034 C 
ENDBRANCH  20  21
ENDBRANCH  15  20
ENDBRANCH  11  12
ENDBRANCH   8  11
ENDBRANCH   1   7
BRANCH   2  23
HETATM   23  N   UNL     1      -8.570   0.671 -34.171  1.00  0.00    -0.321 N 
HETATM   24  C   UNL     1      -9.699   0.643 -33.381  1.00  0.00     0.265 C 
HETATM   25  O   UNL     1      -9.869   0.001 -32.350  1.00  0.00    -0.267 OA
HETATM   26  H   UNL     1      -8.572   1.354 -34.933  1.00  0.00     0.169 HD
BRANCH  24  27
HETATM   27  C   UNL     1     -10.779   1.554 -33.893  1.00  0.00     0.097 C 
HETATM   28  S   UNL     1     -10.248   3.154 -34.326  1.00  0.00    -0.120 SA
HETATM   29  C   UNL     1     -11.854   3.929 -34.640  1.00  0.00     0.106 C 
HETATM   30  C   UNL     1     -12.743   2.942 -35.371  1.00  0.00     0.185 C 
HETATM   31  O   UNL     1     -13.105   1.840 -34.534  1.00  0.00    -0.353 OA
HETATM   32  C   UNL     1     -12.049   1.109 -34.008  1.00  0.00     0.064 C 
HETATM   33  C   UNL     1     -12.507  -0.246 -33.536  1.00  0.00     0.078 C 
ENDBRANCH  24  27
ENDBRANCH   2  23
TORSDOF 8
ENDMDL
MODEL 8
REMARK VINA RESULT:      -7.2      1.957      5.150
REMARK  8 active torsions:
REMARK  status: ('A' for Active; 'I' for Inactive)
REMARK    1  A    between atoms: C_2  and  O_3 
REMARK    2  A    between atoms: O_3  and  C_4 
REMARK    3  A    between atoms: C_5  and  O_6 
REMARK    4  A    between atoms: C_9  and  C_10 
REMARK    5  A    between atoms: C_10  and  N_11 
REMARK       I    between atoms: N_11  and  C_12 
REMARK    6  A    between atoms: C_12  and  C_13 
REMARK    7  A    between atoms: C_14  and  N_15 
REMARK       I    between atoms: N_15  and  C_16 
REMARK    8  A    between atoms: C_16  and  C_17 
ROOT
HETATM    1  C   UNL     1      -6.694  -1.307 -34.280  1.00  0.00     0.058 A 
HETATM    2  C   UNL     1      -5.415  -0.788 -33.959  1.00  0.00     0.050 A 
HETATM    3  C   UNL     1      -4.330  -1.671 -33.895  1.00  0.00     0.030 A 
HETATM    4  C   UNL     1      -4.494  -3.034 -34.159  1.00  0.00     0.002 A 
HETATM    5  C   UNL     1      -5.745  -3.536 -34.500  1.00  0.00     0.001 A 
HETATM    6  C   UNL     1      -6.840  -2.678 -34.567  1.00  0.00     0.019 A 
ENDROOT
BRANCH   1   7
HETATM    7  C   UNL     1      -7.883  -0.401 -34.370  1.00  0.00     0.254 C 
HETATM    8  N   UNL     1      -8.721  -0.346 -33.277  1.00  0.00    -0.353 N 
HETATM    9  H   UNL     1      -8.465  -0.795 -32.409  1.00  0.00     0.163 HD
HETATM   10  O   UNL     1      -8.063   0.278 -35.377  1.00  0.00    -0.268 OA
BRANCH   8  11
HETATM   11  C   UNL     1      -9.932   0.442 -33.286  1.00  0.00     0.161 C 
BRANCH  11  12
HETATM   12  C   UNL     1      -9.742   1.747 -32.558  1.00  0.00    -0.038 A 
HETATM   13  C   UNL     1     -10.218   2.953 -33.100  1.00  0.00     0.048 A 
HETATM   14  C   UNL     1     -10.027   4.181 -32.442  1.00  0.00     0.102 A 
HETATM   15  C   UNL     1      -9.343   4.193 -31.213  1.00  0.00     0.102 A 
HETATM   16  C   UNL     1      -8.886   2.984 -30.668  1.00  0.00     0.040 A 
HETATM   17  C   UNL     1      -9.076   1.774 -31.332  1.00  0.00     0.012 A 
BRANCH  14  18
HETATM   18  O   UNL     1     -10.503   5.368 -32.930  1.00  0.00    -0.353 OA
HETATM   19  C   UNL     1     -11.667   5.346 -33.744  1.00  0.00     0.210 C 
ENDBRANCH  14  18
BRANCH  15  20
HETATM   20  O   UNL     1      -9.053   5.263 -30.407  1.00  0.00    -0.349 OA
BRANCH  20  21
HETATM   21  C   UNL     1      -7.782   5.314 -29.767  1.00  0.00     0.171 C 
HETATM   22  C   UNL     1      -7.975   5.960 -28.404  1.00  0.00     0.034 C 
ENDBRANCH  20  21
ENDBRANCH  15  20
ENDBRANCH  11  12
ENDBRANCH   8  11
ENDBRANCH   1   7
BRANCH   2  23
HETATM   23  N   UNL     1      -5.270   0.596 -33.699  1.00  0.00    -0.321 N 
HETATM   24  C   UNL     1      -5.605   1.301 -32.563  1.00  0.00     0.265 C 
HETATM   25  O   UNL     1      -6.055   0.851 -31.515  1.00  0.00    -0.267 OA
HETATM   26  H   UNL     1      -4.804   1.130 -34.437  1.00  0.00     0.169 HD
BRANCH  24  27
HETATM   27  C   UNL     1      -5.327   2.772 -32.698  1.00  0.00     0.097 C 
HETATM   28  S   UNL     1      -6.471   3.651 -33.672  1.00  0.00    -0.120 SA
HETATM   29  C   UNL     1      -5.633   5.253 -33.748  1.00  0.00     0.106 C 
HETATM   30  C   UNL     1      -5.037   5.562 -32.388  1.00  0.00     0.185 C 
HETATM   31  O   UNL     1      -3.957   4.679 -32.074  1.00  0.00    -0.353 OA
HETATM   32  C   UNL     1      -4.265   3.325 -32.074  1.00  0.00     0.064 C 
HETATM   33  C   UNL     1      -3.232   2.532 -31.317  1.00  0.00     0.078 C 
ENDBRANCH  24  27
ENDBRANCH   2  23
TORSDOF 8
ENDMDL
MODEL 9
REMARK VINA RESULT:      -7.2      4.263      7.582
REMARK  8 active torsions:
REMARK  status: ('A' for Active; 'I' for Inactive)
REMARK    1  A    between atoms: C_2  and  O_3 
REMARK    2  A    between atoms: O_3  and  C_4 
REMARK    3  A    between atoms: C_5  and  O_6 
REMARK    4  A    between atoms: C_9  and  C_10 
REMARK    5  A    between atoms: C_10  and  N_11 
REMARK       I    between atoms: N_11  and  C_12 
REMARK    6  A    between atoms: C_12  and  C_13 
REMARK    7  A    between atoms: C_14  and  N_15 
REMARK       I    between atoms: N_15  and  C_16 
REMARK    8  A    between atoms: C_16  and  C_17 
ROOT
HETATM    1  C   UNL     1     -11.820   1.619 -33.295  1.00  0.00     0.058 A 
HETATM    2  C   UNL     1     -12.756   2.641 -33.000  1.00  0.00     0.050 A 
HETATM    3  C   UNL     1     -14.112   2.400 -33.247  1.00  0.00     0.030 A 
HETATM    4  C   UNL     1     -14.544   1.172 -33.756  1.00  0.00     0.002 A 
HETATM    5  C   UNL     1     -13.627   0.161 -34.019  1.00  0.00     0.001 A 
HETATM    6  C   UNL     1     -12.271   0.379 -33.785  1.00  0.00     0.019 A 
ENDROOT
BRANCH   1   7
HETATM    7  C   UNL     1     -10.359   1.827 -33.039  1.00  0.00     0.254 C 
HETATM    8  N   UNL     1      -9.723   0.916 -32.223  1.00  0.00    -0.353 N 
HETATM    9  H   UNL     1     -10.195   0.074 -31.925  1.00  0.00     0.163 HD
HETATM   10  O   UNL     1      -9.770   2.763 -33.573  1.00  0.00    -0.268 OA
BRANCH   8  11
HETATM   11  C   UNL     1      -8.333   1.063 -31.856  1.00  0.00     0.161 C 
BRANCH  11  12
HETATM   12  C   UNL     1      -7.466   0.070 -32.584  1.00  0.00    -0.038 A 
HETATM   13  C   UNL     1      -6.230  -0.336 -32.054  1.00  0.00     0.048 A 
HETATM   14  C   UNL     1      -5.400  -1.245 -32.735  1.00  0.00     0.102 A 
HETATM   15  C   UNL     1      -5.828  -1.757 -33.974  1.00  0.00     0.102 A 
HETATM   16  C   UNL     1      -7.071  -1.362 -34.489  1.00  0.00     0.040 A 
HETATM   17  C   UNL     1      -7.881  -0.456 -33.809  1.00  0.00     0.012 A 
BRANCH  14  18
HETATM   18  O   UNL     1      -4.204  -1.680 -32.232  1.00  0.00    -0.353 OA
HETATM   19  C   UNL     1      -3.118  -0.765 -32.184  1.00  0.00     0.210 C 
ENDBRANCH  14  18
BRANCH  15  20
HETATM   20  O   UNL     1      -5.189  -2.647 -34.796  1.00  0.00    -0.349 OA
BRANCH  20  21
HETATM   21  C   UNL     1      -5.671  -3.986 -34.864  1.00  0.00     0.171 C 
HETATM   22  C   UNL     1      -4.618  -4.890 -34.246  1.00  0.00     0.034 C 
ENDBRANCH  20  21
ENDBRANCH  15  20
ENDBRANCH  11  12
ENDBRANCH   8  11
ENDBRANCH   1   7
BRANCH   2  23
HETATM   23  N   UNL     1     -12.297   3.876 -32.481  1.00  0.00    -0.321 N 
HETATM   24  C   UNL     1     -12.494   4.412 -31.226  1.00  0.00     0.265 C 
HETATM   25  O   UNL     1     -13.071   3.891 -30.278  1.00  0.00    -0.267 OA
HETATM   26  H   UNL     1     -11.694   4.414 -33.108  1.00  0.00     0.169 HD
BRANCH  24  27
HETATM   27  C   UNL     1     -11.872   5.772 -31.080  1.00  0.00     0.097 C 
HETATM   28  S   UNL     1     -12.921   7.106 -31.466  1.00  0.00    -0.120 SA
HETATM   29  C   UNL     1     -11.725   8.462 -31.386  1.00  0.00     0.106 C 
HETATM   30  C   UNL     1     -10.798   8.232 -30.208  1.00  0.00     0.185 C 
HETATM   31  O   UNL     1      -9.949   7.101 -30.420  1.00  0.00    -0.353 OA
HETATM   32  C   UNL     1     -10.595   5.896 -30.657  1.00  0.00     0.064 C 
HETATM   33  C   UNL     1      -9.674   4.728 -30.421  1.00  0.00     0.078 C 
ENDBRANCH  24  27
ENDBRANCH   2  23
TORSDOF 8
ENDMDL
MODEL 10
REMARK VINA RESULT:      -7.0      3.039      8.004
REMARK  8 active torsions:
REMARK  status: ('A' for Active; 'I' for Inactive)
REMARK    1  A    between atoms: C_2  and  O_3 
REMARK    2  A    between atoms: O_3  and  C_4 
REMARK    3  A    between atoms: C_5  and  O_6 
REMARK    4  A    between atoms: C_9  and  C_10 
REMARK    5  A    between atoms: C_10  and  N_11 
REMARK       I    between atoms: N_11  and  C_12 
REMARK    6  A    between atoms: C_12  and  C_13 
REMARK    7  A    between atoms: C_14  and  N_15 
REMARK       I    between atoms: N_15  and  C_16 
REMARK    8  A    between atoms: C_16  and  C_17 
ROOT
HETATM    1  C   UNL     1      -6.002   1.794 -32.604  1.00  0.00     0.058 A 
HETATM    2  C   UNL     1      -4.907   0.967 -32.249  1.00  0.00     0.050 A 
HETATM    3  C   UNL     1      -3.852   1.527 -31.520  1.00  0.00     0.030 A 
HETATM    4  C   UNL     1      -3.879   2.868 -31.128  1.00  0.00     0.002 A 
HETATM    5  C   UNL     1      -4.967   3.671 -31.454  1.00  0.00     0.001 A 
HETATM    6  C   UNL     1      -6.027   3.137 -32.184  1.00  0.00     0.019 A 
ENDROOT
BRANCH   1   7
HETATM    7  C   UNL     1      -7.158   1.238 -33.376  1.00  0.00     0.254 C 
HETATM    8  N   UNL     1      -8.296   0.916 -32.668  1.00  0.00    -0.353 N 
HETATM    9  H   UNL     1      -8.387   1.172 -31.696  1.00  0.00     0.163 HD
HETATM   10  O   UNL     1      -7.079   1.113 -34.595  1.00  0.00    -0.268 OA
BRANCH   8  11
HETATM   11  C   UNL     1      -9.442   0.308 -33.305  1.00  0.00     0.161 C 
BRANCH  11  12
HETATM   12  C   UNL     1     -10.583   1.284 -33.426  1.00  0.00    -0.038 A 
HETATM   13  C   UNL     1     -11.754   0.944 -34.124  1.00  0.00     0.048 A 
HETATM   14  C   UNL     1     -12.817   1.855 -34.264  1.00  0.00     0.102 A 
HETATM   15  C   UNL     1     -12.697   3.132 -33.687  1.00  0.00     0.102 A 
HETATM   16  C   UNL     1     -11.533   3.459 -32.977  1.00  0.00     0.040 A 
HETATM   17  C   UNL     1     -10.484   2.551 -32.850  1.00  0.00     0.012 A 
BRANCH  14  18
HETATM   18  O   UNL     1     -13.981   1.544 -34.913  1.00  0.00    -0.353 OA
HETATM   19  C   UNL     1     -14.933   0.730 -34.242  1.00  0.00     0.210 C 
ENDBRANCH  14  18
BRANCH  15  20
HETATM   20  O   UNL     1     -13.600   4.162 -33.696  1.00  0.00    -0.349 OA
BRANCH  20  21
HETATM   21  C   UNL     1     -14.120   4.630 -32.455  1.00  0.00     0.171 C 
HETATM   22  C   UNL     1     -15.058   3.563 -31.914  1.00  0.00     0.034 C 
ENDBRANCH  20  21
ENDBRANCH  15  20
ENDBRANCH  11  12
ENDBRANCH   8  11
ENDBRANCH   1   7
BRANCH   2  23
HETATM   23  N   UNL     1      -4.902  -0.391 -32.652  1.00  0.00    -0.321 N 
HETATM   24  C   UNL     1      -3.948  -1.073 -33.377  1.00  0.00     0.265 C 
HETATM   25  O   UNL     1      -2.872  -0.644 -33.779  1.00  0.00    -0.267 OA
HETATM   26  H   UNL     1      -5.688  -0.949 -32.308  1.00  0.00     0.169 HD
BRANCH  24  27
HETATM   27  C   UNL     1      -4.335  -2.503 -33.630  1.00  0.00     0.097 C 
HETATM   28  S   UNL     1      -5.534  -2.732 -34.872  1.00  0.00    -0.120 SA
HETATM   29  C   UNL     1      -5.847  -4.502 -34.664  1.00  0.00     0.106 C 
HETATM   30  C   UNL     1      -4.531  -5.209 -34.407  1.00  0.00     0.185 C 
HETATM   31  O   UNL     1      -3.983  -4.855 -33.135  1.00  0.00    -0.353 OA
HETATM   32  C   UNL     1      -3.752  -3.502 -32.932  1.00  0.00     0.064 C 
HETATM   33  C   UNL     1      -2.790  -3.277 -31.795  1.00  0.00     0.078 C 
ENDBRANCH  24  27
ENDBRANCH   2  23
TORSDOF 8
ENDMDL
