MODEL 1
REMARK VINA RESULT:      -9.1      0.000      0.000
REMARK  9 active torsions:
REMARK  status: ('A' for Active; 'I' for Inactive)
REMARK    1  A    between atoms: S_2  and  C_3 
REMARK    2  A    between atoms: C_3  and  C_4 
REMARK    3  A    between atoms: C_5  and  C_6 
REMARK    4  A    between atoms: C_6  and  O_7 
REMARK    5  A    between atoms: O_7  and  C_8 
REMARK    6  A    between atoms: C_8  and  C_9 
REMARK       I    between atoms: C_9  and  N_10 
REMARK    7  A    between atoms: N_10  and  C_11 
REMARK    8  A    between atoms: C_12  and  C_13 
REMARK       I    between atoms: C_13  and  N_14 
REMARK    9  A    between atoms: N_14  and  C_15 
ROOT
HETATM    1  C   UNL     1      -4.358  -0.555 -32.352  1.00  0.00     0.246 C 
HETATM    2  N   UNL     1      -4.193  -1.213 -33.559  1.00  0.00    -0.324 N 
HETATM    3  O   UNL     1      -5.267  -0.760 -31.555  1.00  0.00    -0.271 OA
HETATM    4  H   UNL     1      -3.596  -0.764 -34.250  1.00  0.00     0.169 HD
ENDROOT
BRANCH   1   5
HETATM    5  C   UNL     1      -3.292   0.519 -32.117  1.00  0.00     0.282 C 
BRANCH   5   6
HETATM    6  O   UNL     1      -3.773   1.804 -32.513  1.00  0.00    -0.307 OA
BRANCH   6   7
HETATM    7  C   UNL     1      -3.980   2.659 -31.465  1.00  0.00     0.318 C 
HETATM    8  O   UNL     1      -4.740   2.427 -30.533  1.00  0.00    -0.257 OA
BRANCH   7   9
HETATM    9  C   UNL     1      -3.141   3.829 -31.578  1.00  0.00     0.159 A 
HETATM   10  C   UNL     1      -3.429   5.099 -32.071  1.00  0.00     0.004 A 
HETATM   11  C   UNL     1      -2.228   5.861 -31.928  1.00  0.00     0.008 A 
HETATM   12  C   UNL     1      -1.295   5.007 -31.356  1.00  0.00     0.087 A 
HETATM   13  C   UNL     1      -1.836   7.181 -32.220  1.00  0.00     0.015 A 
HETATM   14  O   UNL     1      -1.844   3.782 -31.140  1.00  0.00    -0.303 OA
HETATM   15  C   UNL     1       0.014   5.372 -31.049  1.00  0.00     0.038 A 
HETATM   16  C   UNL     1       0.382   6.687 -31.345  1.00  0.00     0.003 A 
HETATM   17  C   UNL     1      -0.525   7.579 -31.921  1.00  0.00     0.001 A 
BRANCH  10  18
HETATM   18  C   UNL     1      -4.733   5.574 -32.612  1.00  0.00     0.116 C 
BRANCH  18  19
HETATM   19  S   UNL     1      -5.108   4.759 -34.193  1.00  0.00    -0.169 SA
HETATM   20  C   UNL     1      -3.657   5.312 -35.121  1.00  0.00     0.090 C 
ENDBRANCH  18  19
ENDBRANCH  10  18
ENDBRANCH   7   9
ENDBRANCH   6   7
ENDBRANCH   5   6
ENDBRANCH   1   5
BRANCH   2  21
HETATM   21  C   UNL     1      -4.844  -2.403 -33.963  1.00  0.00     0.050 A 
HETATM   22  C   UNL     1      -6.122  -2.341 -34.555  1.00  0.00     0.058 A 
HETATM   23  C   UNL     1      -6.723  -3.487 -35.093  1.00  0.00     0.019 A 
HETATM   24  C   UNL     1      -6.068  -4.714 -35.014  1.00  0.00     0.001 A 
HETATM   25  C   UNL     1      -4.821  -4.796 -34.396  1.00  0.00     0.002 A 
HETATM   26  C   UNL     1      -4.213  -3.649 -33.874  1.00  0.00     0.030 A 
BRANCH  22  27
HETATM   27  C   UNL     1      -6.924  -1.090 -34.557  1.00  0.00     0.254 C 
HETATM   28  N   UNL     1      -7.830  -0.997 -33.516  1.00  0.00    -0.352 N 
HETATM   29  H   UNL     1      -7.975  -1.820 -32.940  1.00  0.00     0.163 HD
HETATM   30  O   UNL     1      -6.773  -0.255 -35.438  1.00  0.00    -0.268 OA
BRANCH  28  31
HETATM   31  C   UNL     1      -8.710   0.113 -33.329  1.00  0.00     0.084 A 
HETATM   32  C   UNL     1     -10.098  -0.102 -32.793  1.00  0.00     0.027 A 
HETATM   33  C   UNL     1      -9.060   0.560 -31.936  1.00  0.00     0.027 A 
ENDBRANCH  28  31
ENDBRANCH  22  27
ENDBRANCH   2  21
TORSDOF 9
ENDMDL
MODEL 2
REMARK VINA RESULT:      -8.6      1.940      3.703
REMARK  9 active torsions:
REMARK  status: ('A' for Active; 'I' for Inactive)
REMARK    1  A    between atoms: S_2  and  C_3 
REMARK    2  A    between atoms: C_3  and  C_4 
REMARK    3  A    between atoms: C_5  and  C_6 
REMARK    4  A    between atoms: C_6  and  O_7 
REMARK    5  A    between atoms: O_7  and  C_8 
REMARK    6  A    between atoms: C_8  and  C_9 
REMARK       I    between atoms: C_9  and  N_10 
REMARK    7  A    between atoms: N_10  and  C_11 
REMARK    8  A    between atoms: C_12  and  C_13 
REMARK       I    between atoms: C_13  and  N_14 
REMARK    9  A    between atoms: N_14  and  C_15 
ROOT
HETATM    1  C   UNL     1      -4.272  -0.709 -32.208  1.00  0.00     0.246 C 
HETATM    2  N   UNL     1      -4.120  -1.321 -33.440  1.00  0.00    -0.324 N 
HETATM    3  O   UNL     1      -5.222  -0.876 -31.450  1.00  0.00    -0.271 OA
HETATM    4  H   UNL     1      -3.466  -0.890 -34.089  1.00  0.00     0.169 HD
ENDROOT
BRANCH   1   5
HETATM    5  C   UNL     1      -3.133   0.260 -31.886  1.00  0.00     0.282 C 
BRANCH   5   6
HETATM    6  O   UNL     1      -3.265   1.466 -32.641  1.00  0.00    -0.307 OA
BRANCH   6   7
HETATM    7  C   UNL     1      -3.474   2.576 -31.869  1.00  0.00     0.318 C 
HETATM    8  O   UNL     1      -2.579   3.211 -31.326  1.00  0.00    -0.257 OA
BRANCH   7   9
HETATM    9  C   UNL     1      -4.875   2.926 -31.836  1.00  0.00     0.159 A 
HETATM   10  C   UNL     1      -5.646   3.640 -32.750  1.00  0.00     0.004 A 
HETATM   11  C   UNL     1      -6.970   3.672 -32.214  1.00  0.00     0.008 A 
HETATM   12  C   UNL     1      -6.916   2.973 -31.015  1.00  0.00     0.087 A 
HETATM   13  C   UNL     1      -8.205   4.215 -32.617  1.00  0.00     0.015 A 
HETATM   14  O   UNL     1      -5.656   2.519 -30.787  1.00  0.00    -0.303 OA
HETATM   15  C   UNL     1      -8.012   2.772 -30.178  1.00  0.00     0.038 A 
HETATM   16  C   UNL     1      -9.229   3.318 -30.598  1.00  0.00     0.003 A 
HETATM   17  C   UNL     1      -9.326   4.028 -31.796  1.00  0.00     0.001 A 
BRANCH  10  18
HETATM   18  C   UNL     1      -5.187   4.229 -34.040  1.00  0.00     0.116 C 
BRANCH  18  19
HETATM   19  S   UNL     1      -4.139   5.685 -33.746  1.00  0.00    -0.169 SA
HETATM   20  C   UNL     1      -2.801   5.279 -34.892  1.00  0.00     0.090 C 
ENDBRANCH  18  19
ENDBRANCH  10  18
ENDBRANCH   7   9
ENDBRANCH   6   7
ENDBRANCH   5   6
ENDBRANCH   1   5
BRANCH   2  21
HETATM   21  C   UNL     1      -4.851  -2.432 -33.924  1.00  0.00     0.050 A 
HETATM   22  C   UNL     1      -6.109  -2.238 -34.531  1.00  0.00     0.058 A 
HETATM   23  C   UNL     1      -6.783  -3.303 -35.145  1.00  0.00     0.019 A 
HETATM   24  C   UNL     1      -6.225  -4.579 -35.127  1.00  0.00     0.001 A 
HETATM   25  C   UNL     1      -5.001  -4.791 -34.495  1.00  0.00     0.002 A 
HETATM   26  C   UNL     1      -4.318  -3.726 -33.897  1.00  0.00     0.030 A 
BRANCH  22  27
HETATM   27  C   UNL     1      -6.812  -0.932 -34.474  1.00  0.00     0.254 C 
HETATM   28  N   UNL     1      -7.652  -0.788 -33.384  1.00  0.00    -0.352 N 
HETATM   29  H   UNL     1      -7.828  -1.608 -32.811  1.00  0.00     0.163 HD
HETATM   30  O   UNL     1      -6.646  -0.095 -35.351  1.00  0.00    -0.268 OA
BRANCH  28  31
HETATM   31  C   UNL     1      -8.434   0.381 -33.135  1.00  0.00     0.084 A 
HETATM   32  C   UNL     1      -9.558   0.753 -34.063  1.00  0.00     0.027 A 
HETATM   33  C   UNL     1      -9.864   0.239 -32.687  1.00  0.00     0.027 A 
ENDBRANCH  28  31
ENDBRANCH  22  27
ENDBRANCH   2  21
TORSDOF 9
ENDMDL
MODEL 3
REMARK VINA RESULT:      -8.4      2.932      8.793
REMARK  9 active torsions:
REMARK  status: ('A' for Active; 'I' for Inactive)
REMARK    1  A    between atoms: S_2  and  C_3 
REMARK    2  A    between atoms: C_3  and  C_4 
REMARK    3  A    between atoms: C_5  and  C_6 
REMARK    4  A    between atoms: C_6  and  O_7 
REMARK    5  A    between atoms: O_7  and  C_8 
REMARK    6  A    between atoms: C_8  and  C_9 
REMARK       I    between atoms: C_9  and  N_10 
REMARK    7  A    between atoms: N_10  and  C_11 
REMARK    8  A    between atoms: C_12  and  C_13 
REMARK       I    between atoms: C_13  and  N_14 
REMARK    9  A    between atoms: N_14  and  C_15 
ROOT
HETATM    1  C   UNL     1      -4.629   4.323 -31.123  1.00  0.00     0.246 C 
HETATM    2  N   UNL     1      -3.259   4.327 -31.320  1.00  0.00    -0.324 N 
HETATM    3  O   UNL     1      -5.407   5.162 -31.563  1.00  0.00    -0.271 OA
HETATM    4  H   UNL     1      -2.700   3.770 -30.678  1.00  0.00     0.169 HD
ENDROOT
BRANCH   1   5
HETATM    5  C   UNL     1      -5.094   3.164 -30.238  1.00  0.00     0.282 C 
BRANCH   5   6
HETATM    6  O   UNL     1      -4.583   1.921 -30.723  1.00  0.00    -0.307 OA
BRANCH   6   7
HETATM    7  C   UNL     1      -5.347   0.841 -30.373  1.00  0.00     0.318 C 
HETATM    8  O   UNL     1      -5.853   0.689 -29.268  1.00  0.00    -0.257 OA
BRANCH   7   9
HETATM    9  C   UNL     1      -5.524  -0.052 -31.494  1.00  0.00     0.159 A 
HETATM   10  C   UNL     1      -6.619  -0.237 -32.334  1.00  0.00     0.004 A 
HETATM   11  C   UNL     1      -6.231  -1.238 -33.278  1.00  0.00     0.008 A 
HETATM   12  C   UNL     1      -4.928  -1.591 -32.951  1.00  0.00     0.087 A 
HETATM   13  C   UNL     1      -6.843  -1.879 -34.371  1.00  0.00     0.015 A 
HETATM   14  O   UNL     1      -4.498  -0.875 -31.879  1.00  0.00    -0.303 OA
HETATM   15  C   UNL     1      -4.181  -2.544 -33.639  1.00  0.00     0.038 A 
HETATM   16  C   UNL     1      -4.806  -3.167 -34.723  1.00  0.00     0.003 A 
HETATM   17  C   UNL     1      -6.116  -2.842 -35.085  1.00  0.00     0.001 A 
BRANCH  10  18
HETATM   18  C   UNL     1      -7.921   0.484 -32.278  1.00  0.00     0.116 C 
BRANCH  18  19
HETATM   19  S   UNL     1      -8.204   1.421 -33.811  1.00  0.00    -0.169 SA
HETATM   20  C   UNL     1      -6.925   2.680 -33.586  1.00  0.00     0.090 C 
ENDBRANCH  18  19
ENDBRANCH  10  18
ENDBRANCH   7   9
ENDBRANCH   6   7
ENDBRANCH   5   6
ENDBRANCH   1   5
BRANCH   2  21
HETATM   21  C   UNL     1      -2.548   5.101 -32.269  1.00  0.00     0.050 A 
HETATM   22  C   UNL     1      -1.708   6.147 -31.837  1.00  0.00     0.058 A 
HETATM   23  C   UNL     1      -0.886   6.830 -32.744  1.00  0.00     0.019 A 
HETATM   24  C   UNL     1      -0.921   6.498 -34.097  1.00  0.00     0.001 A 
HETATM   25  C   UNL     1      -1.777   5.492 -34.541  1.00  0.00     0.002 A 
HETATM   26  C   UNL     1      -2.585   4.798 -33.635  1.00  0.00     0.030 A 
BRANCH  22  27
HETATM   27  C   UNL     1      -1.718   6.631 -30.433  1.00  0.00     0.254 C 
HETATM   28  N   UNL     1      -0.462   6.895 -29.917  1.00  0.00    -0.352 N 
HETATM   29  H   UNL     1       0.345   6.611 -30.465  1.00  0.00     0.163 HD
HETATM   30  O   UNL     1      -2.770   6.748 -29.821  1.00  0.00    -0.268 OA
BRANCH  28  31
HETATM   31  C   UNL     1      -0.234   7.360 -28.586  1.00  0.00     0.084 A 
HETATM   32  C   UNL     1       0.833   6.730 -27.735  1.00  0.00     0.027 A 
HETATM   33  C   UNL     1       1.025   8.119 -28.266  1.00  0.00     0.027 A 
ENDBRANCH  28  31
ENDBRANCH  22  27
ENDBRANCH   2  21
TORSDOF 9
ENDMDL
MODEL 4
REMARK VINA RESULT:      -8.0      2.290      4.318
REMARK  9 active torsions:
REMARK  status: ('A' for Active; 'I' for Inactive)
REMARK    1  A    between atoms: S_2  and  C_3 
REMARK    2  A    between atoms: C_3  and  C_4 
REMARK    3  A    between atoms: C_5  and  C_6 
REMARK    4  A    between atoms: C_6  and  O_7 
REMARK    5  A    between atoms: O_7  and  C_8 
REMARK    6  A    between atoms: C_8  and  C_9 
REMARK       I    between atoms: C_9  and  N_10 
REMARK    7  A    between atoms: N_10  and  C_11 
REMARK    8  A    between atoms: C_12  and  C_13 
REMARK       I    between atoms: C_13  and  N_14 
REMARK    9  A    between atoms: N_14  and  C_15 
ROOT
HETATM    1  C   UNL     1      -7.473   1.640 -32.385  1.00  0.00     0.246 C 
HETATM    2  N   UNL     1      -6.258   1.435 -33.016  1.00  0.00    -0.324 N 
HETATM    3  O   UNL     1      -7.846   1.065 -31.368  1.00  0.00    -0.271 OA
HETATM    4  H   UNL     1      -6.187   1.736 -33.985  1.00  0.00     0.169 HD
ENDROOT
BRANCH   1   5
HETATM    5  C   UNL     1      -8.356   2.651 -33.121  1.00  0.00     0.282 C 
BRANCH   5   6
HETATM    6  O   UNL     1      -7.595   3.380 -34.084  1.00  0.00    -0.307 OA
BRANCH   6   7
HETATM    7  C   UNL     1      -7.297   4.657 -33.695  1.00  0.00     0.318 C 
HETATM    8  O   UNL     1      -8.139   5.512 -33.449  1.00  0.00    -0.257 OA
BRANCH   7   9
HETATM    9  C   UNL     1      -5.870   4.836 -33.555  1.00  0.00     0.159 A 
HETATM   10  C   UNL     1      -5.081   4.916 -32.411  1.00  0.00     0.004 A 
HETATM   11  C   UNL     1      -3.737   5.079 -32.867  1.00  0.00     0.008 A 
HETATM   12  C   UNL     1      -3.799   5.084 -34.254  1.00  0.00     0.087 A 
HETATM   13  C   UNL     1      -2.478   5.222 -32.253  1.00  0.00     0.015 A 
HETATM   14  O   UNL     1      -5.083   4.933 -34.672  1.00  0.00    -0.303 OA
HETATM   15  C   UNL     1      -2.689   5.221 -35.085  1.00  0.00     0.038 A 
HETATM   16  C   UNL     1      -1.448   5.359 -34.456  1.00  0.00     0.003 A 
HETATM   17  C   UNL     1      -1.342   5.361 -33.063  1.00  0.00     0.001 A 
BRANCH  10  18
HETATM   18  C   UNL     1      -5.543   4.821 -30.997  1.00  0.00     0.116 C 
BRANCH  18  19
HETATM   19  S   UNL     1      -5.921   6.471 -30.334  1.00  0.00    -0.169 SA
HETATM   20  C   UNL     1      -4.421   6.709 -29.353  1.00  0.00     0.090 C 
ENDBRANCH  18  19
ENDBRANCH  10  18
ENDBRANCH   7   9
ENDBRANCH   6   7
ENDBRANCH   5   6
ENDBRANCH   1   5
BRANCH   2  21
HETATM   21  C   UNL     1      -5.133   0.765 -32.477  1.00  0.00     0.050 A 
HETATM   22  C   UNL     1      -4.668  -0.423 -33.077  1.00  0.00     0.058 A 
HETATM   23  C   UNL     1      -3.474  -1.023 -32.652  1.00  0.00     0.019 A 
HETATM   24  C   UNL     1      -2.753  -0.462 -31.600  1.00  0.00     0.001 A 
HETATM   25  C   UNL     1      -3.224   0.690 -30.974  1.00  0.00     0.002 A 
HETATM   26  C   UNL     1      -4.405   1.301 -31.409  1.00  0.00     0.030 A 
BRANCH  22  27
HETATM   27  C   UNL     1      -5.454  -1.137 -34.115  1.00  0.00     0.254 C 
HETATM   28  N   UNL     1      -5.185  -2.492 -34.197  1.00  0.00    -0.352 N 
HETATM   29  H   UNL     1      -4.398  -2.851 -33.664  1.00  0.00     0.163 HD
HETATM   30  O   UNL     1      -6.244  -0.531 -34.825  1.00  0.00    -0.268 OA
BRANCH  28  31
HETATM   31  C   UNL     1      -5.817  -3.370 -35.129  1.00  0.00     0.084 A 
HETATM   32  C   UNL     1      -5.704  -4.860 -34.964  1.00  0.00     0.027 A 
HETATM   33  C   UNL     1      -7.013  -4.176 -34.701  1.00  0.00     0.027 A 
ENDBRANCH  28  31
ENDBRANCH  22  27
ENDBRANCH   2  21
TORSDOF 9
ENDMDL
MODEL 5
REMARK VINA RESULT:      -7.9      3.246      8.695
REMARK  9 active torsions:
REMARK  status: ('A' for Active; 'I' for Inactive)
REMARK    1  A    between atoms: S_2  and  C_3 
REMARK    2  A    between atoms: C_3  and  C_4 
REMARK    3  A    between atoms: C_5  and  C_6 
REMARK    4  A    between atoms: C_6  and  O_7 
REMARK    5  A    between atoms: O_7  and  C_8 
REMARK    6  A    between atoms: C_8  and  C_9 
REMARK       I    between atoms: C_9  and  N_10 
REMARK    7  A    between atoms: N_10  and  C_11 
REMARK    8  A    between atoms: C_12  and  C_13 
REMARK       I    between atoms: C_13  and  N_14 
REMARK    9  A    between atoms: N_14  and  C_15 
ROOT
HETATM    1  C   UNL     1      -3.090   4.035 -32.171  1.00  0.00     0.246 C 
HETATM    2  N   UNL     1      -2.637   5.327 -32.376  1.00  0.00    -0.324 N 
HETATM    3  O   UNL     1      -2.535   3.197 -31.468  1.00  0.00    -0.271 OA
HETATM    4  H   UNL     1      -3.002   5.818 -33.189  1.00  0.00     0.169 HD
ENDROOT
BRANCH   1   5
HETATM    5  C   UNL     1      -4.362   3.723 -32.963  1.00  0.00     0.282 C 
BRANCH   5   6
HETATM    6  O   UNL     1      -5.117   2.694 -32.322  1.00  0.00    -0.307 OA
BRANCH   6   7
HETATM    7  C   UNL     1      -6.231   2.316 -33.021  1.00  0.00     0.318 C 
HETATM    8  O   UNL     1      -7.151   3.073 -33.304  1.00  0.00    -0.257 OA
BRANCH   7   9
HETATM    9  C   UNL     1      -6.141   0.932 -33.428  1.00  0.00     0.159 A 
HETATM   10  C   UNL     1      -7.090   0.106 -34.023  1.00  0.00     0.004 A 
HETATM   11  C   UNL     1      -6.452  -1.158 -34.215  1.00  0.00     0.008 A 
HETATM   12  C   UNL     1      -5.160  -1.014 -33.728  1.00  0.00     0.087 A 
HETATM   13  C   UNL     1      -6.831  -2.404 -34.749  1.00  0.00     0.015 A 
HETATM   14  O   UNL     1      -4.968   0.246 -33.256  1.00  0.00    -0.303 OA
HETATM   15  C   UNL     1      -4.205  -2.029 -33.733  1.00  0.00     0.038 A 
HETATM   16  C   UNL     1      -4.600  -3.258 -34.270  1.00  0.00     0.003 A 
HETATM   17  C   UNL     1      -5.891  -3.445 -34.770  1.00  0.00     0.001 A 
BRANCH  10  18
HETATM   18  C   UNL     1      -8.482   0.474 -34.408  1.00  0.00     0.116 C 
BRANCH  18  19
HETATM   19  S   UNL     1      -9.614   0.263 -33.001  1.00  0.00    -0.169 SA
HETATM   20  C   UNL     1     -10.501   1.833 -33.143  1.00  0.00     0.090 C 
ENDBRANCH  18  19
ENDBRANCH  10  18
ENDBRANCH   7   9
ENDBRANCH   6   7
ENDBRANCH   5   6
ENDBRANCH   1   5
BRANCH   2  21
HETATM   21  C   UNL     1      -1.649   6.002 -31.620  1.00  0.00     0.050 A 
HETATM   22  C   UNL     1      -2.004   6.663 -30.427  1.00  0.00     0.058 A 
HETATM   23  C   UNL     1      -1.023   7.212 -29.590  1.00  0.00     0.019 A 
HETATM   24  C   UNL     1       0.320   7.138 -29.954  1.00  0.00     0.001 A 
HETATM   25  C   UNL     1       0.680   6.521 -31.151  1.00  0.00     0.002 A 
HETATM   26  C   UNL     1      -0.297   5.957 -31.979  1.00  0.00     0.030 A 
BRANCH  22  27
HETATM   27  C   UNL     1      -3.422   6.885 -30.047  1.00  0.00     0.254 C 
HETATM   28  N   UNL     1      -3.734   6.477 -28.762  1.00  0.00    -0.352 N 
HETATM   29  H   UNL     1      -3.035   5.945 -28.251  1.00  0.00     0.163 HD
HETATM   30  O   UNL     1      -4.213   7.371 -30.844  1.00  0.00    -0.268 OA
BRANCH  28  31
HETATM   31  C   UNL     1      -5.039   6.586 -28.192  1.00  0.00     0.084 A 
HETATM   32  C   UNL     1      -6.060   5.507 -28.422  1.00  0.00     0.027 A 
HETATM   33  C   UNL     1      -5.439   5.671 -27.066  1.00  0.00     0.027 A 
ENDBRANCH  28  31
ENDBRANCH  22  27
ENDBRANCH   2  21
TORSDOF 9
ENDMDL
MODEL 6
REMARK VINA RESULT:      -7.9      2.958      5.390
REMARK  9 active torsions:
REMARK  status: ('A' for Active; 'I' for Inactive)
REMARK    1  A    between atoms: S_2  and  C_3 
REMARK    2  A    between atoms: C_3  and  C_4 
REMARK    3  A    between atoms: C_5  and  C_6 
REMARK    4  A    between atoms: C_6  and  O_7 
REMARK    5  A    between atoms: O_7  and  C_8 
REMARK    6  A    between atoms: C_8  and  C_9 
REMARK       I    between atoms: C_9  and  N_10 
REMARK    7  A    between atoms: N_10  and  C_11 
REMARK    8  A    between atoms: C_12  and  C_13 
REMARK       I    between atoms: C_13  and  N_14 
REMARK    9  A    between atoms: N_14  and  C_15 
ROOT
HETATM    1  C   UNL     1      -9.542   4.517 -33.667  1.00  0.00     0.246 C 
HETATM    2  N   UNL     1      -9.722   3.432 -34.508  1.00  0.00    -0.324 N 
HETATM    3  O   UNL     1     -10.388   4.964 -32.901  1.00  0.00    -0.271 OA
HETATM    4  H   UNL     1      -9.076   3.343 -35.289  1.00  0.00     0.169 HD
ENDROOT
BRANCH   1   5
HETATM    5  C   UNL     1      -8.160   5.157 -33.819  1.00  0.00     0.282 C 
BRANCH   5   6
HETATM    6  O   UNL     1      -7.224   4.560 -32.920  1.00  0.00    -0.307 OA
BRANCH   6   7
HETATM    7  C   UNL     1      -6.277   3.794 -33.543  1.00  0.00     0.318 C 
HETATM    8  O   UNL     1      -6.535   2.830 -34.253  1.00  0.00    -0.257 OA
BRANCH   7   9
HETATM    9  C   UNL     1      -4.951   4.312 -33.299  1.00  0.00     0.159 A 
HETATM   10  C   UNL     1      -3.984   3.913 -32.381  1.00  0.00     0.004 A 
HETATM   11  C   UNL     1      -2.859   4.769 -32.593  1.00  0.00     0.008 A 
HETATM   12  C   UNL     1      -3.216   5.626 -33.625  1.00  0.00     0.087 A 
HETATM   13  C   UNL     1      -1.579   4.906 -32.022  1.00  0.00     0.015 A 
HETATM   14  O   UNL     1      -4.475   5.350 -34.056  1.00  0.00    -0.303 OA
HETATM   15  C   UNL     1      -2.386   6.620 -34.138  1.00  0.00     0.038 A 
HETATM   16  C   UNL     1      -1.119   6.738 -33.559  1.00  0.00     0.003 A 
HETATM   17  C   UNL     1      -0.720   5.898 -32.518  1.00  0.00     0.001 A 
BRANCH  10  18
HETATM   18  C   UNL     1      -4.090   2.800 -31.396  1.00  0.00     0.116 C 
BRANCH  18  19
HETATM   19  S   UNL     1      -3.708   1.207 -32.184  1.00  0.00    -0.169 SA
HETATM   20  C   UNL     1      -4.392   0.117 -30.913  1.00  0.00     0.090 C 
ENDBRANCH  18  19
ENDBRANCH  10  18
ENDBRANCH   7   9
ENDBRANCH   6   7
ENDBRANCH   5   6
ENDBRANCH   1   5
BRANCH   2  21
HETATM   21  C   UNL     1     -10.772   2.484 -34.445  1.00  0.00     0.050 A 
HETATM   22  C   UNL     1     -10.615   1.311 -33.679  1.00  0.00     0.058 A 
HETATM   23  C   UNL     1     -11.689   0.432 -33.484  1.00  0.00     0.019 A 
HETATM   24  C   UNL     1     -12.919   0.696 -34.081  1.00  0.00     0.001 A 
HETATM   25  C   UNL     1     -13.075   1.832 -34.873  1.00  0.00     0.002 A 
HETATM   26  C   UNL     1     -12.009   2.721 -35.054  1.00  0.00     0.030 A 
BRANCH  22  27
HETATM   27  C   UNL     1      -9.299   0.909 -33.121  1.00  0.00     0.254 C 
HETATM   28  N   UNL     1      -8.648  -0.066 -33.855  1.00  0.00    -0.352 N 
HETATM   29  H   UNL     1      -9.164  -0.518 -34.604  1.00  0.00     0.163 HD
HETATM   30  O   UNL     1      -8.879   1.412 -32.088  1.00  0.00    -0.268 OA
BRANCH  28  31
HETATM   31  C   UNL     1      -7.376  -0.609 -33.498  1.00  0.00     0.084 A 
HETATM   32  C   UNL     1      -6.943  -1.944 -34.036  1.00  0.00     0.027 A 
HETATM   33  C   UNL     1      -6.284  -0.690 -34.530  1.00  0.00     0.027 A 
ENDBRANCH  28  31
ENDBRANCH  22  27
ENDBRANCH   2  21
TORSDOF 9
ENDMDL
MODEL 7
REMARK VINA RESULT:      -7.8      2.742      5.402
REMARK  9 active torsions:
REMARK  status: ('A' for Active; 'I' for Inactive)
REMARK    1  A    between atoms: S_2  and  C_3 
REMARK    2  A    between atoms: C_3  and  C_4 
REMARK    3  A    between atoms: C_5  and  C_6 
REMARK    4  A    between atoms: C_6  and  O_7 
REMARK    5  A    between atoms: O_7  and  C_8 
REMARK    6  A    between atoms: C_8  and  C_9 
REMARK       I    between atoms: C_9  and  N_10 
REMARK    7  A    between atoms: N_10  and  C_11 
REMARK    8  A    between atoms: C_12  and  C_13 
REMARK       I    between atoms: C_13  and  N_14 
REMARK    9  A    between atoms: N_14  and  C_15 
ROOT
HETATM    1  C   UNL     1      -4.947   4.780 -33.963  1.00  0.00     0.246 C 
HETATM    2  N   UNL     1      -4.757   4.075 -32.787  1.00  0.00    -0.324 N 
HETATM    3  O   UNL     1      -6.037   5.102 -34.424  1.00  0.00    -0.271 OA
HETATM    4  H   UNL     1      -3.856   3.619 -32.665  1.00  0.00     0.169 HD
ENDROOT
BRANCH   1   5
HETATM    5  C   UNL     1      -3.633   5.090 -34.683  1.00  0.00     0.282 C 
BRANCH   5   6
HETATM    6  O   UNL     1      -2.517   4.625 -33.923  1.00  0.00    -0.307 OA
BRANCH   6   7
HETATM    7  C   UNL     1      -1.433   5.458 -33.975  1.00  0.00     0.318 C 
HETATM    8  O   UNL     1      -0.960   5.902 -35.014  1.00  0.00    -0.257 OA
BRANCH   7   9
HETATM    9  C   UNL     1      -0.970   5.787 -32.646  1.00  0.00     0.159 A 
HETATM   10  C   UNL     1      -1.124   6.954 -31.903  1.00  0.00     0.004 A 
HETATM   11  C   UNL     1      -0.474   6.715 -30.652  1.00  0.00     0.008 A 
HETATM   12  C   UNL     1       0.026   5.422 -30.718  1.00  0.00     0.087 A 
HETATM   13  C   UNL     1      -0.260   7.457 -29.474  1.00  0.00     0.015 A 
HETATM   14  O   UNL     1      -0.275   4.858 -31.918  1.00  0.00    -0.303 OA
HETATM   15  C   UNL     1       0.731   4.803 -29.688  1.00  0.00     0.038 A 
HETATM   16  C   UNL     1       0.931   5.555 -28.527  1.00  0.00     0.003 A 
HETATM   17  C   UNL     1       0.445   6.860 -28.419  1.00  0.00     0.001 A 
BRANCH  10  18
HETATM   18  C   UNL     1      -1.844   8.190 -32.317  1.00  0.00     0.116 C 
BRANCH  18  19
HETATM   19  S   UNL     1      -3.349   8.420 -31.323  1.00  0.00    -0.169 SA
HETATM   20  C   UNL     1      -2.880   9.957 -30.492  1.00  0.00     0.090 C 
ENDBRANCH  18  19
ENDBRANCH  10  18
ENDBRANCH   7   9
ENDBRANCH   6   7
ENDBRANCH   5   6
ENDBRANCH   1   5
BRANCH   2  21
HETATM   21  C   UNL     1      -5.722   3.849 -31.776  1.00  0.00     0.050 A 
HETATM   22  C   UNL     1      -6.210   2.547 -31.547  1.00  0.00     0.058 A 
HETATM   23  C   UNL     1      -7.054   2.276 -30.461  1.00  0.00     0.019 A 
HETATM   24  C   UNL     1      -7.447   3.309 -29.614  1.00  0.00     0.001 A 
HETATM   25  C   UNL     1      -7.002   4.608 -29.854  1.00  0.00     0.002 A 
HETATM   26  C   UNL     1      -6.146   4.877 -30.927  1.00  0.00     0.030 A 
BRANCH  22  27
HETATM   27  C   UNL     1      -5.930   1.429 -32.484  1.00  0.00     0.254 C 
HETATM   28  N   UNL     1      -5.361   0.318 -31.887  1.00  0.00    -0.352 N 
HETATM   29  H   UNL     1      -5.057   0.404 -30.921  1.00  0.00     0.163 HD
HETATM   30  O   UNL     1      -6.179   1.538 -33.677  1.00  0.00    -0.268 OA
BRANCH  28  31
HETATM   31  C   UNL     1      -5.000  -0.866 -32.598  1.00  0.00     0.084 A 
HETATM   32  C   UNL     1      -3.720  -0.916 -33.386  1.00  0.00     0.027 A 
HETATM   33  C   UNL     1      -3.847  -1.703 -32.115  1.00  0.00     0.027 A 
ENDBRANCH  28  31
ENDBRANCH  22  27
ENDBRANCH   2  21
TORSDOF 9
ENDMDL
MODEL 8
REMARK VINA RESULT:      -7.8      3.179      8.864
REMARK  9 active torsions:
REMARK  status: ('A' for Active; 'I' for Inactive)
REMARK    1  A    between atoms: S_2  and  C_3 
REMARK    2  A    between atoms: C_3  and  C_4 
REMARK    3  A    between atoms: C_5  and  C_6 
REMARK    4  A    between atoms: C_6  and  O_7 
REMARK    5  A    between atoms: O_7  and  C_8 
REMARK    6  A    between atoms: C_8  and  C_9 
REMARK       I    between atoms: C_9  and  N_10 
REMARK    7  A    between atoms: N_10  and  C_11 
REMARK    8  A    between atoms: C_12  and  C_13 
REMARK       I    between atoms: C_13  and  N_14 
REMARK    9  A    between atoms: N_14  and  C_15 
ROOT
HETATM    1  C   UNL     1      -6.556   3.178 -30.277  1.00  0.00     0.246 C 
HETATM    2  N   UNL     1      -5.576   3.763 -29.493  1.00  0.00    -0.324 N 
HETATM    3  O   UNL     1      -7.632   3.693 -30.562  1.00  0.00    -0.271 OA
HETATM    4  H   UNL     1      -4.879   3.141 -29.090  1.00  0.00     0.169 HD
ENDROOT
BRANCH   1   5
HETATM    5  C   UNL     1      -6.182   1.766 -30.733  1.00  0.00     0.282 C 
BRANCH   5   6
HETATM    6  O   UNL     1      -5.159   1.809 -31.728  1.00  0.00    -0.307 OA
BRANCH   6   7
HETATM    7  C   UNL     1      -5.635   1.728 -33.008  1.00  0.00     0.318 C 
HETATM    8  O   UNL     1      -5.886   2.701 -33.708  1.00  0.00    -0.257 OA
BRANCH   7   9
HETATM    9  C   UNL     1      -5.740   0.351 -33.434  1.00  0.00     0.159 A 
HETATM   10  C   UNL     1      -6.816  -0.341 -33.983  1.00  0.00     0.004 A 
HETATM   11  C   UNL     1      -6.350  -1.671 -34.224  1.00  0.00     0.008 A 
HETATM   12  C   UNL     1      -5.025  -1.695 -33.811  1.00  0.00     0.087 A 
HETATM   13  C   UNL     1      -6.909  -2.851 -34.749  1.00  0.00     0.015 A 
HETATM   14  O   UNL     1      -4.654  -0.476 -33.337  1.00  0.00    -0.303 OA
HETATM   15  C   UNL     1      -4.205  -2.819 -33.882  1.00  0.00     0.038 A 
HETATM   16  C   UNL     1      -4.779  -3.980 -34.409  1.00  0.00     0.003 A 
HETATM   17  C   UNL     1      -6.108  -3.999 -34.835  1.00  0.00     0.001 A 
BRANCH  10  18
HETATM   18  C   UNL     1      -8.171   0.202 -34.283  1.00  0.00     0.116 C 
BRANCH  18  19
HETATM   19  S   UNL     1      -9.208   0.201 -32.790  1.00  0.00    -0.169 SA
HETATM   20  C   UNL     1     -10.432   1.422 -33.322  1.00  0.00     0.090 C 
ENDBRANCH  18  19
ENDBRANCH  10  18
ENDBRANCH   7   9
ENDBRANCH   6   7
ENDBRANCH   5   6
ENDBRANCH   1   5
BRANCH   2  21
HETATM   21  C   UNL     1      -5.499   5.126 -29.121  1.00  0.00     0.050 A 
HETATM   22  C   UNL     1      -4.667   6.006 -29.843  1.00  0.00     0.058 A 
HETATM   23  C   UNL     1      -4.684   7.384 -29.586  1.00  0.00     0.019 A 
HETATM   24  C   UNL     1      -5.506   7.892 -28.583  1.00  0.00     0.001 A 
HETATM   25  C   UNL     1      -6.304   7.027 -27.837  1.00  0.00     0.002 A 
HETATM   26  C   UNL     1      -6.301   5.653 -28.103  1.00  0.00     0.030 A 
BRANCH  22  27
HETATM   27  C   UNL     1      -3.679   5.513 -30.836  1.00  0.00     0.254 C 
HETATM   28  N   UNL     1      -2.360   5.708 -30.466  1.00  0.00    -0.352 N 
HETATM   29  H   UNL     1      -2.177   6.281 -29.648  1.00  0.00     0.163 HD
HETATM   30  O   UNL     1      -4.049   5.005 -31.884  1.00  0.00    -0.268 OA
BRANCH  28  31
HETATM   31  C   UNL     1      -1.246   5.321 -31.272  1.00  0.00     0.084 A 
HETATM   32  C   UNL     1      -0.223   6.340 -31.692  1.00  0.00     0.027 A 
HETATM   33  C   UNL     1       0.134   5.297 -30.675  1.00  0.00     0.027 A 
ENDBRANCH  28  31
ENDBRANCH  22  27
ENDBRANCH   2  21
TORSDOF 9
ENDMDL
MODEL 9
REMARK VINA RESULT:      -7.7      1.950      4.053
REMARK  9 active torsions:
REMARK  status: ('A' for Active; 'I' for Inactive)
REMARK    1  A    between atoms: S_2  and  C_3 
REMARK    2  A    between atoms: C_3  and  C_4 
REMARK    3  A    between atoms: C_5  and  C_6 
REMARK    4  A    between atoms: C_6  and  O_7 
REMARK    5  A    between atoms: O_7  and  C_8 
REMARK    6  A    between atoms: C_8  and  C_9 
REMARK       I    between atoms: C_9  and  N_10 
REMARK    7  A    between atoms: N_10  and  C_11 
REMARK    8  A    between atoms: C_12  and  C_13 
REMARK       I    between atoms: C_13  and  N_14 
REMARK    9  A    between atoms: N_14  and  C_15 
ROOT
HETATM    1  C   UNL     1      -5.286   3.012 -32.891  1.00  0.00     0.246 C 
HETATM    2  N   UNL     1      -5.884   1.909 -32.306  1.00  0.00    -0.324 N 
HETATM    3  O   UNL     1      -5.687   3.578 -33.902  1.00  0.00    -0.271 OA
HETATM    4  H   UNL     1      -5.312   1.361 -31.667  1.00  0.00     0.169 HD
ENDROOT
BRANCH   1   5
HETATM    5  C   UNL     1      -4.012   3.447 -32.163  1.00  0.00     0.282 C 
BRANCH   5   6
HETATM    6  O   UNL     1      -2.862   3.227 -32.981  1.00  0.00    -0.307 OA
BRANCH   6   7
HETATM    7  C   UNL     1      -2.243   4.381 -33.379  1.00  0.00     0.318 C 
HETATM    8  O   UNL     1      -2.214   4.778 -34.537  1.00  0.00    -0.257 OA
BRANCH   7   9
HETATM    9  C   UNL     1      -1.692   5.089 -32.247  1.00  0.00     0.159 A 
HETATM   10  C   UNL     1      -1.984   6.356 -31.749  1.00  0.00     0.004 A 
HETATM   11  C   UNL     1      -1.146   6.534 -30.604  1.00  0.00     0.008 A 
HETATM   12  C   UNL     1      -0.408   5.366 -30.481  1.00  0.00     0.087 A 
HETATM   13  C   UNL     1      -0.939   7.559 -29.661  1.00  0.00     0.015 A 
HETATM   14  O   UNL     1      -0.737   4.491 -31.468  1.00  0.00    -0.303 OA
HETATM   15  C   UNL     1       0.532   5.137 -29.479  1.00  0.00     0.038 A 
HETATM   16  C   UNL     1       0.722   6.166 -28.552  1.00  0.00     0.003 A 
HETATM   17  C   UNL     1      -0.000   7.358 -28.639  1.00  0.00     0.001 A 
BRANCH  10  18
HETATM   18  C   UNL     1      -2.986   7.320 -32.285  1.00  0.00     0.116 C 
BRANCH  18  19
HETATM   19  S   UNL     1      -4.454   7.381 -31.215  1.00  0.00    -0.169 SA
HETATM   20  C   UNL     1      -5.654   6.693 -32.379  1.00  0.00     0.090 C 
ENDBRANCH  18  19
ENDBRANCH  10  18
ENDBRANCH   7   9
ENDBRANCH   6   7
ENDBRANCH   5   6
ENDBRANCH   1   5
BRANCH   2  21
HETATM   21  C   UNL     1      -7.182   1.414 -32.576  1.00  0.00     0.050 A 
HETATM   22  C   UNL     1      -7.345   0.123 -33.120  1.00  0.00     0.058 A 
HETATM   23  C   UNL     1      -8.619  -0.442 -33.260  1.00  0.00     0.019 A 
HETATM   24  C   UNL     1      -9.746   0.289 -32.892  1.00  0.00     0.001 A 
HETATM   25  C   UNL     1      -9.601   1.580 -32.390  1.00  0.00     0.002 A 
HETATM   26  C   UNL     1      -8.328   2.140 -32.232  1.00  0.00     0.030 A 
BRANCH  22  27
HETATM   27  C   UNL     1      -6.195  -0.655 -33.646  1.00  0.00     0.254 C 
HETATM   28  N   UNL     1      -6.555  -1.731 -34.437  1.00  0.00    -0.352 N 
HETATM   29  H   UNL     1      -7.538  -1.983 -34.475  1.00  0.00     0.163 HD
HETATM   30  O   UNL     1      -5.047  -0.343 -33.360  1.00  0.00    -0.268 OA
BRANCH  28  31
HETATM   31  C   UNL     1      -5.614  -2.621 -35.039  1.00  0.00     0.084 A 
HETATM   32  C   UNL     1      -4.935  -3.678 -34.214  1.00  0.00     0.027 A 
HETATM   33  C   UNL     1      -5.972  -4.071 -35.224  1.00  0.00     0.027 A 
ENDBRANCH  28  31
ENDBRANCH  22  27
ENDBRANCH   2  21
TORSDOF 9
ENDMDL
MODEL 10
REMARK VINA RESULT:      -7.7      2.322      3.272
REMARK  9 active torsions:
REMARK  status: ('A' for Active; 'I' for Inactive)
REMARK    1  A    between atoms: S_2  and  C_3 
REMARK    2  A    between atoms: C_3  and  C_4 
REMARK    3  A    between atoms: C_5  and  C_6 
REMARK    4  A    between atoms: C_6  and  O_7 
REMARK    5  A    between atoms: O_7  and  C_8 
REMARK    6  A    between atoms: C_8  and  C_9 
REMARK       I    between atoms: C_9  and  N_10 
REMARK    7  A    between atoms: N_10  and  C_11 
REMARK    8  A    between atoms: C_12  and  C_13 
REMARK       I    between atoms: C_13  and  N_14 
REMARK    9  A    between atoms: N_14  and  C_15 
ROOT
HETATM    1  C   UNL     1      -6.494   3.379 -33.130  1.00  0.00     0.246 C 
HETATM    2  N   UNL     1      -6.465   2.214 -32.382  1.00  0.00    -0.324 N 
HETATM    3  O   UNL     1      -6.220   3.458 -34.323  1.00  0.00    -0.271 OA
HETATM    4  H   UNL     1      -6.419   2.318 -31.371  1.00  0.00     0.169 HD
ENDROOT
BRANCH   1   5
HETATM    5  C   UNL     1      -6.865   4.607 -32.295  1.00  0.00     0.282 C 
BRANCH   5   6
HETATM    6  O   UNL     1      -5.701   5.368 -31.970  1.00  0.00    -0.307 OA
BRANCH   6   7
HETATM    7  C   UNL     1      -5.061   4.935 -30.841  1.00  0.00     0.318 C 
HETATM    8  O   UNL     1      -5.576   4.214 -29.995  1.00  0.00    -0.257 OA
BRANCH   7   9
HETATM    9  C   UNL     1      -3.689   5.389 -30.819  1.00  0.00     0.159 A 
HETATM   10  C   UNL     1      -2.627   5.085 -31.666  1.00  0.00     0.004 A 
HETATM   11  C   UNL     1      -1.507   5.828 -31.180  1.00  0.00     0.008 A 
HETATM   12  C   UNL     1      -1.964   6.535 -30.076  1.00  0.00     0.087 A 
HETATM   13  C   UNL     1      -0.160   5.978 -31.559  1.00  0.00     0.015 A 
HETATM   14  O   UNL     1      -3.280   6.275 -29.858  1.00  0.00    -0.303 OA
HETATM   15  C   UNL     1      -1.172   7.389 -29.312  1.00  0.00     0.038 A 
HETATM   16  C   UNL     1       0.162   7.525 -29.707  1.00  0.00     0.003 A 
HETATM   17  C   UNL     1       0.663   6.832 -30.811  1.00  0.00     0.001 A 
BRANCH  10  18
HETATM   18  C   UNL     1      -2.659   4.188 -32.855  1.00  0.00     0.116 C 
BRANCH  18  19
HETATM   19  S   UNL     1      -3.001   5.138 -34.367  1.00  0.00    -0.169 SA
HETATM   20  C   UNL     1      -1.298   5.342 -34.938  1.00  0.00     0.090 C 
ENDBRANCH  18  19
ENDBRANCH  10  18
ENDBRANCH   7   9
ENDBRANCH   6   7
ENDBRANCH   5   6
ENDBRANCH   1   5
BRANCH   2  21
HETATM   21  C   UNL     1      -6.402   0.893 -32.886  1.00  0.00     0.050 A 
HETATM   22  C   UNL     1      -7.588   0.208 -33.220  1.00  0.00     0.058 A 
HETATM   23  C   UNL     1      -7.544  -1.041 -33.854  1.00  0.00     0.019 A 
HETATM   24  C   UNL     1      -6.314  -1.635 -34.128  1.00  0.00     0.001 A 
HETATM   25  C   UNL     1      -5.135  -0.986 -33.768  1.00  0.00     0.002 A 
HETATM   26  C   UNL     1      -5.177   0.269 -33.151  1.00  0.00     0.030 A 
BRANCH  22  27
HETATM   27  C   UNL     1      -8.926   0.730 -32.841  1.00  0.00     0.254 C 
HETATM   28  N   UNL     1      -9.790   0.901 -33.908  1.00  0.00    -0.352 N 
HETATM   29  H   UNL     1      -9.410   0.800 -34.845  1.00  0.00     0.163 HD
HETATM   30  O   UNL     1      -9.186   0.991 -31.674  1.00  0.00    -0.268 OA
BRANCH  28  31
HETATM   31  C   UNL     1     -11.121   1.400 -33.777  1.00  0.00     0.084 A 
HETATM   32  C   UNL     1     -11.488   2.741 -34.347  1.00  0.00     0.027 A 
HETATM   33  C   UNL     1     -12.007   1.489 -34.990  1.00  0.00     0.027 A 
ENDBRANCH  28  31
ENDBRANCH  22  27
ENDBRANCH   2  21
TORSDOF 9
ENDMDL
