MODEL 1
REMARK VINA RESULT:      -9.1      0.000      0.000
REMARK  3 active torsions:
REMARK  status: ('A' for Active; 'I' for Inactive)
REMARK    1  A    between atoms: S_2  and  C_3 
REMARK    2  A    between atoms: C_6  and  C_7 
REMARK    3  A    between atoms: C_22  and  N_23 
ROOT
HETATM    1  C   UNL     1      -5.514   1.320 -33.563  1.00  0.00     0.078 C 
HETATM    2  C   UNL     1      -5.197   2.587 -32.771  1.00  0.00     0.127 C 
HETATM    3  C   UNL     1      -3.767   2.566 -32.296  1.00  0.00     0.060 C 
HETATM    4  C   UNL     1      -3.200   3.901 -32.424  1.00  0.00     0.003 A 
HETATM    5  C   UNL     1      -4.058   4.678 -33.194  1.00  0.00     0.023 A 
HETATM    6  C   UNL     1      -3.722   5.960 -33.582  1.00  0.00     0.016 A 
HETATM    7  C   UNL     1      -2.482   6.455 -33.167  1.00  0.00     0.001 A 
HETATM    8  C   UNL     1      -1.611   5.665 -32.389  1.00  0.00     0.001 A 
HETATM    9  C   UNL     1      -1.965   4.365 -32.016  1.00  0.00     0.014 A 
HETATM   10  C   UNL     1      -5.260   3.903 -33.528  1.00  0.00     0.171 C 
HETATM   11  O   UNL     1      -6.136   4.303 -34.270  1.00  0.00    -0.291 OA
HETATM   12  N   UNL     1      -3.097   1.530 -31.927  1.00  0.00    -0.231 NA
HETATM   13  C   UNL     1      -3.663   0.305 -32.187  1.00  0.00     0.165 C 
HETATM   14  C   UNL     1      -4.713   0.155 -33.018  1.00  0.00     0.067 C 
HETATM   15  N   UNL     1      -2.952  -0.733 -31.647  1.00  0.00    -0.200 NA
HETATM   16  C   UNL     1      -3.278  -1.935 -31.983  1.00  0.00     0.181 C 
HETATM   17  N   UNL     1      -4.283  -2.204 -32.850  1.00  0.00    -0.298 N 
HETATM   18  C   UNL     1      -4.992  -1.222 -33.472  1.00  0.00     0.258 C 
HETATM   19  O   UNL     1      -5.766  -1.480 -34.386  1.00  0.00    -0.267 OA
HETATM   20  H   UNL     1      -4.489  -3.149 -33.125  1.00  0.00     0.171 HD
ENDROOT
BRANCH   1  21
HETATM   21  C   UNL     1      -7.032   1.112 -33.527  1.00  0.00    -0.048 A 
HETATM   22  C   UNL     1      -7.662   0.827 -32.307  1.00  0.00     0.009 A 
HETATM   23  C   UNL     1      -9.046   0.618 -32.238  1.00  0.00     0.019 A 
HETATM   24  C   UNL     1      -9.838   0.691 -33.385  1.00  0.00    -0.000 A 
HETATM   25  C   UNL     1      -9.209   0.963 -34.607  1.00  0.00     0.019 A 
HETATM   26  C   UNL     1      -7.825   1.159 -34.683  1.00  0.00     0.009 A 
BRANCH  24  27
HETATM   27  S   UNL     1     -11.613   0.472 -33.420  1.00  0.00    -0.134 SA
HETATM   28  C   UNL     1     -12.139   1.529 -34.796  1.00  0.00     0.095 C 
ENDBRANCH  24  27
ENDBRANCH   1  21
BRANCH  16  29
HETATM   29  N   UNL     1      -2.596  -2.995 -31.483  1.00  0.00    -0.272 NA
HETATM   30  H   UNL     1      -2.845  -3.164 -30.513  1.00  0.00     0.127 HD
HETATM   31  H   UNL     1      -1.595  -2.989 -31.626  1.00  0.00     0.127 HD
ENDBRANCH  16  29
TORSDOF 3
ENDMDL
MODEL 2
REMARK VINA RESULT:      -9.0      2.558      5.446
REMARK  3 active torsions:
REMARK  status: ('A' for Active; 'I' for Inactive)
REMARK    1  A    between atoms: S_2  and  C_3 
REMARK    2  A    between atoms: C_6  and  C_7 
REMARK    3  A    between atoms: C_22  and  N_23 
ROOT
HETATM    1  C   UNL     1      -6.860   1.401 -32.294  1.00  0.00     0.078 C 
HETATM    2  C   UNL     1      -6.706   0.528 -33.538  1.00  0.00     0.127 C 
HETATM    3  C   UNL     1      -5.333  -0.092 -33.579  1.00  0.00     0.060 C 
HETATM    4  C   UNL     1      -5.441  -1.464 -34.052  1.00  0.00     0.003 A 
HETATM    5  C   UNL     1      -6.780  -1.836 -34.039  1.00  0.00     0.023 A 
HETATM    6  C   UNL     1      -7.177  -3.128 -34.326  1.00  0.00     0.016 A 
HETATM    7  C   UNL     1      -6.176  -4.054 -34.637  1.00  0.00     0.001 A 
HETATM    8  C   UNL     1      -4.818  -3.677 -34.646  1.00  0.00     0.001 A 
HETATM    9  C   UNL     1      -4.436  -2.367 -34.342  1.00  0.00     0.014 A 
HETATM   10  C   UNL     1      -7.607  -0.691 -33.636  1.00  0.00     0.171 C 
HETATM   11  O   UNL     1      -8.806  -0.758 -33.449  1.00  0.00    -0.291 OA
HETATM   12  N   UNL     1      -4.236   0.447 -33.172  1.00  0.00    -0.231 NA
HETATM   13  C   UNL     1      -4.352   1.605 -32.441  1.00  0.00     0.165 C 
HETATM   14  C   UNL     1      -5.526   2.024 -31.931  1.00  0.00     0.067 C 
HETATM   15  N   UNL     1      -3.141   2.180 -32.163  1.00  0.00    -0.200 NA
HETATM   16  C   UNL     1      -3.109   3.161 -31.327  1.00  0.00     0.181 C 
HETATM   17  N   UNL     1      -4.222   3.633 -30.713  1.00  0.00    -0.298 N 
HETATM   18  C   UNL     1      -5.448   3.072 -30.895  1.00  0.00     0.258 C 
HETATM   19  O   UNL     1      -6.402   3.392 -30.194  1.00  0.00    -0.267 OA
HETATM   20  H   UNL     1      -4.161   4.374 -30.034  1.00  0.00     0.171 HD
ENDROOT
BRANCH   1  21
HETATM   21  C   UNL     1      -7.975   2.416 -32.567  1.00  0.00    -0.048 A 
HETATM   22  C   UNL     1      -9.154   2.367 -31.810  1.00  0.00     0.009 A 
HETATM   23  C   UNL     1     -10.201   3.270 -32.039  1.00  0.00     0.019 A 
HETATM   24  C   UNL     1     -10.096   4.248 -33.029  1.00  0.00    -0.000 A 
HETATM   25  C   UNL     1      -8.924   4.291 -33.796  1.00  0.00     0.019 A 
HETATM   26  C   UNL     1      -7.882   3.382 -33.579  1.00  0.00     0.009 A 
BRANCH  24  27
HETATM   27  S   UNL     1     -11.348   5.472 -33.397  1.00  0.00    -0.134 SA
HETATM   28  C   UNL     1     -12.664   4.503 -34.183  1.00  0.00     0.095 C 
ENDBRANCH  24  27
ENDBRANCH   1  21
BRANCH  16  29
HETATM   29  N   UNL     1      -1.933   3.756 -31.010  1.00  0.00    -0.272 NA
HETATM   30  H   UNL     1      -2.003   4.256 -30.129  1.00  0.00     0.127 HD
HETATM   31  H   UNL     1      -1.508   4.317 -31.736  1.00  0.00     0.127 HD
ENDBRANCH  16  29
TORSDOF 3
ENDMDL
MODEL 3
REMARK VINA RESULT:      -8.8      3.972      6.994
REMARK  3 active torsions:
REMARK  status: ('A' for Active; 'I' for Inactive)
REMARK    1  A    between atoms: S_2  and  C_3 
REMARK    2  A    between atoms: C_6  and  C_7 
REMARK    3  A    between atoms: C_22  and  N_23 
ROOT
HETATM    1  C   UNL     1      -6.824   2.092 -33.054  1.00  0.00     0.078 C 
HETATM    2  C   UNL     1      -6.572   0.636 -32.668  1.00  0.00     0.127 C 
HETATM    3  C   UNL     1      -7.341  -0.289 -33.575  1.00  0.00     0.060 C 
HETATM    4  C   UNL     1      -6.515  -1.446 -33.890  1.00  0.00     0.003 A 
HETATM    5  C   UNL     1      -5.210  -1.184 -33.489  1.00  0.00     0.023 A 
HETATM    6  C   UNL     1      -4.177  -2.058 -33.769  1.00  0.00     0.016 A 
HETATM    7  C   UNL     1      -4.494  -3.226 -34.471  1.00  0.00     0.001 A 
HETATM    8  C   UNL     1      -5.817  -3.488 -34.880  1.00  0.00     0.001 A 
HETATM    9  C   UNL     1      -6.846  -2.586 -34.597  1.00  0.00     0.014 A 
HETATM   10  C   UNL     1      -5.151   0.121 -32.820  1.00  0.00     0.171 C 
HETATM   11  O   UNL     1      -4.117   0.644 -32.452  1.00  0.00    -0.291 OA
HETATM   12  N   UNL     1      -8.503  -0.071 -34.087  1.00  0.00    -0.231 NA
HETATM   13  C   UNL     1      -8.998   1.205 -33.969  1.00  0.00     0.165 C 
HETATM   14  C   UNL     1      -8.231   2.247 -33.597  1.00  0.00     0.067 C 
HETATM   15  N   UNL     1     -10.286   1.317 -34.419  1.00  0.00    -0.200 NA
HETATM   16  C   UNL     1     -10.791   2.498 -34.536  1.00  0.00     0.181 C 
HETATM   17  N   UNL     1     -10.094   3.622 -34.240  1.00  0.00    -0.298 N 
HETATM   18  C   UNL     1      -8.792   3.590 -33.846  1.00  0.00     0.258 C 
HETATM   19  O   UNL     1      -8.129   4.618 -33.763  1.00  0.00    -0.267 OA
HETATM   20  H   UNL     1     -10.500   4.532 -34.380  1.00  0.00     0.171 HD
ENDROOT
BRANCH   1  21
HETATM   21  C   UNL     1      -6.522   2.962 -31.830  1.00  0.00    -0.048 A 
HETATM   22  C   UNL     1      -7.369   2.903 -30.714  1.00  0.00     0.009 A 
HETATM   23  C   UNL     1      -7.131   3.693 -29.581  1.00  0.00     0.019 A 
HETATM   24  C   UNL     1      -6.040   4.562 -29.532  1.00  0.00    -0.000 A 
HETATM   25  C   UNL     1      -5.199   4.632 -30.650  1.00  0.00     0.019 A 
HETATM   26  C   UNL     1      -5.440   3.854 -31.789  1.00  0.00     0.009 A 
BRANCH  24  27
HETATM   27  S   UNL     1      -5.616   5.597 -28.136  1.00  0.00    -0.134 SA
HETATM   28  C   UNL     1      -4.478   6.816 -28.848  1.00  0.00     0.095 C 
ENDBRANCH  24  27
ENDBRANCH   1  21
BRANCH  16  29
HETATM   29  N   UNL     1     -12.058   2.661 -34.989  1.00  0.00    -0.272 NA
HETATM   30  H   UNL     1     -12.641   3.108 -34.287  1.00  0.00     0.127 HD
HETATM   31  H   UNL     1     -12.498   1.842 -35.387  1.00  0.00     0.127 HD
ENDBRANCH  16  29
TORSDOF 3
ENDMDL
MODEL 4
REMARK VINA RESULT:      -8.4      1.707      1.988
REMARK  3 active torsions:
REMARK  status: ('A' for Active; 'I' for Inactive)
REMARK    1  A    between atoms: S_2  and  C_3 
REMARK    2  A    between atoms: C_6  and  C_7 
REMARK    3  A    between atoms: C_22  and  N_23 
ROOT
HETATM    1  C   UNL     1      -5.119   3.102 -32.903  1.00  0.00     0.078 C 
HETATM    2  C   UNL     1      -4.507   4.191 -32.025  1.00  0.00     0.127 C 
HETATM    3  C   UNL     1      -3.083   3.847 -31.675  1.00  0.00     0.060 C 
HETATM    4  C   UNL     1      -2.271   5.055 -31.723  1.00  0.00     0.003 A 
HETATM    5  C   UNL     1      -3.005   6.059 -32.342  1.00  0.00     0.023 A 
HETATM    6  C   UNL     1      -2.447   7.289 -32.635  1.00  0.00     0.016 A 
HETATM    7  C   UNL     1      -1.109   7.489 -32.280  1.00  0.00     0.001 A 
HETATM    8  C   UNL     1      -0.365   6.468 -31.656  1.00  0.00     0.001 A 
HETATM    9  C   UNL     1      -0.945   5.227 -31.378  1.00  0.00     0.014 A 
HETATM   10  C   UNL     1      -4.356   5.569 -32.646  1.00  0.00     0.171 C 
HETATM   11  O   UNL     1      -5.180   6.207 -33.272  1.00  0.00    -0.291 OA
HETATM   12  N   UNL     1      -2.610   2.667 -31.462  1.00  0.00    -0.231 NA
HETATM   13  C   UNL     1      -3.422   1.609 -31.788  1.00  0.00     0.165 C 
HETATM   14  C   UNL     1      -4.532   1.753 -32.538  1.00  0.00     0.067 C 
HETATM   15  N   UNL     1      -2.899   0.402 -31.408  1.00  0.00    -0.200 NA
HETATM   16  C   UNL     1      -3.477  -0.672 -31.828  1.00  0.00     0.181 C 
HETATM   17  N   UNL     1      -4.569  -0.648 -32.629  1.00  0.00    -0.298 N 
HETATM   18  C   UNL     1      -5.107   0.513 -33.095  1.00  0.00     0.258 C 
HETATM   19  O   UNL     1      -5.974   0.507 -33.961  1.00  0.00    -0.267 OA
HETATM   20  H   UNL     1      -4.975  -1.502 -32.974  1.00  0.00     0.171 HD
ENDROOT
BRANCH   1  21
HETATM   21  C   UNL     1      -6.643   3.184 -32.760  1.00  0.00    -0.048 A 
HETATM   22  C   UNL     1      -7.239   2.876 -31.529  1.00  0.00     0.009 A 
HETATM   23  C   UNL     1      -8.630   2.928 -31.365  1.00  0.00     0.019 A 
HETATM   24  C   UNL     1      -9.461   3.293 -32.425  1.00  0.00    -0.000 A 
HETATM   25  C   UNL     1      -8.869   3.589 -33.659  1.00  0.00     0.019 A 
HETATM   26  C   UNL     1      -7.481   3.525 -33.832  1.00  0.00     0.009 A 
BRANCH  24  27
HETATM   27  S   UNL     1     -11.243   3.423 -32.332  1.00  0.00    -0.134 SA
HETATM   28  C   UNL     1     -11.818   2.149 -33.485  1.00  0.00     0.095 C 
ENDBRANCH  24  27
ENDBRANCH   1  21
BRANCH  16  29
HETATM   29  N   UNL     1      -2.989  -1.891 -31.489  1.00  0.00    -0.272 NA
HETATM   30  H   UNL     1      -3.701  -2.454 -31.032  1.00  0.00     0.127 HD
HETATM   31  H   UNL     1      -2.114  -1.895 -30.981  1.00  0.00     0.127 HD
ENDBRANCH  16  29
TORSDOF 3
ENDMDL
MODEL 5
REMARK VINA RESULT:      -8.3      3.510      4.987
REMARK  3 active torsions:
REMARK  status: ('A' for Active; 'I' for Inactive)
REMARK    1  A    between atoms: S_2  and  C_3 
REMARK    2  A    between atoms: C_6  and  C_7 
REMARK    3  A    between atoms: C_22  and  N_23 
ROOT
HETATM    1  C   UNL     1      -6.073   1.697 -32.131  1.00  0.00     0.078 C 
HETATM    2  C   UNL     1      -5.228   2.751 -32.844  1.00  0.00     0.127 C 
HETATM    3  C   UNL     1      -5.813   4.123 -32.637  1.00  0.00     0.060 C 
HETATM    4  C   UNL     1      -4.734   5.079 -32.430  1.00  0.00     0.003 A 
HETATM    5  C   UNL     1      -3.554   4.377 -32.212  1.00  0.00     0.023 A 
HETATM    6  C   UNL     1      -2.381   5.021 -31.868  1.00  0.00     0.016 A 
HETATM    7  C   UNL     1      -2.423   6.414 -31.750  1.00  0.00     0.001 A 
HETATM    8  C   UNL     1      -3.621   7.124 -31.968  1.00  0.00     0.001 A 
HETATM    9  C   UNL     1      -4.800   6.453 -32.305  1.00  0.00     0.014 A 
HETATM   10  C   UNL     1      -3.803   2.937 -32.351  1.00  0.00     0.171 C 
HETATM   11  O   UNL     1      -2.969   2.083 -32.121  1.00  0.00    -0.291 OA
HETATM   12  N   UNL     1      -7.064   4.418 -32.550  1.00  0.00    -0.231 NA
HETATM   13  C   UNL     1      -7.939   3.366 -32.425  1.00  0.00     0.165 C 
HETATM   14  C   UNL     1      -7.529   2.117 -32.128  1.00  0.00     0.067 C 
HETATM   15  N   UNL     1      -9.250   3.757 -32.473  1.00  0.00    -0.200 NA
HETATM   16  C   UNL     1     -10.156   2.889 -32.176  1.00  0.00     0.181 C 
HETATM   17  N   UNL     1      -9.859   1.617 -31.814  1.00  0.00    -0.298 N 
HETATM   18  C   UNL     1      -8.577   1.177 -31.686  1.00  0.00     0.258 C 
HETATM   19  O   UNL     1      -8.329   0.087 -31.182  1.00  0.00    -0.267 OA
HETATM   20  H   UNL     1     -10.585   0.973 -31.549  1.00  0.00     0.171 HD
ENDROOT
BRANCH   1  21
HETATM   21  C   UNL     1      -5.808   0.347 -32.804  1.00  0.00    -0.048 A 
HETATM   22  C   UNL     1      -6.402   0.064 -34.042  1.00  0.00     0.009 A 
HETATM   23  C   UNL     1      -6.193  -1.164 -34.683  1.00  0.00     0.019 A 
HETATM   24  C   UNL     1      -5.382  -2.142 -34.105  1.00  0.00    -0.000 A 
HETATM   25  C   UNL     1      -4.797  -1.867 -32.862  1.00  0.00     0.019 A 
HETATM   26  C   UNL     1      -5.015  -0.647 -32.212  1.00  0.00     0.009 A 
BRANCH  24  27
HETATM   27  S   UNL     1      -5.017  -3.734 -34.835  1.00  0.00    -0.134 SA
HETATM   28  C   UNL     1      -6.656  -4.408 -35.216  1.00  0.00     0.095 C 
ENDBRANCH  24  27
ENDBRANCH   1  21
BRANCH  16  29
HETATM   29  N   UNL     1     -11.468   3.231 -32.198  1.00  0.00    -0.272 NA
HETATM   30  H   UNL     1     -12.043   2.452 -32.504  1.00  0.00     0.127 HD
HETATM   31  H   UNL     1     -11.696   4.089 -32.683  1.00  0.00     0.127 HD
ENDBRANCH  16  29
TORSDOF 3
ENDMDL
MODEL 6
REMARK VINA RESULT:      -8.3      3.653      5.225
REMARK  3 active torsions:
REMARK  status: ('A' for Active; 'I' for Inactive)
REMARK    1  A    between atoms: S_2  and  C_3 
REMARK    2  A    between atoms: C_6  and  C_7 
REMARK    3  A    between atoms: C_22  and  N_23 
ROOT
HETATM    1  C   UNL     1      -6.130   2.595 -32.835  1.00  0.00     0.078 C 
HETATM    2  C   UNL     1      -4.840   3.199 -33.387  1.00  0.00     0.127 C 
HETATM    3  C   UNL     1      -4.946   4.701 -33.445  1.00  0.00     0.060 C 
HETATM    4  C   UNL     1      -3.675   5.286 -33.043  1.00  0.00     0.003 A 
HETATM    5  C   UNL     1      -2.887   4.293 -32.475  1.00  0.00     0.023 A 
HETATM    6  C   UNL     1      -1.667   4.579 -31.893  1.00  0.00     0.016 A 
HETATM    7  C   UNL     1      -1.249   5.914 -31.898  1.00  0.00     0.001 A 
HETATM    8  C   UNL     1      -2.051   6.921 -32.472  1.00  0.00     0.001 A 
HETATM    9  C   UNL     1      -3.287   6.612 -33.046  1.00  0.00     0.014 A 
HETATM   10  C   UNL     1      -3.581   3.002 -32.561  1.00  0.00     0.171 C 
HETATM   11  O   UNL     1      -3.163   1.976 -32.058  1.00  0.00    -0.291 OA
HETATM   12  N   UNL     1      -6.005   5.386 -33.706  1.00  0.00    -0.231 NA
HETATM   13  C   UNL     1      -7.195   4.698 -33.727  1.00  0.00     0.165 C 
HETATM   14  C   UNL     1      -7.315   3.448 -33.239  1.00  0.00     0.067 C 
HETATM   15  N   UNL     1      -8.246   5.470 -34.141  1.00  0.00    -0.200 NA
HETATM   16  C   UNL     1      -9.438   4.991 -34.020  1.00  0.00     0.181 C 
HETATM   17  N   UNL     1      -9.684   3.766 -33.496  1.00  0.00    -0.298 N 
HETATM   18  C   UNL     1      -8.693   2.970 -33.009  1.00  0.00     0.258 C 
HETATM   19  O   UNL     1      -8.951   1.953 -32.375  1.00  0.00    -0.267 OA
HETATM   20  H   UNL     1     -10.626   3.436 -33.377  1.00  0.00     0.171 HD
ENDROOT
BRANCH   1  21
HETATM   21  C   UNL     1      -6.209   1.140 -33.311  1.00  0.00    -0.048 A 
HETATM   22  C   UNL     1      -6.612   0.865 -34.625  1.00  0.00     0.009 A 
HETATM   23  C   UNL     1      -6.708  -0.453 -35.092  1.00  0.00     0.019 A 
HETATM   24  C   UNL     1      -6.401  -1.530 -34.259  1.00  0.00    -0.000 A 
HETATM   25  C   UNL     1      -6.010  -1.258 -32.942  1.00  0.00     0.019 A 
HETATM   26  C   UNL     1      -5.926   0.056 -32.467  1.00  0.00     0.009 A 
BRANCH  24  27
HETATM   27  S   UNL     1      -6.457  -3.251 -34.746  1.00  0.00    -0.134 SA
HETATM   28  C   UNL     1      -4.768  -3.830 -34.437  1.00  0.00     0.095 C 
ENDBRANCH  24  27
ENDBRANCH   1  21
BRANCH  16  29
HETATM   29  N   UNL     1     -10.513   5.722 -34.405  1.00  0.00    -0.272 NA
HETATM   30  H   UNL     1     -10.225   6.561 -34.901  1.00  0.00     0.127 HD
HETATM   31  H   UNL     1     -11.198   5.919 -33.687  1.00  0.00     0.127 HD
ENDBRANCH  16  29
TORSDOF 3
ENDMDL
MODEL 7
REMARK VINA RESULT:      -8.3      3.384      5.734
REMARK  3 active torsions:
REMARK  status: ('A' for Active; 'I' for Inactive)
REMARK    1  A    between atoms: S_2  and  C_3 
REMARK    2  A    between atoms: C_6  and  C_7 
REMARK    3  A    between atoms: C_22  and  N_23 
ROOT
HETATM    1  C   UNL     1      -8.215   2.423 -32.459  1.00  0.00     0.078 C 
HETATM    2  C   UNL     1      -7.277   1.808 -33.495  1.00  0.00     0.127 C 
HETATM    3  C   UNL     1      -6.027   1.292 -32.831  1.00  0.00     0.060 C 
HETATM    4  C   UNL     1      -5.646   0.027 -33.445  1.00  0.00     0.003 A 
HETATM    5  C   UNL     1      -6.700  -0.421 -34.232  1.00  0.00     0.023 A 
HETATM    6  C   UNL     1      -6.671  -1.659 -34.845  1.00  0.00     0.016 A 
HETATM    7  C   UNL     1      -5.534  -2.448 -34.648  1.00  0.00     0.001 A 
HETATM    8  C   UNL     1      -4.467  -1.994 -33.847  1.00  0.00     0.001 A 
HETATM    9  C   UNL     1      -4.521  -0.743 -33.225  1.00  0.00     0.014 A 
HETATM   10  C   UNL     1      -7.778   0.576 -34.229  1.00  0.00     0.171 C 
HETATM   11  O   UNL     1      -8.859   0.403 -34.759  1.00  0.00    -0.291 OA
HETATM   12  N   UNL     1      -5.427   1.811 -31.816  1.00  0.00    -0.231 NA
HETATM   13  C   UNL     1      -6.099   2.803 -31.144  1.00  0.00     0.165 C 
HETATM   14  C   UNL     1      -7.410   3.047 -31.337  1.00  0.00     0.067 C 
HETATM   15  N   UNL     1      -5.340   3.389 -30.167  1.00  0.00    -0.200 NA
HETATM   16  C   UNL     1      -5.921   4.197 -29.346  1.00  0.00     0.181 C 
HETATM   17  N   UNL     1      -7.245   4.478 -29.413  1.00  0.00    -0.298 N 
HETATM   18  C   UNL     1      -8.071   3.887 -30.319  1.00  0.00     0.258 C 
HETATM   19  O   UNL     1      -9.288   4.013 -30.243  1.00  0.00    -0.267 OA
HETATM   20  H   UNL     1      -7.679   5.081 -28.734  1.00  0.00     0.171 HD
ENDROOT
BRANCH   1  21
HETATM   21  C   UNL     1      -9.143   3.401 -33.187  1.00  0.00    -0.048 A 
HETATM   22  C   UNL     1     -10.525   3.166 -33.195  1.00  0.00     0.009 A 
HETATM   23  C   UNL     1     -11.404   4.031 -33.861  1.00  0.00     0.019 A 
HETATM   24  C   UNL     1     -10.925   5.156 -34.534  1.00  0.00    -0.000 A 
HETATM   25  C   UNL     1      -9.543   5.387 -34.538  1.00  0.00     0.019 A 
HETATM   26  C   UNL     1      -8.661   4.517 -33.886  1.00  0.00     0.009 A 
BRANCH  24  27
HETATM   27  S   UNL     1     -11.946   6.347 -35.395  1.00  0.00    -0.134 SA
HETATM   28  C   UNL     1     -10.783   7.675 -35.808  1.00  0.00     0.095 C 
ENDBRANCH  24  27
ENDBRANCH   1  21
BRANCH  16  29
HETATM   29  N   UNL     1      -5.215   4.792 -28.354  1.00  0.00    -0.272 NA
HETATM   30  H   UNL     1      -5.420   5.787 -28.307  1.00  0.00     0.127 HD
HETATM   31  H   UNL     1      -4.221   4.605 -28.341  1.00  0.00     0.127 HD
ENDBRANCH  16  29
TORSDOF 3
ENDMDL
MODEL 8
REMARK VINA RESULT:      -8.1      4.243      5.887
REMARK  3 active torsions:
REMARK  status: ('A' for Active; 'I' for Inactive)
REMARK    1  A    between atoms: S_2  and  C_3 
REMARK    2  A    between atoms: C_6  and  C_7 
REMARK    3  A    between atoms: C_22  and  N_23 
ROOT
HETATM    1  C   UNL     1      -8.141   1.746 -32.756  1.00  0.00     0.078 C 
HETATM    2  C   UNL     1      -7.404   3.000 -33.221  1.00  0.00     0.127 C 
HETATM    3  C   UNL     1      -8.327   4.190 -33.204  1.00  0.00     0.060 C 
HETATM    4  C   UNL     1      -7.601   5.354 -32.718  1.00  0.00     0.003 A 
HETATM    5  C   UNL     1      -6.396   4.930 -32.170  1.00  0.00     0.023 A 
HETATM    6  C   UNL     1      -5.547   5.807 -31.521  1.00  0.00     0.016 A 
HETATM    7  C   UNL     1      -5.943   7.145 -31.439  1.00  0.00     0.001 A 
HETATM    8  C   UNL     1      -7.167   7.573 -31.993  1.00  0.00     0.001 A 
HETATM    9  C   UNL     1      -8.017   6.669 -32.635  1.00  0.00     0.014 A 
HETATM   10  C   UNL     1      -6.253   3.481 -32.353  1.00  0.00     0.171 C 
HETATM   11  O   UNL     1      -5.338   2.829 -31.887  1.00  0.00    -0.291 OA
HETATM   12  N   UNL     1      -9.587   4.187 -33.474  1.00  0.00    -0.231 NA
HETATM   13  C   UNL     1     -10.191   2.957 -33.582  1.00  0.00     0.165 C 
HETATM   14  C   UNL     1      -9.599   1.822 -33.165  1.00  0.00     0.067 C 
HETATM   15  N   UNL     1     -11.492   3.041 -33.999  1.00  0.00    -0.200 NA
HETATM   16  C   UNL     1     -12.216   1.974 -33.955  1.00  0.00     0.181 C 
HETATM   17  N   UNL     1     -11.741   0.787 -33.506  1.00  0.00    -0.298 N 
HETATM   18  C   UNL     1     -10.478   0.645 -33.020  1.00  0.00     0.258 C 
HETATM   19  O   UNL     1     -10.130  -0.384 -32.451  1.00  0.00    -0.267 OA
HETATM   20  H   UNL     1     -12.340  -0.018 -33.445  1.00  0.00     0.171 HD
ENDROOT
BRANCH   1  21
HETATM   21  C   UNL     1      -7.393   0.529 -33.310  1.00  0.00    -0.048 A 
HETATM   22  C   UNL     1      -7.469   0.236 -34.679  1.00  0.00     0.009 A 
HETATM   23  C   UNL     1      -6.809  -0.876 -35.220  1.00  0.00     0.019 A 
HETATM   24  C   UNL     1      -6.054  -1.723 -34.408  1.00  0.00    -0.000 A 
HETATM   25  C   UNL     1      -5.986  -1.439 -33.038  1.00  0.00     0.019 A 
HETATM   26  C   UNL     1      -6.655  -0.338 -32.491  1.00  0.00     0.009 A 
BRANCH  24  27
HETATM   27  S   UNL     1      -5.145  -3.152 -34.984  1.00  0.00    -0.134 SA
HETATM   28  C   UNL     1      -6.404  -4.455 -35.041  1.00  0.00     0.095 C 
ENDBRANCH  24  27
ENDBRANCH   1  21
BRANCH  16  29
HETATM   29  N   UNL     1     -13.514   2.009 -34.346  1.00  0.00    -0.272 NA
HETATM   30  H   UNL     1     -14.062   1.309 -33.854  1.00  0.00     0.127 HD
HETATM   31  H   UNL     1     -13.679   1.992 -35.344  1.00  0.00     0.127 HD
ENDBRANCH  16  29
TORSDOF 3
ENDMDL
MODEL 9
REMARK VINA RESULT:      -8.1      3.017      6.514
REMARK  3 active torsions:
REMARK  status: ('A' for Active; 'I' for Inactive)
REMARK    1  A    between atoms: S_2  and  C_3 
REMARK    2  A    between atoms: C_6  and  C_7 
REMARK    3  A    between atoms: C_22  and  N_23 
ROOT
HETATM    1  C   UNL     1      -7.037   2.269 -32.978  1.00  0.00     0.078 C 
HETATM    2  C   UNL     1      -8.295   2.788 -33.672  1.00  0.00     0.127 C 
HETATM    3  C   UNL     1      -9.198   1.643 -34.049  1.00  0.00     0.060 C 
HETATM    4  C   UNL     1     -10.582   2.025 -33.807  1.00  0.00     0.003 A 
HETATM    5  C   UNL     1     -10.597   3.193 -33.055  1.00  0.00     0.023 A 
HETATM    6  C   UNL     1     -11.775   3.729 -32.572  1.00  0.00     0.016 A 
HETATM    7  C   UNL     1     -12.961   3.052 -32.872  1.00  0.00     0.001 A 
HETATM    8  C   UNL     1     -12.945   1.865 -33.633  1.00  0.00     0.001 A 
HETATM    9  C   UNL     1     -11.741   1.333 -34.103  1.00  0.00     0.014 A 
HETATM   10  C   UNL     1      -9.222   3.665 -32.848  1.00  0.00     0.171 C 
HETATM   11  O   UNL     1      -8.933   4.614 -32.145  1.00  0.00    -0.291 OA
HETATM   12  N   UNL     1      -8.829   0.469 -34.430  1.00  0.00    -0.231 NA
HETATM   13  C   UNL     1      -7.499   0.161 -34.280  1.00  0.00     0.165 C 
HETATM   14  C   UNL     1      -6.664   0.909 -33.533  1.00  0.00     0.067 C 
HETATM   15  N   UNL     1      -7.169  -1.048 -34.829  1.00  0.00    -0.200 NA
HETATM   16  C   UNL     1      -5.997  -1.529 -34.585  1.00  0.00     0.181 C 
HETATM   17  N   UNL     1      -5.093  -0.889 -33.805  1.00  0.00    -0.298 N 
HETATM   18  C   UNL     1      -5.374   0.286 -33.178  1.00  0.00     0.258 C 
HETATM   19  O   UNL     1      -4.615   0.752 -32.335  1.00  0.00    -0.267 OA
HETATM   20  H   UNL     1      -4.201  -1.307 -33.599  1.00  0.00     0.171 HD
ENDROOT
BRANCH   1  21
HETATM   21  C   UNL     1      -5.944   3.333 -33.128  1.00  0.00    -0.048 A 
HETATM   22  C   UNL     1      -5.302   3.830 -31.985  1.00  0.00     0.009 A 
HETATM   23  C   UNL     1      -4.307   4.812 -32.082  1.00  0.00     0.019 A 
HETATM   24  C   UNL     1      -3.925   5.321 -33.324  1.00  0.00    -0.000 A 
HETATM   25  C   UNL     1      -4.573   4.835 -34.467  1.00  0.00     0.019 A 
HETATM   26  C   UNL     1      -5.577   3.864 -34.373  1.00  0.00     0.009 A 
BRANCH  24  27
HETATM   27  S   UNL     1      -2.652   6.551 -33.580  1.00  0.00    -0.134 SA
HETATM   28  C   UNL     1      -1.406   5.670 -34.558  1.00  0.00     0.095 C 
ENDBRANCH  24  27
ENDBRANCH   1  21
BRANCH  16  29
HETATM   29  N   UNL     1      -5.628  -2.729 -35.097  1.00  0.00    -0.272 NA
HETATM   30  H   UNL     1      -6.434  -3.335 -35.223  1.00  0.00     0.127 HD
HETATM   31  H   UNL     1      -4.866  -3.199 -34.626  1.00  0.00     0.127 HD
ENDBRANCH  16  29
TORSDOF 3
ENDMDL
MODEL 10
REMARK VINA RESULT:      -8.0      3.559      6.648
REMARK  3 active torsions:
REMARK  status: ('A' for Active; 'I' for Inactive)
REMARK    1  A    between atoms: S_2  and  C_3 
REMARK    2  A    between atoms: C_6  and  C_7 
REMARK    3  A    between atoms: C_22  and  N_23 
ROOT
HETATM    1  C   UNL     1      -7.949   2.355 -32.807  1.00  0.00     0.078 C 
HETATM    2  C   UNL     1      -9.377   2.039 -32.366  1.00  0.00     0.127 C 
HETATM    3  C   UNL     1      -9.866   3.075 -31.388  1.00  0.00     0.060 C 
HETATM    4  C   UNL     1     -11.261   3.381 -31.671  1.00  0.00     0.003 A 
HETATM    5  C   UNL     1     -11.594   2.838 -32.906  1.00  0.00     0.023 A 
HETATM    6  C   UNL     1     -12.823   3.069 -33.492  1.00  0.00     0.016 A 
HETATM    7  C   UNL     1     -13.729   3.873 -32.792  1.00  0.00     0.001 A 
HETATM    8  C   UNL     1     -13.389   4.427 -31.541  1.00  0.00     0.001 A 
HETATM    9  C   UNL     1     -12.135   4.189 -30.970  1.00  0.00     0.014 A 
HETATM   10  C   UNL     1     -10.452   2.084 -33.438  1.00  0.00     0.171 C 
HETATM   11  O   UNL     1     -10.432   1.582 -34.546  1.00  0.00    -0.291 OA
HETATM   12  N   UNL     1      -9.160   3.685 -30.499  1.00  0.00    -0.231 NA
HETATM   13  C   UNL     1      -7.797   3.535 -30.585  1.00  0.00     0.165 C 
HETATM   14  C   UNL     1      -7.193   3.023 -31.675  1.00  0.00     0.067 C 
HETATM   15  N   UNL     1      -7.133   4.102 -29.531  1.00  0.00    -0.200 NA
HETATM   16  C   UNL     1      -5.848   4.192 -29.597  1.00  0.00     0.181 C 
HETATM   17  N   UNL     1      -5.139   3.757 -30.666  1.00  0.00    -0.298 N 
HETATM   18  C   UNL     1      -5.737   3.239 -31.774  1.00  0.00     0.258 C 
HETATM   19  O   UNL     1      -5.096   3.024 -32.798  1.00  0.00    -0.267 OA
HETATM   20  H   UNL     1      -4.141   3.877 -30.708  1.00  0.00     0.171 HD
ENDROOT
BRANCH   1  21
HETATM   21  C   UNL     1      -7.313   1.053 -33.306  1.00  0.00    -0.048 A 
HETATM   22  C   UNL     1      -7.238   0.805 -34.685  1.00  0.00     0.009 A 
HETATM   23  C   UNL     1      -6.675  -0.379 -35.179  1.00  0.00     0.019 A 
HETATM   24  C   UNL     1      -6.170  -1.347 -34.309  1.00  0.00    -0.000 A 
HETATM   25  C   UNL     1      -6.255  -1.107 -32.931  1.00  0.00     0.019 A 
HETATM   26  C   UNL     1      -6.828   0.068 -32.433  1.00  0.00     0.009 A 
BRANCH  24  27
HETATM   27  S   UNL     1      -5.404  -2.882 -34.817  1.00  0.00    -0.134 SA
HETATM   28  C   UNL     1      -6.806  -4.021 -34.967  1.00  0.00     0.095 C 
ENDBRANCH  24  27
ENDBRANCH   1  21
BRANCH  16  29
HETATM   29  N   UNL     1      -5.147   4.757 -28.583  1.00  0.00    -0.272 NA
HETATM   30  H   UNL     1      -5.147   4.157 -27.762  1.00  0.00     0.127 HD
HETATM   31  H   UNL     1      -5.383   5.714 -28.357  1.00  0.00     0.127 HD
ENDBRANCH  16  29
TORSDOF 3
ENDMDL
