MODEL 1
REMARK VINA RESULT:      -8.1      0.000      0.000
REMARK  3 active torsions:
REMARK  status: ('A' for Active; 'I' for Inactive)
REMARK    1  A    between atoms: C_3  and  N_4 
REMARK       I    between atoms: N_4  and  C_5 
REMARK    2  A    between atoms: C_5  and  C_6 
REMARK    3  A    between atoms: C_6  and  C_7 
ROOT
HETATM    1  C   UNL     1      -5.334   0.974 -31.606  1.00  0.00     0.286 C 
HETATM    2  N   UNL     1      -5.703   1.827 -32.818  1.00  0.00    -0.056 N 
HETATM    3  H   UNL     1      -5.352   2.775 -32.633  1.00  0.00     0.278 HD
HETATM    4  H   UNL     1      -5.125   1.502 -33.622  1.00  0.00     0.278 HD
HETATM    5  C   UNL     1      -7.153   1.926 -33.193  1.00  0.00     0.209 C 
HETATM    6  C   UNL     1      -7.994   2.238 -31.933  1.00  0.00     0.115 C 
HETATM    7  N   UNL     1      -7.654   1.384 -30.796  1.00  0.00    -0.353 N 
HETATM    8  C   UNL     1      -6.364   1.053 -30.469  1.00  0.00     0.249 C 
HETATM    9  O   UNL     1      -6.086   0.725 -29.320  1.00  0.00    -0.271 OA
HETATM   10  C   UNL     1      -7.603   0.676 -33.950  1.00  0.00     0.035 C 
HETATM   11  C   UNL     1      -9.098   0.723 -34.251  1.00  0.00     0.002 C 
HETATM   12  C   UNL     1      -9.907   0.909 -32.971  1.00  0.00     0.002 C 
HETATM   13  C   UNL     1      -9.496   2.182 -32.232  1.00  0.00     0.027 C 
HETATM   14  H   UNL     1      -8.252   1.439 -29.972  1.00  0.00     0.163 HD
ENDROOT
BRANCH   1  15
HETATM   15  C   UNL     1      -5.110  -0.514 -31.923  1.00  0.00     0.146 C 
BRANCH  15  16
HETATM   16  C   UNL     1      -3.901  -0.779 -32.773  1.00  0.00     0.224 C 
HETATM   17  N   UNL     1      -3.889  -1.729 -33.742  1.00  0.00    -0.326 N 
HETATM   18  H   UNL     1      -2.998  -1.750 -34.239  1.00  0.00     0.169 HD
HETATM   19  O   UNL     1      -2.902  -0.062 -32.629  1.00  0.00    -0.273 OA
BRANCH  17  20
HETATM   20  C   UNL     1      -4.827  -2.663 -34.248  1.00  0.00     0.056 A 
HETATM   21  C   UNL     1      -6.032  -2.340 -34.875  1.00  0.00     0.031 A 
HETATM   22  C   UNL     1      -6.883  -3.347 -35.354  1.00  0.00     0.002 A 
HETATM   23  C   UNL     1      -6.547  -4.689 -35.211  1.00  0.00     0.002 A 
HETATM   24  C   UNL     1      -5.356  -5.036 -34.581  1.00  0.00     0.026 A 
HETATM   25  C   UNL     1      -4.508  -4.033 -34.104  1.00  0.00     0.060 A 
HETATM   26 CL   UNL     1      -3.032  -4.525 -33.337  1.00  0.00    -0.082 Cl
ENDBRANCH  17  20
ENDBRANCH  15  16
ENDBRANCH   1  15
TORSDOF 3
ENDMDL
MODEL 2
REMARK VINA RESULT:      -7.9      3.785      6.222
REMARK  3 active torsions:
REMARK  status: ('A' for Active; 'I' for Inactive)
REMARK    1  A    between atoms: C_3  and  N_4 
REMARK       I    between atoms: N_4  and  C_5 
REMARK    2  A    between atoms: C_5  and  C_6 
REMARK    3  A    between atoms: C_6  and  C_7 
ROOT
HETATM    1  C   UNL     1      -4.731   0.438 -31.068  1.00  0.00     0.286 C 
HETATM    2  N   UNL     1      -6.250   0.583 -31.120  1.00  0.00    -0.056 N 
HETATM    3  H   UNL     1      -6.632  -0.005 -30.368  1.00  0.00     0.278 HD
HETATM    4  H   UNL     1      -6.487   1.553 -30.820  1.00  0.00     0.278 HD
HETATM    5  C   UNL     1      -6.948   0.223 -32.399  1.00  0.00     0.209 C 
HETATM    6  C   UNL     1      -6.436  -1.148 -32.900  1.00  0.00     0.115 C 
HETATM    7  N   UNL     1      -4.978  -1.254 -32.881  1.00  0.00    -0.353 N 
HETATM    8  C   UNL     1      -4.207  -0.775 -31.852  1.00  0.00     0.249 C 
HETATM    9  O   UNL     1      -3.091  -1.242 -31.652  1.00  0.00    -0.271 OA
HETATM   10  C   UNL     1      -6.817   1.350 -33.424  1.00  0.00     0.035 C 
HETATM   11  C   UNL     1      -7.437   0.955 -34.761  1.00  0.00     0.002 C 
HETATM   12  C   UNL     1      -6.822  -0.338 -35.287  1.00  0.00     0.002 C 
HETATM   13  C   UNL     1      -6.992  -1.483 -34.289  1.00  0.00     0.027 C 
HETATM   14  H   UNL     1      -4.560  -2.074 -33.318  1.00  0.00     0.163 HD
ENDROOT
BRANCH   1  15
HETATM   15  C   UNL     1      -3.959   1.674 -31.560  1.00  0.00     0.146 C 
BRANCH  15  16
HETATM   16  C   UNL     1      -4.426   2.964 -30.951  1.00  0.00     0.224 C 
HETATM   17  N   UNL     1      -4.077   4.174 -31.458  1.00  0.00    -0.326 N 
HETATM   18  H   UNL     1      -4.508   4.940 -30.938  1.00  0.00     0.169 HD
HETATM   19  O   UNL     1      -5.208   2.922 -29.993  1.00  0.00    -0.273 OA
BRANCH  17  20
HETATM   20  C   UNL     1      -3.295   4.619 -32.552  1.00  0.00     0.056 A 
HETATM   21  C   UNL     1      -1.908   4.779 -32.543  1.00  0.00     0.031 A 
HETATM   22  C   UNL     1      -1.229   5.214 -33.690  1.00  0.00     0.002 A 
HETATM   23  C   UNL     1      -1.923   5.498 -34.862  1.00  0.00     0.002 A 
HETATM   24  C   UNL     1      -3.306   5.356 -34.893  1.00  0.00     0.026 A 
HETATM   25  C   UNL     1      -3.983   4.923 -33.750  1.00  0.00     0.060 A 
HETATM   26 CL   UNL     1      -5.706   4.752 -33.851  1.00  0.00    -0.082 Cl
ENDBRANCH  17  20
ENDBRANCH  15  16
ENDBRANCH   1  15
TORSDOF 3
ENDMDL
MODEL 3
REMARK VINA RESULT:      -7.7      3.809      5.238
REMARK  3 active torsions:
REMARK  status: ('A' for Active; 'I' for Inactive)
REMARK    1  A    between atoms: C_3  and  N_4 
REMARK       I    between atoms: N_4  and  C_5 
REMARK    2  A    between atoms: C_5  and  C_6 
REMARK    3  A    between atoms: C_6  and  C_7 
ROOT
HETATM    1  C   UNL     1      -5.451   4.049 -32.169  1.00  0.00     0.286 C 
HETATM    2  N   UNL     1      -4.574   4.798 -31.169  1.00  0.00    -0.056 N 
HETATM    3  H   UNL     1      -5.165   5.520 -30.736  1.00  0.00     0.278 HD
HETATM    4  H   UNL     1      -4.363   4.148 -30.381  1.00  0.00     0.278 HD
HETATM    5  C   UNL     1      -3.326   5.455 -31.682  1.00  0.00     0.209 C 
HETATM    6  C   UNL     1      -3.656   6.271 -32.954  1.00  0.00     0.115 C 
HETATM    7  N   UNL     1      -4.462   5.523 -33.917  1.00  0.00    -0.353 N 
HETATM    8  C   UNL     1      -5.512   4.720 -33.549  1.00  0.00     0.249 C 
HETATM    9  O   UNL     1      -6.404   4.469 -34.352  1.00  0.00    -0.271 OA
HETATM   10  C   UNL     1      -2.211   4.427 -31.872  1.00  0.00     0.035 C 
HETATM   11  C   UNL     1      -0.969   5.067 -32.485  1.00  0.00     0.002 C 
HETATM   12  C   UNL     1      -1.306   5.759 -33.802  1.00  0.00     0.002 C 
HETATM   13  C   UNL     1      -2.387   6.823 -33.612  1.00  0.00     0.027 C 
HETATM   14  H   UNL     1      -4.610   5.943 -34.834  1.00  0.00     0.163 HD
ENDROOT
BRANCH   1  15
HETATM   15  C   UNL     1      -5.051   2.580 -32.387  1.00  0.00     0.146 C 
BRANCH  15  16
HETATM   16  C   UNL     1      -5.409   1.676 -31.243  1.00  0.00     0.224 C 
HETATM   17  N   UNL     1      -5.729   0.370 -31.423  1.00  0.00    -0.326 N 
HETATM   18  H   UNL     1      -5.915  -0.100 -30.536  1.00  0.00     0.169 HD
HETATM   19  O   UNL     1      -5.347   2.121 -30.090  1.00  0.00    -0.273 OA
BRANCH  17  20
HETATM   20  C   UNL     1      -5.828  -0.498 -32.538  1.00  0.00     0.056 A 
HETATM   21  C   UNL     1      -6.941  -0.619 -33.374  1.00  0.00     0.031 A 
HETATM   22  C   UNL     1      -6.926  -1.501 -34.464  1.00  0.00     0.002 A 
HETATM   23  C   UNL     1      -5.805  -2.279 -34.734  1.00  0.00     0.002 A 
HETATM   24  C   UNL     1      -4.688  -2.184 -33.910  1.00  0.00     0.026 A 
HETATM   25  C   UNL     1      -4.702  -1.305 -32.825  1.00  0.00     0.060 A 
HETATM   26 CL   UNL     1      -3.277  -1.220 -31.840  1.00  0.00    -0.082 Cl
ENDBRANCH  17  20
ENDBRANCH  15  16
ENDBRANCH   1  15
TORSDOF 3
ENDMDL
MODEL 4
REMARK VINA RESULT:      -7.7      3.948      5.411
REMARK  3 active torsions:
REMARK  status: ('A' for Active; 'I' for Inactive)
REMARK    1  A    between atoms: C_3  and  N_4 
REMARK       I    between atoms: N_4  and  C_5 
REMARK    2  A    between atoms: C_5  and  C_6 
REMARK    3  A    between atoms: C_6  and  C_7 
ROOT
HETATM    1  C   UNL     1      -5.686   4.061 -32.116  1.00  0.00     0.286 C 
HETATM    2  N   UNL     1      -4.780   4.772 -31.114  1.00  0.00    -0.056 N 
HETATM    3  H   UNL     1      -5.341   5.514 -30.677  1.00  0.00     0.278 HD
HETATM    4  H   UNL     1      -4.592   4.110 -30.330  1.00  0.00     0.278 HD
HETATM    5  C   UNL     1      -3.508   5.383 -31.627  1.00  0.00     0.209 C 
HETATM    6  C   UNL     1      -3.809   6.217 -32.895  1.00  0.00     0.115 C 
HETATM    7  N   UNL     1      -4.645   5.504 -33.860  1.00  0.00    -0.353 N 
HETATM    8  C   UNL     1      -5.724   4.741 -33.493  1.00  0.00     0.249 C 
HETATM    9  O   UNL     1      -6.627   4.527 -34.295  1.00  0.00    -0.271 OA
HETATM   10  C   UNL     1      -2.433   4.314 -31.825  1.00  0.00     0.035 C 
HETATM   11  C   UNL     1      -1.170   4.909 -32.438  1.00  0.00     0.002 C 
HETATM   12  C   UNL     1      -1.482   5.619 -33.751  1.00  0.00     0.002 C 
HETATM   13  C   UNL     1      -2.521   6.723 -33.554  1.00  0.00     0.027 C 
HETATM   14  H   UNL     1      -4.778   5.934 -34.774  1.00  0.00     0.163 HD
ENDROOT
BRANCH   1  15
HETATM   15  C   UNL     1      -5.343   2.579 -32.342  1.00  0.00     0.146 C 
BRANCH  15  16
HETATM   16  C   UNL     1      -5.822   1.670 -31.247  1.00  0.00     0.224 C 
HETATM   17  N   UNL     1      -6.010   0.340 -31.437  1.00  0.00    -0.326 N 
HETATM   18  H   UNL     1      -6.308  -0.126 -30.580  1.00  0.00     0.169 HD
HETATM   19  O   UNL     1      -5.988   2.139 -30.113  1.00  0.00    -0.273 OA
BRANCH  17  20
HETATM   20  C   UNL     1      -5.855  -0.552 -32.527  1.00  0.00     0.056 A 
HETATM   21  C   UNL     1      -4.672  -1.208 -32.873  1.00  0.00     0.031 A 
HETATM   22  C   UNL     1      -4.633  -2.086 -33.966  1.00  0.00     0.002 A 
HETATM   23  C   UNL     1      -5.771  -2.320 -34.731  1.00  0.00     0.002 A 
HETATM   24  C   UNL     1      -6.959  -1.671 -34.412  1.00  0.00     0.026 A 
HETATM   25  C   UNL     1      -6.998  -0.797 -33.323  1.00  0.00     0.060 A 
HETATM   26 CL   UNL     1      -8.510  -0.025 -32.965  1.00  0.00    -0.082 Cl
ENDBRANCH  17  20
ENDBRANCH  15  16
ENDBRANCH   1  15
TORSDOF 3
ENDMDL
MODEL 5
REMARK VINA RESULT:      -7.5      1.759      2.207
REMARK  3 active torsions:
REMARK  status: ('A' for Active; 'I' for Inactive)
REMARK    1  A    between atoms: C_3  and  N_4 
REMARK       I    between atoms: N_4  and  C_5 
REMARK    2  A    between atoms: C_5  and  C_6 
REMARK    3  A    between atoms: C_6  and  C_7 
ROOT
HETATM    1  C   UNL     1      -4.374   1.344 -32.533  1.00  0.00     0.286 C 
HETATM    2  N   UNL     1      -5.656   1.694 -33.284  1.00  0.00    -0.056 N 
HETATM    3  H   UNL     1      -5.379   2.247 -34.106  1.00  0.00     0.278 HD
HETATM    4  H   UNL     1      -6.033   0.813 -33.696  1.00  0.00     0.278 HD
HETATM    5  C   UNL     1      -6.721   2.449 -32.544  1.00  0.00     0.209 C 
HETATM    6  C   UNL     1      -6.086   3.650 -31.805  1.00  0.00     0.115 C 
HETATM    7  N   UNL     1      -4.882   3.288 -31.059  1.00  0.00    -0.353 N 
HETATM    8  C   UNL     1      -3.925   2.438 -31.551  1.00  0.00     0.249 C 
HETATM    9  O   UNL     1      -2.777   2.493 -31.125  1.00  0.00    -0.271 OA
HETATM   10  C   UNL     1      -7.521   1.512 -31.639  1.00  0.00     0.035 C 
HETATM   11  C   UNL     1      -8.542   2.285 -30.809  1.00  0.00     0.002 C 
HETATM   12  C   UNL     1      -7.865   3.384 -29.997  1.00  0.00     0.002 C 
HETATM   13  C   UNL     1      -7.102   4.355 -30.899  1.00  0.00     0.027 C 
HETATM   14  H   UNL     1      -4.482   3.993 -30.442  1.00  0.00     0.163 HD
ENDROOT
BRANCH   1  15
HETATM   15  C   UNL     1      -4.438   0.021 -31.751  1.00  0.00     0.146 C 
BRANCH  15  16
HETATM   16  C   UNL     1      -3.343  -0.945 -32.102  1.00  0.00     0.224 C 
HETATM   17  N   UNL     1      -3.548  -2.010 -32.917  1.00  0.00    -0.326 N 
HETATM   18  H   UNL     1      -2.689  -2.540 -33.070  1.00  0.00     0.169 HD
HETATM   19  O   UNL     1      -2.198  -0.725 -31.685  1.00  0.00    -0.273 OA
BRANCH  17  20
HETATM   20  C   UNL     1      -4.655  -2.533 -33.631  1.00  0.00     0.056 A 
HETATM   21  C   UNL     1      -5.815  -1.827 -33.955  1.00  0.00     0.031 A 
HETATM   22  C   UNL     1      -6.847  -2.439 -34.681  1.00  0.00     0.002 A 
HETATM   23  C   UNL     1      -6.739  -3.764 -35.091  1.00  0.00     0.002 A 
HETATM   24  C   UNL     1      -5.597  -4.491 -34.772  1.00  0.00     0.026 A 
HETATM   25  C   UNL     1      -4.569  -3.881 -34.049  1.00  0.00     0.060 A 
HETATM   26 CL   UNL     1      -3.164  -4.833 -33.691  1.00  0.00    -0.082 Cl
ENDBRANCH  17  20
ENDBRANCH  15  16
ENDBRANCH   1  15
TORSDOF 3
ENDMDL
MODEL 6
REMARK VINA RESULT:      -7.5      4.460      6.990
REMARK  3 active torsions:
REMARK  status: ('A' for Active; 'I' for Inactive)
REMARK    1  A    between atoms: C_3  and  N_4 
REMARK       I    between atoms: N_4  and  C_5 
REMARK    2  A    between atoms: C_5  and  C_6 
REMARK    3  A    between atoms: C_6  and  C_7 
ROOT
HETATM    1  C   UNL     1      -5.692   2.417 -32.570  1.00  0.00     0.286 C 
HETATM    2  N   UNL     1      -6.724   1.344 -32.233  1.00  0.00    -0.056 N 
HETATM    3  H   UNL     1      -6.869   1.378 -31.216  1.00  0.00     0.278 HD
HETATM    4  H   UNL     1      -7.641   1.651 -32.624  1.00  0.00     0.278 HD
HETATM    5  C   UNL     1      -6.415  -0.074 -32.618  1.00  0.00     0.209 C 
HETATM    6  C   UNL     1      -4.978  -0.431 -32.172  1.00  0.00     0.115 C 
HETATM    7  N   UNL     1      -3.998   0.590 -32.538  1.00  0.00    -0.353 N 
HETATM    8  C   UNL     1      -4.240   1.936 -32.422  1.00  0.00     0.249 C 
HETATM    9  O   UNL     1      -3.305   2.722 -32.316  1.00  0.00    -0.271 OA
HETATM   10  C   UNL     1      -6.680  -0.301 -34.107  1.00  0.00     0.035 C 
HETATM   11  C   UNL     1      -6.278  -1.711 -34.529  1.00  0.00     0.002 C 
HETATM   12  C   UNL     1      -4.818  -1.987 -34.185  1.00  0.00     0.002 C 
HETATM   13  C   UNL     1      -4.554  -1.809 -32.690  1.00  0.00     0.027 C 
HETATM   14  H   UNL     1      -3.013   0.369 -32.396  1.00  0.00     0.163 HD
ENDROOT
BRANCH   1  15
HETATM   15  C   UNL     1      -5.837   3.018 -33.978  1.00  0.00     0.146 C 
BRANCH  15  16
HETATM   16  C   UNL     1      -6.257   4.459 -33.984  1.00  0.00     0.224 C 
HETATM   17  N   UNL     1      -5.360   5.477 -33.956  1.00  0.00    -0.326 N 
HETATM   18  H   UNL     1      -5.819   6.387 -33.996  1.00  0.00     0.169 HD
HETATM   19  O   UNL     1      -7.461   4.729 -34.084  1.00  0.00    -0.273 OA
BRANCH  17  20
HETATM   20  C   UNL     1      -3.946   5.572 -33.925  1.00  0.00     0.056 A 
HETATM   21  C   UNL     1      -3.086   5.178 -34.952  1.00  0.00     0.031 A 
HETATM   22  C   UNL     1      -1.698   5.330 -34.823  1.00  0.00     0.002 A 
HETATM   23  C   UNL     1      -1.148   5.874 -33.666  1.00  0.00     0.002 A 
HETATM   24  C   UNL     1      -1.983   6.265 -32.626  1.00  0.00     0.026 A 
HETATM   25  C   UNL     1      -3.366   6.114 -32.755  1.00  0.00     0.060 A 
HETATM   26 CL   UNL     1      -4.359   6.629 -31.430  1.00  0.00    -0.082 Cl
ENDBRANCH  17  20
ENDBRANCH  15  16
ENDBRANCH   1  15
TORSDOF 3
ENDMDL
MODEL 7
REMARK VINA RESULT:      -7.4      1.991      2.777
REMARK  3 active torsions:
REMARK  status: ('A' for Active; 'I' for Inactive)
REMARK    1  A    between atoms: C_3  and  N_4 
REMARK       I    between atoms: N_4  and  C_5 
REMARK    2  A    between atoms: C_5  and  C_6 
REMARK    3  A    between atoms: C_6  and  C_7 
ROOT
HETATM    1  C   UNL     1      -5.781   1.285 -31.613  1.00  0.00     0.286 C 
HETATM    2  N   UNL     1      -5.973   2.632 -32.306  1.00  0.00    -0.056 N 
HETATM    3  H   UNL     1      -5.107   3.167 -32.164  1.00  0.00     0.278 HD
HETATM    4  H   UNL     1      -5.991   2.460 -33.335  1.00  0.00     0.278 HD
HETATM    5  C   UNL     1      -7.131   3.485 -31.876  1.00  0.00     0.209 C 
HETATM    6  C   UNL     1      -7.166   3.569 -30.332  1.00  0.00     0.115 C 
HETATM    7  N   UNL     1      -7.021   2.264 -29.687  1.00  0.00    -0.353 N 
HETATM    8  C   UNL     1      -6.132   1.313 -30.118  1.00  0.00     0.249 C 
HETATM    9  O   UNL     1      -5.729   0.452 -29.343  1.00  0.00    -0.271 OA
HETATM   10  C   UNL     1      -8.433   2.988 -32.504  1.00  0.00     0.035 C 
HETATM   11  C   UNL     1      -9.629   3.788 -31.997  1.00  0.00     0.002 C 
HETATM   12  C   UNL     1      -9.706   3.748 -30.474  1.00  0.00     0.002 C 
HETATM   13  C   UNL     1      -8.426   4.288 -29.837  1.00  0.00     0.027 C 
HETATM   14  H   UNL     1      -7.166   2.219 -28.680  1.00  0.00     0.163 HD
ENDROOT
BRANCH   1  15
HETATM   15  C   UNL     1      -6.566   0.126 -32.251  1.00  0.00     0.146 C 
BRANCH  15  16
HETATM   16  C   UNL     1      -6.283  -0.070 -33.712  1.00  0.00     0.224 C 
HETATM   17  N   UNL     1      -5.424  -1.017 -34.165  1.00  0.00    -0.326 N 
HETATM   18  H   UNL     1      -5.376  -1.028 -35.184  1.00  0.00     0.169 HD
HETATM   19  O   UNL     1      -6.905   0.614 -34.536  1.00  0.00    -0.273 OA
BRANCH  17  20
HETATM   20  C   UNL     1      -4.613  -2.011 -33.563  1.00  0.00     0.056 A 
HETATM   21  C   UNL     1      -3.769  -1.814 -32.468  1.00  0.00     0.031 A 
HETATM   22  C   UNL     1      -3.020  -2.875 -31.940  1.00  0.00     0.002 A 
HETATM   23  C   UNL     1      -3.099  -4.147 -32.498  1.00  0.00     0.002 A 
HETATM   24  C   UNL     1      -3.925  -4.367 -33.594  1.00  0.00     0.026 A 
HETATM   25  C   UNL     1      -4.672  -3.310 -34.120  1.00  0.00     0.060 A 
HETATM   26 CL   UNL     1      -5.693  -3.645 -35.481  1.00  0.00    -0.082 Cl
ENDBRANCH  17  20
ENDBRANCH  15  16
ENDBRANCH   1  15
TORSDOF 3
ENDMDL
MODEL 8
REMARK VINA RESULT:      -7.3      4.235      5.923
REMARK  3 active torsions:
REMARK  status: ('A' for Active; 'I' for Inactive)
REMARK    1  A    between atoms: C_3  and  N_4 
REMARK       I    between atoms: N_4  and  C_5 
REMARK    2  A    between atoms: C_5  and  C_6 
REMARK    3  A    between atoms: C_6  and  C_7 
ROOT
HETATM    1  C   UNL     1      -4.808   4.143 -32.111  1.00  0.00     0.286 C 
HETATM    2  N   UNL     1      -4.054   4.697 -30.904  1.00  0.00    -0.056 N 
HETATM    3  H   UNL     1      -4.745   5.184 -30.319  1.00  0.00     0.278 HD
HETATM    4  H   UNL     1      -3.758   3.889 -30.316  1.00  0.00     0.278 HD
HETATM    5  C   UNL     1      -2.909   5.633 -31.161  1.00  0.00     0.209 C 
HETATM    6  C   UNL     1      -3.343   6.717 -32.175  1.00  0.00     0.115 C 
HETATM    7  N   UNL     1      -4.028   6.163 -33.342  1.00  0.00    -0.353 N 
HETATM    8  C   UNL     1      -4.955   5.156 -33.256  1.00  0.00     0.249 C 
HETATM    9  O   UNL     1      -5.797   5.019 -34.137  1.00  0.00    -0.271 OA
HETATM   10  C   UNL     1      -1.657   4.859 -31.573  1.00  0.00     0.035 C 
HETATM   11  C   UNL     1      -0.516   5.805 -31.930  1.00  0.00     0.002 C 
HETATM   12  C   UNL     1      -0.939   6.783 -33.022  1.00  0.00     0.002 C 
HETATM   13  C   UNL     1      -2.162   7.597 -32.598  1.00  0.00     0.027 C 
HETATM   14  H   UNL     1      -4.228   6.797 -34.114  1.00  0.00     0.163 HD
ENDROOT
BRANCH   1  15
HETATM   15  C   UNL     1      -4.201   2.860 -32.704  1.00  0.00     0.146 C 
BRANCH  15  16
HETATM   16  C   UNL     1      -3.988   1.767 -31.697  1.00  0.00     0.224 C 
HETATM   17  N   UNL     1      -4.918   0.809 -31.456  1.00  0.00    -0.326 N 
HETATM   18  H   UNL     1      -4.594   0.131 -30.766  1.00  0.00     0.169 HD
HETATM   19  O   UNL     1      -2.898   1.699 -31.113  1.00  0.00    -0.273 OA
BRANCH  17  20
HETATM   20  C   UNL     1      -6.208   0.509 -31.962  1.00  0.00     0.056 A 
HETATM   21  C   UNL     1      -7.410   1.017 -31.466  1.00  0.00     0.031 A 
HETATM   22  C   UNL     1      -8.634   0.664 -32.053  1.00  0.00     0.002 A 
HETATM   23  C   UNL     1      -8.677  -0.201 -33.141  1.00  0.00     0.002 A 
HETATM   24  C   UNL     1      -7.493  -0.728 -33.648  1.00  0.00     0.026 A 
HETATM   25  C   UNL     1      -6.274  -0.376 -33.063  1.00  0.00     0.060 A 
HETATM   26 CL   UNL     1      -4.830  -1.054 -33.744  1.00  0.00    -0.082 Cl
ENDBRANCH  17  20
ENDBRANCH  15  16
ENDBRANCH   1  15
TORSDOF 3
ENDMDL
MODEL 9
REMARK VINA RESULT:      -7.3      3.385      5.207
REMARK  3 active torsions:
REMARK  status: ('A' for Active; 'I' for Inactive)
REMARK    1  A    between atoms: C_3  and  N_4 
REMARK       I    between atoms: N_4  and  C_5 
REMARK    2  A    between atoms: C_5  and  C_6 
REMARK    3  A    between atoms: C_6  and  C_7 
ROOT
HETATM    1  C   UNL     1      -7.345   3.722 -32.656  1.00  0.00     0.286 C 
HETATM    2  N   UNL     1      -6.309   3.789 -31.537  1.00  0.00    -0.056 N 
HETATM    3  H   UNL     1      -6.709   4.375 -30.794  1.00  0.00     0.278 HD
HETATM    4  H   UNL     1      -6.251   2.843 -31.101  1.00  0.00     0.278 HD
HETATM    5  C   UNL     1      -4.945   4.318 -31.872  1.00  0.00     0.209 C 
HETATM    6  C   UNL     1      -5.083   5.635 -32.671  1.00  0.00     0.115 C 
HETATM    7  N   UNL     1      -6.050   5.540 -33.763  1.00  0.00    -0.353 N 
HETATM    8  C   UNL     1      -7.257   4.899 -33.640  1.00  0.00     0.249 C 
HETATM    9  O   UNL     1      -8.189   5.196 -34.378  1.00  0.00    -0.271 OA
HETATM   10  C   UNL     1      -4.105   3.250 -32.572  1.00  0.00     0.035 C 
HETATM   11  C   UNL     1      -2.752   3.807 -33.004  1.00  0.00     0.002 C 
HETATM   12  C   UNL     1      -2.927   5.035 -33.893  1.00  0.00     0.002 C 
HETATM   13  C   UNL     1      -3.725   6.128 -33.183  1.00  0.00     0.027 C 
HETATM   14  H   UNL     1      -6.102   6.322 -34.415  1.00  0.00     0.163 HD
ENDROOT
BRANCH   1  15
HETATM   15  C   UNL     1      -7.304   2.426 -33.483  1.00  0.00     0.146 C 
BRANCH  15  16
HETATM   16  C   UNL     1      -7.977   1.260 -32.818  1.00  0.00     0.224 C 
HETATM   17  N   UNL     1      -7.281   0.209 -32.317  1.00  0.00    -0.326 N 
HETATM   18  H   UNL     1      -7.896  -0.476 -31.875  1.00  0.00     0.169 HD
HETATM   19  O   UNL     1      -9.205   1.289 -32.665  1.00  0.00    -0.273 OA
BRANCH  17  20
HETATM   20  C   UNL     1      -5.911  -0.140 -32.228  1.00  0.00     0.056 A 
HETATM   21  C   UNL     1      -5.074   0.134 -31.144  1.00  0.00     0.031 A 
HETATM   22  C   UNL     1      -3.732  -0.271 -31.153  1.00  0.00     0.002 A 
HETATM   23  C   UNL     1      -3.203  -0.952 -32.245  1.00  0.00     0.002 A 
HETATM   24  C   UNL     1      -4.013  -1.229 -33.340  1.00  0.00     0.026 A 
HETATM   25  C   UNL     1      -5.351  -0.826 -33.331  1.00  0.00     0.060 A 
HETATM   26 CL   UNL     1      -6.317  -1.209 -34.720  1.00  0.00    -0.082 Cl
ENDBRANCH  17  20
ENDBRANCH  15  16
ENDBRANCH   1  15
TORSDOF 3
ENDMDL
MODEL 10
REMARK VINA RESULT:      -7.2     13.485     15.170
REMARK  3 active torsions:
REMARK  status: ('A' for Active; 'I' for Inactive)
REMARK    1  A    between atoms: C_3  and  N_4 
REMARK       I    between atoms: N_4  and  C_5 
REMARK    2  A    between atoms: C_5  and  C_6 
REMARK    3  A    between atoms: C_6  and  C_7 
ROOT
HETATM    1  C   UNL     1      -5.403 -14.151 -37.279  1.00  0.00     0.286 C 
HETATM    2  N   UNL     1      -5.925 -12.723 -37.409  1.00  0.00    -0.056 N 
HETATM    3  H   UNL     1      -6.085 -12.375 -36.454  1.00  0.00     0.278 HD
HETATM    4  H   UNL     1      -5.143 -12.129 -37.760  1.00  0.00     0.278 HD
HETATM    5  C   UNL     1      -7.177 -12.501 -38.206  1.00  0.00     0.209 C 
HETATM    6  C   UNL     1      -8.256 -13.521 -37.770  1.00  0.00     0.115 C 
HETATM    7  N   UNL     1      -7.747 -14.889 -37.690  1.00  0.00    -0.353 N 
HETATM    8  C   UNL     1      -6.520 -15.201 -37.163  1.00  0.00     0.249 C 
HETATM    9  O   UNL     1      -6.308 -16.324 -36.720  1.00  0.00    -0.271 OA
HETATM   10  C   UNL     1      -6.876 -12.515 -39.705  1.00  0.00     0.035 C 
HETATM   11  C   UNL     1      -8.155 -12.389 -40.526  1.00  0.00     0.002 C 
HETATM   12  C   UNL     1      -9.150 -13.485 -40.158  1.00  0.00     0.002 C 
HETATM   13  C   UNL     1      -9.495 -13.448 -38.670  1.00  0.00     0.027 C 
HETATM   14  H   UNL     1      -8.425 -15.634 -37.538  1.00  0.00     0.163 HD
ENDROOT
BRANCH   1  15
HETATM   15  C   UNL     1      -4.472 -14.593 -38.420  1.00  0.00     0.146 C 
BRANCH  15  16
HETATM   16  C   UNL     1      -3.533 -13.519 -38.889  1.00  0.00     0.224 C 
HETATM   17  N   UNL     1      -3.189 -13.373 -40.193  1.00  0.00    -0.326 N 
HETATM   18  H   UNL     1      -2.568 -12.576 -40.334  1.00  0.00     0.169 HD
HETATM   19  O   UNL     1      -3.110 -12.697 -38.066  1.00  0.00    -0.273 OA
BRANCH  17  20
HETATM   20  C   UNL     1      -3.516 -14.038 -41.400  1.00  0.00     0.056 A 
HETATM   21  C   UNL     1      -4.678 -13.833 -42.147  1.00  0.00     0.031 A 
HETATM   22  C   UNL     1      -4.896 -14.537 -43.341  1.00  0.00     0.002 A 
HETATM   23  C   UNL     1      -3.962 -15.457 -43.805  1.00  0.00     0.002 A 
HETATM   24  C   UNL     1      -2.801 -15.685 -43.074  1.00  0.00     0.026 A 
HETATM   25  C   UNL     1      -2.583 -14.984 -41.885  1.00  0.00     0.060 A 
HETATM   26 CL   UNL     1      -1.113 -15.302 -41.021  1.00  0.00    -0.082 Cl
ENDBRANCH  17  20
ENDBRANCH  15  16
ENDBRANCH   1  15
TORSDOF 3
ENDMDL
