MODEL 1
REMARK VINA RESULT:      -9.7      0.000      0.000
REMARK  4 active torsions:
REMARK  status: ('A' for Active; 'I' for Inactive)
REMARK    1  A    between atoms: C_4  and  O_5 
REMARK    2  A    between atoms: C_6  and  N_7 
REMARK       I    between atoms: N_7  and  C_8 
REMARK    3  A    between atoms: C_8  and  C_9 
REMARK    4  A    between atoms: C_9  and  N_10 
ROOT
HETATM    1  N   UNL     1      -7.213   1.386 -33.220  1.00  0.00    -0.259 N 
HETATM    2  C   UNL     1      -7.139   0.801 -31.992  1.00  0.00     0.326 C 
HETATM    3  O   UNL     1      -7.576   1.228 -30.938  1.00  0.00    -0.247 OA
HETATM    4  N   UNL     1      -6.437  -0.376 -32.111  1.00  0.00    -0.320 N 
HETATM    5  C   UNL     1      -5.853  -0.512 -33.417  1.00  0.00     0.144 C 
HETATM    6  C   UNL     1      -5.951  -1.898 -33.968  1.00  0.00    -0.014 A 
HETATM    7  C   UNL     1      -4.701  -2.534 -33.897  1.00  0.00    -0.049 A 
HETATM    8  C   UNL     1      -4.535  -3.845 -34.307  1.00  0.00     0.007 A 
HETATM    9  C   UNL     1      -5.646  -4.528 -34.803  1.00  0.00     0.001 A 
HETATM   10  C   UNL     1      -6.899  -3.901 -34.868  1.00  0.00     0.001 A 
HETATM   11  C   UNL     1      -7.060  -2.578 -34.444  1.00  0.00     0.011 A 
HETATM   12  C   UNL     1      -3.667  -1.641 -33.284  1.00  0.00     0.042 C 
HETATM   13  C   UNL     1      -4.331  -0.262 -33.409  1.00  0.00     0.051 C 
HETATM   14  C   UNL     1      -6.571   0.620 -34.154  1.00  0.00     0.261 C 
HETATM   15  O   UNL     1      -6.549   0.866 -35.354  1.00  0.00    -0.270 OA
HETATM   16  H   UNL     1      -6.224  -0.949 -31.305  1.00  0.00     0.165 HD
ENDROOT
BRANCH   1  17
HETATM   17  C   UNL     1      -7.744   2.709 -33.462  1.00  0.00     0.240 C 
BRANCH  17  18
HETATM   18  C   UNL     1      -6.685   3.761 -33.777  1.00  0.00     0.240 C 
HETATM   19  N   UNL     1      -5.397   3.386 -33.456  1.00  0.00    -0.323 N 
HETATM   20  H   UNL     1      -5.243   2.389 -33.299  1.00  0.00     0.169 HD
HETATM   21  O   UNL     1      -7.005   4.874 -34.192  1.00  0.00    -0.271 OA
BRANCH  19  22
HETATM   22  C   UNL     1      -4.247   4.206 -33.326  1.00  0.00     0.068 A 
HETATM   23  C   UNL     1      -3.718   5.076 -34.293  1.00  0.00     0.092 A 
HETATM   24  C   UNL     1      -2.623   5.897 -33.999  1.00  0.00     0.045 A 
HETATM   25  C   UNL     1      -2.017   5.868 -32.741  1.00  0.00    -0.059 A 
HETATM   26  C   UNL     1      -0.821   6.727 -32.459  1.00  0.00     0.048 C 
HETATM   27  C   UNL     1      -2.517   4.988 -31.780  1.00  0.00     0.009 A 
HETATM   28  C   UNL     1      -3.627   4.182 -32.065  1.00  0.00     0.033 A 
BRANCH  23  29
HETATM   29  O   UNL     1      -4.215   5.256 -35.552  1.00  0.00    -0.358 OA
HETATM   30  H   UNL     1      -3.775   6.037 -35.947  1.00  0.00     0.218 HD
ENDBRANCH  23  29
ENDBRANCH  19  22
ENDBRANCH  17  18
ENDBRANCH   1  17
TORSDOF 4
ENDMDL
MODEL 2
REMARK VINA RESULT:      -9.5      3.334      6.978
REMARK  4 active torsions:
REMARK  status: ('A' for Active; 'I' for Inactive)
REMARK    1  A    between atoms: C_4  and  O_5 
REMARK    2  A    between atoms: C_6  and  N_7 
REMARK       I    between atoms: N_7  and  C_8 
REMARK    3  A    between atoms: C_8  and  C_9 
REMARK    4  A    between atoms: C_9  and  N_10 
ROOT
HETATM    1  N   UNL     1      -7.992   1.734 -33.122  1.00  0.00    -0.259 N 
HETATM    2  C   UNL     1      -7.955   1.347 -34.427  1.00  0.00     0.326 C 
HETATM    3  O   UNL     1      -6.976   1.043 -35.085  1.00  0.00    -0.247 OA
HETATM    4  N   UNL     1      -9.235   1.385 -34.930  1.00  0.00    -0.320 N 
HETATM    5  C   UNL     1     -10.148   1.993 -34.003  1.00  0.00     0.144 C 
HETATM    6  C   UNL     1     -11.470   1.298 -33.931  1.00  0.00    -0.014 A 
HETATM    7  C   UNL     1     -12.447   2.049 -34.604  1.00  0.00    -0.049 A 
HETATM    8  C   UNL     1     -13.750   1.599 -34.719  1.00  0.00     0.007 A 
HETATM    9  C   UNL     1     -14.079   0.372 -34.141  1.00  0.00     0.001 A 
HETATM   10  C   UNL     1     -13.105  -0.386 -33.474  1.00  0.00     0.001 A 
HETATM   11  C   UNL     1     -11.788   0.071 -33.371  1.00  0.00     0.011 A 
HETATM   12  C   UNL     1     -11.866   3.298 -35.192  1.00  0.00     0.042 C 
HETATM   13  C   UNL     1     -10.546   3.424 -34.419  1.00  0.00     0.051 C 
HETATM   14  C   UNL     1      -9.274   2.032 -32.748  1.00  0.00     0.261 C 
HETATM   15  O   UNL     1      -9.610   2.331 -31.608  1.00  0.00    -0.270 OA
HETATM   16  H   UNL     1      -9.428   1.179 -35.901  1.00  0.00     0.165 HD
ENDROOT
BRANCH   1  17
HETATM   17  C   UNL     1      -6.821   1.963 -32.306  1.00  0.00     0.240 C 
BRANCH  17  18
HETATM   18  C   UNL     1      -6.059   0.695 -31.933  1.00  0.00     0.240 C 
HETATM   19  N   UNL     1      -5.237   0.211 -32.930  1.00  0.00    -0.323 N 
HETATM   20  H   UNL     1      -5.016   0.859 -33.688  1.00  0.00     0.169 HD
HETATM   21  O   UNL     1      -6.260   0.131 -30.859  1.00  0.00    -0.271 OA
BRANCH  19  22
HETATM   22  C   UNL     1      -4.645  -1.074 -33.038  1.00  0.00     0.068 A 
HETATM   23  C   UNL     1      -3.686  -1.634 -32.179  1.00  0.00     0.092 A 
HETATM   24  C   UNL     1      -3.250  -2.953 -32.352  1.00  0.00     0.045 A 
HETATM   25  C   UNL     1      -3.746  -3.746 -33.389  1.00  0.00    -0.059 A 
HETATM   26  C   UNL     1      -3.237  -5.143 -33.580  1.00  0.00     0.048 C 
HETATM   27  C   UNL     1      -4.680  -3.191 -34.266  1.00  0.00     0.009 A 
HETATM   28  C   UNL     1      -5.134  -1.879 -34.079  1.00  0.00     0.033 A 
BRANCH  23  29
HETATM   29  O   UNL     1      -3.133  -1.012 -31.097  1.00  0.00    -0.358 OA
HETATM   30  H   UNL     1      -2.348  -1.527 -30.815  1.00  0.00     0.218 HD
ENDBRANCH  23  29
ENDBRANCH  19  22
ENDBRANCH  17  18
ENDBRANCH   1  17
TORSDOF 4
ENDMDL
MODEL 3
REMARK VINA RESULT:      -9.4      3.110      6.703
REMARK  4 active torsions:
REMARK  status: ('A' for Active; 'I' for Inactive)
REMARK    1  A    between atoms: C_4  and  O_5 
REMARK    2  A    between atoms: C_6  and  N_7 
REMARK       I    between atoms: N_7  and  C_8 
REMARK    3  A    between atoms: C_8  and  C_9 
REMARK    4  A    between atoms: C_9  and  N_10 
ROOT
HETATM    1  N   UNL     1      -7.612   2.476 -31.912  1.00  0.00    -0.259 N 
HETATM    2  C   UNL     1      -8.623   2.767 -31.047  1.00  0.00     0.326 C 
HETATM    3  O   UNL     1      -8.528   3.147 -29.893  1.00  0.00    -0.247 OA
HETATM    4  N   UNL     1      -9.820   2.527 -31.680  1.00  0.00    -0.320 N 
HETATM    5  C   UNL     1      -9.627   1.875 -32.946  1.00  0.00     0.144 C 
HETATM    6  C   UNL     1     -10.523   2.397 -34.023  1.00  0.00    -0.014 A 
HETATM    7  C   UNL     1     -11.553   1.478 -34.280  1.00  0.00    -0.049 A 
HETATM    8  C   UNL     1     -12.543   1.746 -35.209  1.00  0.00     0.007 A 
HETATM    9  C   UNL     1     -12.493   2.958 -35.897  1.00  0.00     0.001 A 
HETATM   10  C   UNL     1     -11.471   3.883 -35.639  1.00  0.00     0.001 A 
HETATM   11  C   UNL     1     -10.479   3.610 -34.692  1.00  0.00     0.011 A 
HETATM   12  C   UNL     1     -11.446   0.275 -33.394  1.00  0.00     0.042 C 
HETATM   13  C   UNL     1      -9.996   0.378 -32.900  1.00  0.00     0.051 C 
HETATM   14  C   UNL     1      -8.115   2.043 -33.108  1.00  0.00     0.261 C 
HETATM   15  O   UNL     1      -7.434   1.787 -34.094  1.00  0.00    -0.270 OA
HETATM   16  H   UNL     1     -10.704   2.634 -31.199  1.00  0.00     0.165 HD
ENDROOT
BRANCH   1  17
HETATM   17  C   UNL     1      -6.211   2.461 -31.553  1.00  0.00     0.240 C 
BRANCH  17  18
HETATM   18  C   UNL     1      -5.621   1.065 -31.383  1.00  0.00     0.240 C 
HETATM   19  N   UNL     1      -4.887   0.622 -32.464  1.00  0.00    -0.323 N 
HETATM   20  H   UNL     1      -4.592   1.335 -33.132  1.00  0.00     0.169 HD
HETATM   21  O   UNL     1      -5.881   0.387 -30.390  1.00  0.00    -0.271 OA
BRANCH  19  22
HETATM   22  C   UNL     1      -4.475  -0.702 -32.765  1.00  0.00     0.068 A 
HETATM   23  C   UNL     1      -3.498  -1.454 -32.094  1.00  0.00     0.092 A 
HETATM   24  C   UNL     1      -3.251  -2.787 -32.443  1.00  0.00     0.045 A 
HETATM   25  C   UNL     1      -3.961  -3.405 -33.475  1.00  0.00    -0.059 A 
HETATM   26  C   UNL     1      -3.655  -4.821 -33.859  1.00  0.00     0.048 C 
HETATM   27  C   UNL     1      -4.916  -2.659 -34.168  1.00  0.00     0.009 A 
HETATM   28  C   UNL     1      -5.180  -1.332 -33.804  1.00  0.00     0.033 A 
BRANCH  23  29
HETATM   29  O   UNL     1      -2.748  -1.016 -31.040  1.00  0.00    -0.358 OA
HETATM   30  H   UNL     1      -1.969  -1.604 -30.953  1.00  0.00     0.218 HD
ENDBRANCH  23  29
ENDBRANCH  19  22
ENDBRANCH  17  18
ENDBRANCH   1  17
TORSDOF 4
ENDMDL
MODEL 4
REMARK VINA RESULT:      -9.3      3.123      6.029
REMARK  4 active torsions:
REMARK  status: ('A' for Active; 'I' for Inactive)
REMARK    1  A    between atoms: C_4  and  O_5 
REMARK    2  A    between atoms: C_6  and  N_7 
REMARK       I    between atoms: N_7  and  C_8 
REMARK    3  A    between atoms: C_8  and  C_9 
REMARK    4  A    between atoms: C_9  and  N_10 
ROOT
HETATM    1  N   UNL     1      -7.096   1.877 -32.850  1.00  0.00    -0.259 N 
HETATM    2  C   UNL     1      -7.077   1.216 -31.659  1.00  0.00     0.326 C 
HETATM    3  O   UNL     1      -7.527   1.595 -30.592  1.00  0.00    -0.247 OA
HETATM    4  N   UNL     1      -6.417   0.022 -31.833  1.00  0.00    -0.320 N 
HETATM    5  C   UNL     1      -5.802  -0.058 -33.128  1.00  0.00     0.144 C 
HETATM    6  C   UNL     1      -5.937  -1.403 -33.766  1.00  0.00    -0.014 A 
HETATM    7  C   UNL     1      -4.714  -2.090 -33.703  1.00  0.00    -0.049 A 
HETATM    8  C   UNL     1      -4.586  -3.380 -34.188  1.00  0.00     0.007 A 
HETATM    9  C   UNL     1      -5.707  -3.988 -34.753  1.00  0.00     0.001 A 
HETATM   10  C   UNL     1      -6.933  -3.309 -34.812  1.00  0.00     0.001 A 
HETATM   11  C   UNL     1      -7.057  -2.009 -34.311  1.00  0.00     0.011 A 
HETATM   12  C   UNL     1      -3.665  -1.277 -33.010  1.00  0.00     0.042 C 
HETATM   13  C   UNL     1      -4.273   0.132 -33.067  1.00  0.00     0.051 C 
HETATM   14  C   UNL     1      -6.457   1.144 -33.813  1.00  0.00     0.261 C 
HETATM   15  O   UNL     1      -6.392   1.461 -34.995  1.00  0.00    -0.270 OA
HETATM   16  H   UNL     1      -6.248  -0.607 -31.058  1.00  0.00     0.165 HD
ENDROOT
BRANCH   1  17
HETATM   17  C   UNL     1      -7.570   3.232 -33.024  1.00  0.00     0.240 C 
BRANCH  17  18
HETATM   18  C   UNL     1      -9.027   3.335 -33.461  1.00  0.00     0.240 C 
HETATM   19  N   UNL     1      -9.887   2.502 -32.774  1.00  0.00    -0.323 N 
HETATM   20  H   UNL     1      -9.536   2.112 -31.899  1.00  0.00     0.169 HD
HETATM   21  O   UNL     1      -9.352   4.043 -34.412  1.00  0.00    -0.271 OA
BRANCH  19  22
HETATM   22  C   UNL     1     -11.210   2.123 -33.121  1.00  0.00     0.068 A 
HETATM   23  C   UNL     1     -12.307   2.976 -33.319  1.00  0.00     0.092 A 
HETATM   24  C   UNL     1     -13.541   2.473 -33.747  1.00  0.00     0.045 A 
HETATM   25  C   UNL     1     -13.721   1.107 -33.977  1.00  0.00    -0.059 A 
HETATM   26  C   UNL     1     -15.062   0.583 -34.398  1.00  0.00     0.048 C 
HETATM   27  C   UNL     1     -12.646   0.245 -33.757  1.00  0.00     0.009 A 
HETATM   28  C   UNL     1     -11.403   0.751 -33.352  1.00  0.00     0.033 A 
BRANCH  23  29
HETATM   29  O   UNL     1     -12.288   4.335 -33.179  1.00  0.00    -0.358 OA
HETATM   30  H   UNL     1     -12.777   4.565 -32.362  1.00  0.00     0.218 HD
ENDBRANCH  23  29
ENDBRANCH  19  22
ENDBRANCH  17  18
ENDBRANCH   1  17
TORSDOF 4
ENDMDL
MODEL 5
REMARK VINA RESULT:      -9.1      1.480      1.705
REMARK  4 active torsions:
REMARK  status: ('A' for Active; 'I' for Inactive)
REMARK    1  A    between atoms: C_4  and  O_5 
REMARK    2  A    between atoms: C_6  and  N_7 
REMARK       I    between atoms: N_7  and  C_8 
REMARK    3  A    between atoms: C_8  and  C_9 
REMARK    4  A    between atoms: C_9  and  N_10 
ROOT
HETATM    1  N   UNL     1      -6.553   2.662 -32.214  1.00  0.00    -0.259 N 
HETATM    2  C   UNL     1      -6.501   1.909 -31.081  1.00  0.00     0.326 C 
HETATM    3  O   UNL     1      -6.852   2.229 -29.959  1.00  0.00    -0.247 OA
HETATM    4  N   UNL     1      -5.940   0.692 -31.391  1.00  0.00    -0.320 N 
HETATM    5  C   UNL     1      -5.419   0.677 -32.730  1.00  0.00     0.144 C 
HETATM    6  C   UNL     1      -5.690  -0.602 -33.456  1.00  0.00    -0.014 A 
HETATM    7  C   UNL     1      -4.517  -1.370 -33.533  1.00  0.00    -0.049 A 
HETATM    8  C   UNL     1      -4.513  -2.622 -34.121  1.00  0.00     0.007 A 
HETATM    9  C   UNL     1      -5.709  -3.109 -34.648  1.00  0.00     0.001 A 
HETATM   10  C   UNL     1      -6.885  -2.349 -34.568  1.00  0.00     0.001 A 
HETATM   11  C   UNL     1      -6.884  -1.089 -33.963  1.00  0.00     0.011 A 
HETATM   12  C   UNL     1      -3.370  -0.684 -32.857  1.00  0.00     0.042 C 
HETATM   13  C   UNL     1      -3.880   0.761 -32.764  1.00  0.00     0.051 C 
HETATM   14  C   UNL     1      -6.032   1.969 -33.273  1.00  0.00     0.261 C 
HETATM   15  O   UNL     1      -6.024   2.375 -34.429  1.00  0.00    -0.270 OA
HETATM   16  H   UNL     1      -5.764  -0.006 -30.680  1.00  0.00     0.165 HD
ENDROOT
BRANCH   1  17
HETATM   17  C   UNL     1      -6.941   4.055 -32.251  1.00  0.00     0.240 C 
BRANCH  17  18
HETATM   18  C   UNL     1      -5.792   5.032 -32.025  1.00  0.00     0.240 C 
HETATM   19  N   UNL     1      -4.649   4.742 -32.743  1.00  0.00    -0.323 N 
HETATM   20  H   UNL     1      -4.758   4.095 -33.524  1.00  0.00     0.169 HD
HETATM   21  O   UNL     1      -5.885   5.933 -31.194  1.00  0.00    -0.271 OA
BRANCH  19  22
HETATM   22  C   UNL     1      -3.335   5.239 -32.544  1.00  0.00     0.068 A 
HETATM   23  C   UNL     1      -2.603   6.059 -33.417  1.00  0.00     0.092 A 
HETATM   24  C   UNL     1      -1.343   6.551 -33.055  1.00  0.00     0.045 A 
HETATM   25  C   UNL     1      -0.773   6.232 -31.820  1.00  0.00    -0.059 A 
HETATM   26  C   UNL     1       0.593   6.737 -31.467  1.00  0.00     0.048 C 
HETATM   27  C   UNL     1      -1.480   5.396 -30.954  1.00  0.00     0.009 A 
HETATM   28  C   UNL     1      -2.750   4.922 -31.307  1.00  0.00     0.033 A 
BRANCH  23  29
HETATM   29  O   UNL     1      -3.031   6.497 -34.638  1.00  0.00    -0.358 OA
HETATM   30  H   UNL     1      -2.542   6.004 -35.329  1.00  0.00     0.218 HD
ENDBRANCH  23  29
ENDBRANCH  19  22
ENDBRANCH  17  18
ENDBRANCH   1  17
TORSDOF 4
ENDMDL
MODEL 6
REMARK VINA RESULT:      -9.1      1.850      7.801
REMARK  4 active torsions:
REMARK  status: ('A' for Active; 'I' for Inactive)
REMARK    1  A    between atoms: C_4  and  O_5 
REMARK    2  A    between atoms: C_6  and  N_7 
REMARK       I    between atoms: N_7  and  C_8 
REMARK    3  A    between atoms: C_8  and  C_9 
REMARK    4  A    between atoms: C_9  and  N_10 
ROOT
HETATM    1  N   UNL     1      -5.309   4.286 -32.086  1.00  0.00    -0.259 N 
HETATM    2  C   UNL     1      -5.442   5.485 -32.717  1.00  0.00     0.326 C 
HETATM    3  O   UNL     1      -6.460   5.977 -33.172  1.00  0.00    -0.247 OA
HETATM    4  N   UNL     1      -4.202   6.074 -32.803  1.00  0.00    -0.320 N 
HETATM    5  C   UNL     1      -3.161   5.174 -32.390  1.00  0.00     0.144 C 
HETATM    6  C   UNL     1      -2.103   5.832 -31.564  1.00  0.00    -0.014 A 
HETATM    7  C   UNL     1      -0.941   6.018 -32.330  1.00  0.00    -0.049 A 
HETATM    8  C   UNL     1       0.174   6.648 -31.806  1.00  0.00     0.007 A 
HETATM    9  C   UNL     1       0.122   7.094 -30.485  1.00  0.00     0.001 A 
HETATM   10  C   UNL     1      -1.039   6.917 -29.718  1.00  0.00     0.001 A 
HETATM   11  C   UNL     1      -2.165   6.288 -30.257  1.00  0.00     0.011 A 
HETATM   12  C   UNL     1      -1.123   5.518 -33.729  1.00  0.00     0.042 C 
HETATM   13  C   UNL     1      -2.357   4.616 -33.582  1.00  0.00     0.051 C 
HETATM   14  C   UNL     1      -4.000   4.064 -31.753  1.00  0.00     0.261 C 
HETATM   15  O   UNL     1      -3.604   3.100 -31.108  1.00  0.00    -0.270 OA
HETATM   16  H   UNL     1      -4.067   6.955 -33.280  1.00  0.00     0.165 HD
ENDROOT
BRANCH   1  17
HETATM   17  C   UNL     1      -6.371   3.314 -31.947  1.00  0.00     0.240 C 
BRANCH  17  18
HETATM   18  C   UNL     1      -6.390   2.246 -33.035  1.00  0.00     0.240 C 
HETATM   19  N   UNL     1      -6.450   0.952 -32.561  1.00  0.00    -0.323 N 
HETATM   20  H   UNL     1      -6.736   0.840 -31.587  1.00  0.00     0.169 HD
HETATM   21  O   UNL     1      -6.264   2.550 -34.220  1.00  0.00    -0.271 OA
BRANCH  19  22
HETATM   22  C   UNL     1      -6.177  -0.255 -33.255  1.00  0.00     0.068 A 
HETATM   23  C   UNL     1      -4.916  -0.829 -33.484  1.00  0.00     0.092 A 
HETATM   24  C   UNL     1      -4.796  -2.075 -34.111  1.00  0.00     0.045 A 
HETATM   25  C   UNL     1      -5.925  -2.778 -34.537  1.00  0.00    -0.059 A 
HETATM   26  C   UNL     1      -5.773  -4.094 -35.241  1.00  0.00     0.048 C 
HETATM   27  C   UNL     1      -7.183  -2.206 -34.340  1.00  0.00     0.009 A 
HETATM   28  C   UNL     1      -7.305  -0.970 -33.692  1.00  0.00     0.033 A 
BRANCH  23  29
HETATM   29  O   UNL     1      -3.721  -0.295 -33.095  1.00  0.00    -0.358 OA
HETATM   30  H   UNL     1      -3.225  -0.034 -33.899  1.00  0.00     0.218 HD
ENDBRANCH  23  29
ENDBRANCH  19  22
ENDBRANCH  17  18
ENDBRANCH   1  17
TORSDOF 4
ENDMDL
MODEL 7
REMARK VINA RESULT:      -9.1      1.788      7.585
REMARK  4 active torsions:
REMARK  status: ('A' for Active; 'I' for Inactive)
REMARK    1  A    between atoms: C_4  and  O_5 
REMARK    2  A    between atoms: C_6  and  N_7 
REMARK       I    between atoms: N_7  and  C_8 
REMARK    3  A    between atoms: C_8  and  C_9 
REMARK    4  A    between atoms: C_9  and  N_10 
ROOT
HETATM    1  N   UNL     1      -5.942   3.419 -31.830  1.00  0.00    -0.259 N 
HETATM    2  C   UNL     1      -5.174   3.443 -30.706  1.00  0.00     0.326 C 
HETATM    3  O   UNL     1      -5.276   2.734 -29.720  1.00  0.00    -0.247 OA
HETATM    4  N   UNL     1      -4.247   4.452 -30.832  1.00  0.00    -0.320 N 
HETATM    5  C   UNL     1      -4.504   5.263 -31.989  1.00  0.00     0.144 C 
HETATM    6  C   UNL     1      -3.264   5.645 -32.732  1.00  0.00    -0.014 A 
HETATM    7  C   UNL     1      -2.951   6.992 -32.484  1.00  0.00    -0.049 A 
HETATM    8  C   UNL     1      -1.820   7.579 -33.023  1.00  0.00     0.007 A 
HETATM    9  C   UNL     1      -0.992   6.800 -33.831  1.00  0.00     0.001 A 
HETATM   10  C   UNL     1      -1.296   5.453 -34.076  1.00  0.00     0.001 A 
HETATM   11  C   UNL     1      -2.436   4.864 -33.520  1.00  0.00     0.011 A 
HETATM   12  C   UNL     1      -3.938   7.620 -31.550  1.00  0.00     0.042 C 
HETATM   13  C   UNL     1      -5.112   6.633 -31.625  1.00  0.00     0.051 C 
HETATM   14  C   UNL     1      -5.544   4.396 -32.702  1.00  0.00     0.261 C 
HETATM   15  O   UNL     1      -6.008   4.552 -33.825  1.00  0.00    -0.270 OA
HETATM   16  H   UNL     1      -3.603   4.675 -30.084  1.00  0.00     0.165 HD
ENDROOT
BRANCH   1  17
HETATM   17  C   UNL     1      -7.117   2.593 -31.998  1.00  0.00     0.240 C 
BRANCH  17  18
HETATM   18  C   UNL     1      -6.828   1.097 -32.070  1.00  0.00     0.240 C 
HETATM   19  N   UNL     1      -6.090   0.713 -33.171  1.00  0.00    -0.323 N 
HETATM   20  H   UNL     1      -5.598   1.457 -33.667  1.00  0.00     0.169 HD
HETATM   21  O   UNL     1      -7.310   0.321 -31.247  1.00  0.00    -0.271 OA
BRANCH  19  22
HETATM   22  C   UNL     1      -5.913  -0.591 -33.701  1.00  0.00     0.068 A 
HETATM   23  C   UNL     1      -4.720  -1.331 -33.738  1.00  0.00     0.092 A 
HETATM   24  C   UNL     1      -4.706  -2.648 -34.212  1.00  0.00     0.045 A 
HETATM   25  C   UNL     1      -5.874  -3.261 -34.673  1.00  0.00    -0.059 A 
HETATM   26  C   UNL     1      -5.830  -4.659 -35.213  1.00  0.00     0.048 C 
HETATM   27  C   UNL     1      -7.061  -2.526 -34.666  1.00  0.00     0.009 A 
HETATM   28  C   UNL     1      -7.080  -1.216 -34.170  1.00  0.00     0.033 A 
BRANCH  23  29
HETATM   29  O   UNL     1      -3.506  -0.898 -33.289  1.00  0.00    -0.358 OA
HETATM   30  H   UNL     1      -3.325  -1.331 -32.429  1.00  0.00     0.218 HD
ENDBRANCH  23  29
ENDBRANCH  19  22
ENDBRANCH  17  18
ENDBRANCH   1  17
TORSDOF 4
ENDMDL
MODEL 8
REMARK VINA RESULT:      -9.0      3.361      4.736
REMARK  4 active torsions:
REMARK  status: ('A' for Active; 'I' for Inactive)
REMARK    1  A    between atoms: C_4  and  O_5 
REMARK    2  A    between atoms: C_6  and  N_7 
REMARK       I    between atoms: N_7  and  C_8 
REMARK    3  A    between atoms: C_8  and  C_9 
REMARK    4  A    between atoms: C_9  and  N_10 
ROOT
HETATM    1  N   UNL     1      -4.883   4.433 -31.635  1.00  0.00    -0.259 N 
HETATM    2  C   UNL     1      -5.428   3.682 -30.638  1.00  0.00     0.326 C 
HETATM    3  O   UNL     1      -5.703   4.037 -29.505  1.00  0.00    -0.247 OA
HETATM    4  N   UNL     1      -5.599   2.398 -31.101  1.00  0.00    -0.320 N 
HETATM    5  C   UNL     1      -4.983   2.215 -32.386  1.00  0.00     0.144 C 
HETATM    6  C   UNL     1      -5.808   1.396 -33.327  1.00  0.00    -0.014 A 
HETATM    7  C   UNL     1      -5.264   0.107 -33.446  1.00  0.00    -0.049 A 
HETATM    8  C   UNL     1      -5.868  -0.861 -34.228  1.00  0.00     0.007 A 
HETATM    9  C   UNL     1      -7.039  -0.525 -34.908  1.00  0.00     0.001 A 
HETATM   10  C   UNL     1      -7.592   0.759 -34.786  1.00  0.00     0.001 A 
HETATM   11  C   UNL     1      -6.980   1.728 -33.986  1.00  0.00     0.011 A 
HETATM   12  C   UNL     1      -4.044  -0.053 -32.592  1.00  0.00     0.042 C 
HETATM   13  C   UNL     1      -3.672   1.408 -32.301  1.00  0.00     0.051 C 
HETATM   14  C   UNL     1      -4.686   3.670 -32.754  1.00  0.00     0.261 C 
HETATM   15  O   UNL     1      -4.282   4.106 -33.826  1.00  0.00    -0.270 OA
HETATM   16  H   UNL     1      -5.949   1.662 -30.503  1.00  0.00     0.165 HD
ENDROOT
BRANCH   1  17
HETATM   17  C   UNL     1      -4.421   5.793 -31.473  1.00  0.00     0.240 C 
BRANCH  17  18
HETATM   18  C   UNL     1      -2.964   5.913 -31.039  1.00  0.00     0.240 C 
HETATM   19  N   UNL     1      -2.790   6.374 -29.750  1.00  0.00    -0.323 N 
HETATM   20  H   UNL     1      -3.609   6.336 -29.142  1.00  0.00     0.169 HD
HETATM   21  O   UNL     1      -2.050   5.699 -31.833  1.00  0.00    -0.271 OA
BRANCH  19  22
HETATM   22  C   UNL     1      -1.611   6.886 -29.149  1.00  0.00     0.068 A 
HETATM   23  C   UNL     1      -0.374   6.233 -29.028  1.00  0.00     0.092 A 
HETATM   24  C   UNL     1       0.737   6.892 -28.489  1.00  0.00     0.045 A 
HETATM   25  C   UNL     1       0.645   8.213 -28.045  1.00  0.00    -0.059 A 
HETATM   26  C   UNL     1       1.837   8.888 -27.435  1.00  0.00     0.048 C 
HETATM   27  C   UNL     1      -0.586   8.865 -28.134  1.00  0.00     0.009 A 
HETATM   28  C   UNL     1      -1.693   8.214 -28.696  1.00  0.00     0.033 A 
BRANCH  23  29
HETATM   29  O   UNL     1      -0.106   4.963 -29.450  1.00  0.00    -0.358 OA
HETATM   30  H   UNL     1       0.429   5.018 -30.269  1.00  0.00     0.218 HD
ENDBRANCH  23  29
ENDBRANCH  19  22
ENDBRANCH  17  18
ENDBRANCH   1  17
TORSDOF 4
ENDMDL
MODEL 9
REMARK VINA RESULT:      -9.0      1.989      3.363
REMARK  4 active torsions:
REMARK  status: ('A' for Active; 'I' for Inactive)
REMARK    1  A    between atoms: C_4  and  O_5 
REMARK    2  A    between atoms: C_6  and  N_7 
REMARK       I    between atoms: N_7  and  C_8 
REMARK    3  A    between atoms: C_8  and  C_9 
REMARK    4  A    between atoms: C_9  and  N_10 
ROOT
HETATM    1  N   UNL     1      -6.611   3.318 -32.534  1.00  0.00    -0.259 N 
HETATM    2  C   UNL     1      -6.212   3.550 -33.815  1.00  0.00     0.326 C 
HETATM    3  O   UNL     1      -5.956   4.623 -34.331  1.00  0.00    -0.247 OA
HETATM    4  N   UNL     1      -6.173   2.348 -34.484  1.00  0.00    -0.320 N 
HETATM    5  C   UNL     1      -6.739   1.288 -33.698  1.00  0.00     0.144 C 
HETATM    6  C   UNL     1      -5.971   0.008 -33.789  1.00  0.00    -0.014 A 
HETATM    7  C   UNL     1      -6.659  -0.909 -34.599  1.00  0.00    -0.049 A 
HETATM    8  C   UNL     1      -6.136  -2.159 -34.878  1.00  0.00     0.007 A 
HETATM    9  C   UNL     1      -4.899  -2.495 -34.327  1.00  0.00     0.001 A 
HETATM   10  C   UNL     1      -4.204  -1.580 -33.522  1.00  0.00     0.001 A 
HETATM   11  C   UNL     1      -4.735  -0.316 -33.253  1.00  0.00     0.011 A 
HETATM   12  C   UNL     1      -7.932  -0.324 -35.129  1.00  0.00     0.042 C 
HETATM   13  C   UNL     1      -8.141   0.873 -34.190  1.00  0.00     0.051 C 
HETATM   14  C   UNL     1      -6.841   1.983 -32.339  1.00  0.00     0.261 C 
HETATM   15  O   UNL     1      -7.133   1.482 -31.259  1.00  0.00    -0.270 OA
HETATM   16  H   UNL     1      -5.945   2.298 -35.468  1.00  0.00     0.165 HD
ENDROOT
BRANCH   1  17
HETATM   17  C   UNL     1      -6.914   4.356 -31.573  1.00  0.00     0.240 C 
BRANCH  17  18
HETATM   18  C   UNL     1      -5.720   4.807 -30.739  1.00  0.00     0.240 C 
HETATM   19  N   UNL     1      -4.747   5.476 -31.454  1.00  0.00    -0.323 N 
HETATM   20  H   UNL     1      -5.023   5.830 -32.371  1.00  0.00     0.169 HD
HETATM   21  O   UNL     1      -5.625   4.497 -29.553  1.00  0.00    -0.271 OA
BRANCH  19  22
HETATM   22  C   UNL     1      -3.408   5.750 -31.075  1.00  0.00     0.068 A 
HETATM   23  C   UNL     1      -2.276   4.967 -31.352  1.00  0.00     0.092 A 
HETATM   24  C   UNL     1      -0.995   5.403 -30.994  1.00  0.00     0.045 A 
HETATM   25  C   UNL     1      -0.805   6.623 -30.340  1.00  0.00    -0.059 A 
HETATM   26  C   UNL     1       0.571   7.053 -29.930  1.00  0.00     0.048 C 
HETATM   27  C   UNL     1      -1.925   7.398 -30.034  1.00  0.00     0.009 A 
HETATM   28  C   UNL     1      -3.206   6.973 -30.414  1.00  0.00     0.033 A 
BRANCH  23  29
HETATM   29  O   UNL     1      -2.282   3.776 -32.019  1.00  0.00    -0.358 OA
HETATM   30  H   UNL     1      -3.207   3.570 -32.270  1.00  0.00     0.218 HD
ENDBRANCH  23  29
ENDBRANCH  19  22
ENDBRANCH  17  18
ENDBRANCH   1  17
TORSDOF 4
ENDMDL
MODEL 10
REMARK VINA RESULT:      -8.9      3.446      8.914
REMARK  4 active torsions:
REMARK  status: ('A' for Active; 'I' for Inactive)
REMARK    1  A    between atoms: C_4  and  O_5 
REMARK    2  A    between atoms: C_6  and  N_7 
REMARK       I    between atoms: N_7  and  C_8 
REMARK    3  A    between atoms: C_8  and  C_9 
REMARK    4  A    between atoms: C_9  and  N_10 
ROOT
HETATM    1  N   UNL     1      -2.871   7.002 -32.114  1.00  0.00    -0.259 N 
HETATM    2  C   UNL     1      -1.725   7.419 -32.721  1.00  0.00     0.326 C 
HETATM    3  O   UNL     1      -1.577   7.744 -33.886  1.00  0.00    -0.247 OA
HETATM    4  N   UNL     1      -0.705   7.385 -31.798  1.00  0.00    -0.320 N 
HETATM    5  C   UNL     1      -1.119   6.751 -30.577  1.00  0.00     0.144 C 
HETATM    6  C   UNL     1      -0.608   7.438 -29.351  1.00  0.00    -0.014 A 
HETATM    7  C   UNL     1       0.442   6.697 -28.786  1.00  0.00    -0.049 A 
HETATM    8  C   UNL     1       1.117   7.143 -27.663  1.00  0.00     0.007 A 
HETATM    9  C   UNL     1       0.723   8.354 -27.094  1.00  0.00     0.001 A 
HETATM   10  C   UNL     1      -0.320   9.102 -27.658  1.00  0.00     0.001 A 
HETATM   11  C   UNL     1      -0.990   8.650 -28.799  1.00  0.00     0.011 A 
HETATM   12  C   UNL     1       0.734   5.465 -29.587  1.00  0.00     0.042 C 
HETATM   13  C   UNL     1      -0.543   5.328 -30.428  1.00  0.00     0.051 C 
HETATM   14  C   UNL     1      -2.630   6.689 -30.803  1.00  0.00     0.261 C 
HETATM   15  O   UNL     1      -3.496   6.362 -30.000  1.00  0.00    -0.270 OA
HETATM   16  H   UNL     1       0.247   7.613 -32.054  1.00  0.00     0.165 HD
ENDROOT
BRANCH   1  17
HETATM   17  C   UNL     1      -4.118   6.761 -32.804  1.00  0.00     0.240 C 
BRANCH  17  18
HETATM   18  C   UNL     1      -4.265   5.349 -33.359  1.00  0.00     0.240 C 
HETATM   19  N   UNL     1      -4.723   4.423 -32.444  1.00  0.00    -0.323 N 
HETATM   20  H   UNL     1      -5.158   4.798 -31.600  1.00  0.00     0.169 HD
HETATM   21  O   UNL     1      -3.905   5.080 -34.503  1.00  0.00    -0.271 OA
BRANCH  19  22
HETATM   22  C   UNL     1      -4.680   3.007 -32.526  1.00  0.00     0.068 A 
HETATM   23  C   UNL     1      -3.759   2.153 -31.898  1.00  0.00     0.092 A 
HETATM   24  C   UNL     1      -3.887   0.763 -31.994  1.00  0.00     0.045 A 
HETATM   25  C   UNL     1      -4.925   0.183 -32.726  1.00  0.00    -0.059 A 
HETATM   26  C   UNL     1      -5.021  -1.308 -32.848  1.00  0.00     0.048 C 
HETATM   27  C   UNL     1      -5.832   1.021 -33.377  1.00  0.00     0.009 A 
HETATM   28  C   UNL     1      -5.719   2.413 -33.263  1.00  0.00     0.033 A 
BRANCH  23  29
HETATM   29  O   UNL     1      -2.716   2.555 -31.114  1.00  0.00    -0.358 OA
HETATM   30  H   UNL     1      -2.016   1.870 -31.161  1.00  0.00     0.218 HD
ENDBRANCH  23  29
ENDBRANCH  19  22
ENDBRANCH  17  18
ENDBRANCH   1  17
TORSDOF 4
ENDMDL
