MODEL 1
REMARK VINA RESULT:      -9.2      0.000      0.000
REMARK  6 active torsions:
REMARK  status: ('A' for Active; 'I' for Inactive)
REMARK    1  A    between atoms: C_4  and  N_5 
REMARK    2  A    between atoms: C_7  and  C_8 
REMARK       I    between atoms: C_8  and  N_9 
REMARK    3  A    between atoms: N_9  and  N_10 
REMARK       I    between atoms: N_10  and  C_11 
REMARK    4  A    between atoms: C_11  and  C_12 
REMARK    5  A    between atoms: C_12  and  C_13 
REMARK    6  A    between atoms: C_22  and  O_23 
ROOT
HETATM    1  C   UNL     1      -4.204   1.904 -32.055  1.00  0.00     0.293 C 
HETATM    2  N   UNL     1      -3.343   2.454 -31.129  1.00  0.00    -0.262 N 
HETATM    3  O   UNL     1      -5.052   2.555 -32.663  1.00  0.00    -0.264 OA
HETATM    4  H   UNL     1      -2.613   1.885 -30.696  1.00  0.00     0.190 HD
ENDROOT
BRANCH   1   5
HETATM    5  C   UNL     1      -4.020   0.467 -32.259  1.00  0.00     0.181 A 
HETATM    6  N   UNL     1      -4.801  -0.259 -33.080  1.00  0.00    -0.159 NA
HETATM    7  N   UNL     1      -4.317  -1.535 -32.992  1.00  0.00    -0.242 N 
HETATM    8  C   UNL     1      -3.247  -1.612 -32.127  1.00  0.00     0.158 A 
HETATM    9  C   UNL     1      -3.045  -0.348 -31.654  1.00  0.00     0.119 A 
BRANCH   7  10
HETATM   10  C   UNL     1      -4.912  -2.591 -33.742  1.00  0.00     0.058 A 
HETATM   11  C   UNL     1      -4.244  -3.820 -33.856  1.00  0.00     0.031 A 
HETATM   12  C   UNL     1      -4.814  -4.866 -34.585  1.00  0.00     0.002 A 
HETATM   13  C   UNL     1      -6.049  -4.694 -35.206  1.00  0.00     0.000 A 
HETATM   14  C   UNL     1      -6.718  -3.476 -35.098  1.00  0.00     0.002 A 
HETATM   15  C   UNL     1      -6.155  -2.424 -34.369  1.00  0.00     0.031 A 
ENDBRANCH   7  10
BRANCH   9  16
HETATM   16  O   UNL     1      -2.078  -0.024 -30.781  1.00  0.00    -0.357 OA
HETATM   17  H   UNL     1      -2.441  -0.013 -29.872  1.00  0.00     0.218 HD
ENDBRANCH   9  16
ENDBRANCH   1   5
BRANCH   2  18
HETATM   18  N   UNL     1      -3.362   3.828 -30.881  1.00  0.00    -0.267 N 
HETATM   19  C   UNL     1      -2.479   4.626 -31.582  1.00  0.00     0.240 C 
HETATM   20  O   UNL     1      -1.639   4.167 -32.354  1.00  0.00    -0.272 OA
HETATM   21  H   UNL     1      -4.181   4.198 -30.400  1.00  0.00     0.190 HD
BRANCH  19  22
HETATM   22  C   UNL     1      -2.635   6.110 -31.316  1.00  0.00     0.143 C 
BRANCH  22  23
HETATM   23  C   UNL     1      -1.594   6.740 -30.416  1.00  0.00    -0.049 A 
HETATM   24  C   UNL     1      -0.229   6.795 -30.731  1.00  0.00     0.009 A 
HETATM   25  C   UNL     1       0.686   7.372 -29.844  1.00  0.00     0.019 A 
HETATM   26  C   UNL     1       0.243   7.893 -28.631  1.00  0.00     0.011 A 
HETATM   27 BR   UNL     1       1.482   8.663 -27.429  1.00  0.00    -0.051 Br
HETATM   28  C   UNL     1      -1.106   7.843 -28.295  1.00  0.00     0.019 A 
HETATM   29  C   UNL     1      -2.018   7.269 -29.184  1.00  0.00     0.009 A 
ENDBRANCH  22  23
ENDBRANCH  19  22
ENDBRANCH   2  18
TORSDOF 6
ENDMDL
MODEL 2
REMARK VINA RESULT:      -9.0      1.741      2.223
REMARK  6 active torsions:
REMARK  status: ('A' for Active; 'I' for Inactive)
REMARK    1  A    between atoms: C_4  and  N_5 
REMARK    2  A    between atoms: C_7  and  C_8 
REMARK       I    between atoms: C_8  and  N_9 
REMARK    3  A    between atoms: N_9  and  N_10 
REMARK       I    between atoms: N_10  and  C_11 
REMARK    4  A    between atoms: C_11  and  C_12 
REMARK    5  A    between atoms: C_12  and  C_13 
REMARK    6  A    between atoms: C_22  and  O_23 
ROOT
HETATM    1  C   UNL     1      -4.528   3.135 -31.017  1.00  0.00     0.293 C 
HETATM    2  N   UNL     1      -3.165   3.163 -31.220  1.00  0.00    -0.262 N 
HETATM    3  O   UNL     1      -5.186   4.125 -30.697  1.00  0.00    -0.264 OA
HETATM    4  H   UNL     1      -2.671   2.330 -31.547  1.00  0.00     0.190 HD
ENDROOT
BRANCH   1   5
HETATM    5  C   UNL     1      -5.134   1.820 -31.219  1.00  0.00     0.181 A 
HETATM    6  N   UNL     1      -4.881   1.058 -32.299  1.00  0.00    -0.159 NA
HETATM    7  N   UNL     1      -5.629  -0.073 -32.119  1.00  0.00    -0.242 N 
HETATM    8  C   UNL     1      -6.344  -0.024 -30.942  1.00  0.00     0.158 A 
HETATM    9  C   UNL     1      -6.039   1.172 -30.358  1.00  0.00     0.119 A 
BRANCH   7  10
HETATM   10  C   UNL     1      -5.607  -1.120 -33.085  1.00  0.00     0.058 A 
HETATM   11  C   UNL     1      -6.800  -1.503 -33.717  1.00  0.00     0.031 A 
HETATM   12  C   UNL     1      -6.796  -2.526 -34.668  1.00  0.00     0.002 A 
HETATM   13  C   UNL     1      -5.607  -3.174 -34.993  1.00  0.00     0.000 A 
HETATM   14  C   UNL     1      -4.418  -2.801 -34.369  1.00  0.00     0.002 A 
HETATM   15  C   UNL     1      -4.413  -1.777 -33.417  1.00  0.00     0.031 A 
ENDBRANCH   7  10
BRANCH   9  16
HETATM   16  O   UNL     1      -6.547   1.578 -29.184  1.00  0.00    -0.357 OA
HETATM   17  H   UNL     1      -7.185   2.307 -29.331  1.00  0.00     0.218 HD
ENDBRANCH   9  16
ENDBRANCH   1   5
BRANCH   2  18
HETATM   18  N   UNL     1      -2.464   4.367 -31.125  1.00  0.00    -0.267 N 
HETATM   19  C   UNL     1      -1.897   4.880 -32.275  1.00  0.00     0.240 C 
HETATM   20  O   UNL     1      -1.926   4.286 -33.351  1.00  0.00    -0.272 OA
HETATM   21  H   UNL     1      -2.622   4.927 -30.288  1.00  0.00     0.190 HD
BRANCH  19  22
HETATM   22  C   UNL     1      -1.237   6.233 -32.094  1.00  0.00     0.143 C 
BRANCH  22  23
HETATM   23  C   UNL     1      -0.600   6.490 -30.746  1.00  0.00    -0.049 A 
HETATM   24  C   UNL     1       0.247   5.578 -30.102  1.00  0.00     0.009 A 
HETATM   25  C   UNL     1       0.785   5.868 -28.844  1.00  0.00     0.019 A 
HETATM   26  C   UNL     1       0.476   7.071 -28.217  1.00  0.00     0.011 A 
HETATM   27 BR   UNL     1       1.196   7.457 -26.512  1.00  0.00    -0.051 Br
HETATM   28  C   UNL     1      -0.369   7.989 -28.833  1.00  0.00     0.019 A 
HETATM   29  C   UNL     1      -0.904   7.698 -30.091  1.00  0.00     0.009 A 
ENDBRANCH  22  23
ENDBRANCH  19  22
ENDBRANCH   2  18
TORSDOF 6
ENDMDL
MODEL 3
REMARK VINA RESULT:      -8.6      1.670      2.633
REMARK  6 active torsions:
REMARK  status: ('A' for Active; 'I' for Inactive)
REMARK    1  A    between atoms: C_4  and  N_5 
REMARK    2  A    between atoms: C_7  and  C_8 
REMARK       I    between atoms: C_8  and  N_9 
REMARK    3  A    between atoms: N_9  and  N_10 
REMARK       I    between atoms: N_10  and  C_11 
REMARK    4  A    between atoms: C_11  and  C_12 
REMARK    5  A    between atoms: C_12  and  C_13 
REMARK    6  A    between atoms: C_22  and  O_23 
ROOT
HETATM    1  C   UNL     1      -3.318   2.883 -32.192  1.00  0.00     0.293 C 
HETATM    2  N   UNL     1      -3.198   3.869 -33.149  1.00  0.00    -0.262 N 
HETATM    3  O   UNL     1      -2.602   2.816 -31.194  1.00  0.00    -0.264 OA
HETATM    4  H   UNL     1      -3.857   3.919 -33.928  1.00  0.00     0.190 HD
ENDROOT
BRANCH   1   5
HETATM    5  C   UNL     1      -4.381   1.916 -32.464  1.00  0.00     0.181 A 
HETATM    6  N   UNL     1      -4.151   0.722 -33.041  1.00  0.00    -0.159 NA
HETATM    7  N   UNL     1      -5.379   0.125 -33.123  1.00  0.00    -0.242 N 
HETATM    8  C   UNL     1      -6.369   0.932 -32.607  1.00  0.00     0.158 A 
HETATM    9  C   UNL     1      -5.751   2.073 -32.182  1.00  0.00     0.119 A 
BRANCH   7  10
HETATM   10  C   UNL     1      -5.518  -1.174 -33.691  1.00  0.00     0.058 A 
HETATM   11  C   UNL     1      -6.793  -1.638 -34.053  1.00  0.00     0.031 A 
HETATM   12  C   UNL     1      -6.947  -2.908 -34.613  1.00  0.00     0.002 A 
HETATM   13  C   UNL     1      -5.837  -3.725 -34.811  1.00  0.00     0.000 A 
HETATM   14  C   UNL     1      -4.568  -3.273 -34.452  1.00  0.00     0.002 A 
HETATM   15  C   UNL     1      -4.404  -2.002 -33.893  1.00  0.00     0.031 A 
ENDBRANCH   7  10
BRANCH   9  16
HETATM   16  O   UNL     1      -6.397   3.103 -31.613  1.00  0.00    -0.357 OA
HETATM   17  H   UNL     1      -6.556   2.913 -30.665  1.00  0.00     0.218 HD
ENDBRANCH   9  16
ENDBRANCH   1   5
BRANCH   2  18
HETATM   18  N   UNL     1      -2.268   4.897 -32.985  1.00  0.00    -0.267 N 
HETATM   19  C   UNL     1      -2.411   6.030 -33.762  1.00  0.00     0.240 C 
HETATM   20  O   UNL     1      -3.274   6.135 -34.630  1.00  0.00    -0.272 OA
HETATM   21  H   UNL     1      -1.697   4.872 -32.141  1.00  0.00     0.190 HD
BRANCH  19  22
HETATM   22  C   UNL     1      -1.412   7.128 -33.451  1.00  0.00     0.143 C 
BRANCH  22  23
HETATM   23  C   UNL     1      -1.037   7.297 -31.994  1.00  0.00    -0.049 A 
HETATM   24  C   UNL     1      -1.840   7.964 -31.060  1.00  0.00     0.009 A 
HETATM   25  C   UNL     1      -1.424   8.106 -29.732  1.00  0.00     0.019 A 
HETATM   26  C   UNL     1      -0.197   7.585 -29.329  1.00  0.00     0.011 A 
HETATM   27 BR   UNL     1       0.368   7.786 -27.537  1.00  0.00    -0.051 Br
HETATM   28  C   UNL     1       0.620   6.925 -30.241  1.00  0.00     0.019 A 
HETATM   29  C   UNL     1       0.201   6.783 -31.567  1.00  0.00     0.009 A 
ENDBRANCH  22  23
ENDBRANCH  19  22
ENDBRANCH   2  18
TORSDOF 6
ENDMDL
MODEL 4
REMARK VINA RESULT:      -8.5      2.137      2.705
REMARK  6 active torsions:
REMARK  status: ('A' for Active; 'I' for Inactive)
REMARK    1  A    between atoms: C_4  and  N_5 
REMARK    2  A    between atoms: C_7  and  C_8 
REMARK       I    between atoms: C_8  and  N_9 
REMARK    3  A    between atoms: N_9  and  N_10 
REMARK       I    between atoms: N_10  and  C_11 
REMARK    4  A    between atoms: C_11  and  C_12 
REMARK    5  A    between atoms: C_12  and  C_13 
REMARK    6  A    between atoms: C_22  and  O_23 
ROOT
HETATM    1  C   UNL     1      -4.765   3.642 -32.213  1.00  0.00     0.293 C 
HETATM    2  N   UNL     1      -3.649   3.739 -33.016  1.00  0.00    -0.262 N 
HETATM    3  O   UNL     1      -5.084   4.498 -31.389  1.00  0.00    -0.264 OA
HETATM    4  H   UNL     1      -3.460   3.034 -33.731  1.00  0.00     0.190 HD
ENDROOT
BRANCH   1   5
HETATM    5  C   UNL     1      -5.549   2.426 -32.428  1.00  0.00     0.181 A 
HETATM    6  N   UNL     1      -5.048   1.332 -33.031  1.00  0.00    -0.159 NA
HETATM    7  N   UNL     1      -6.077   0.431 -33.042  1.00  0.00    -0.242 N 
HETATM    8  C   UNL     1      -7.210   0.950 -32.454  1.00  0.00     0.158 A 
HETATM    9  C   UNL     1      -6.890   2.216 -32.057  1.00  0.00     0.119 A 
BRANCH   7  10
HETATM   10  C   UNL     1      -5.904  -0.862 -33.614  1.00  0.00     0.058 A 
HETATM   11  C   UNL     1      -4.616  -1.417 -33.692  1.00  0.00     0.031 A 
HETATM   12  C   UNL     1      -4.428  -2.685 -34.248  1.00  0.00     0.002 A 
HETATM   13  C   UNL     1      -5.518  -3.405 -34.731  1.00  0.00     0.000 A 
HETATM   14  C   UNL     1      -6.799  -2.861 -34.658  1.00  0.00     0.002 A 
HETATM   15  C   UNL     1      -6.996  -1.593 -34.102  1.00  0.00     0.031 A 
ENDBRANCH   7  10
BRANCH   9  16
HETATM   16  O   UNL     1      -7.747   3.042 -31.436  1.00  0.00    -0.357 OA
HETATM   17  H   UNL     1      -7.443   3.210 -30.520  1.00  0.00     0.218 HD
ENDBRANCH   9  16
ENDBRANCH   1   5
BRANCH   2  18
HETATM   18  N   UNL     1      -2.843   4.879 -32.965  1.00  0.00    -0.267 N 
HETATM   19  C   UNL     1      -2.983   5.817 -33.969  1.00  0.00     0.240 C 
HETATM   20  O   UNL     1      -3.730   5.654 -34.931  1.00  0.00    -0.272 OA
HETATM   21  H   UNL     1      -2.389   5.082 -32.075  1.00  0.00     0.190 HD
BRANCH  19  22
HETATM   22  C   UNL     1      -2.136   7.061 -33.780  1.00  0.00     0.143 C 
BRANCH  22  23
HETATM   23  C   UNL     1      -1.414   7.183 -32.456  1.00  0.00    -0.049 A 
HETATM   24  C   UNL     1      -0.160   6.610 -32.201  1.00  0.00     0.009 A 
HETATM   25  C   UNL     1       0.443   6.741 -30.946  1.00  0.00     0.019 A 
HETATM   26  C   UNL     1      -0.206   7.441 -29.933  1.00  0.00     0.011 A 
HETATM   27 BR   UNL     1       0.607   7.608 -28.235  1.00  0.00    -0.051 Br
HETATM   28  C   UNL     1      -1.454   8.011 -30.161  1.00  0.00     0.019 A 
HETATM   29  C   UNL     1      -2.054   7.882 -31.416  1.00  0.00     0.009 A 
ENDBRANCH  22  23
ENDBRANCH  19  22
ENDBRANCH   2  18
TORSDOF 6
ENDMDL
MODEL 5
REMARK VINA RESULT:      -8.5      2.409      3.497
REMARK  6 active torsions:
REMARK  status: ('A' for Active; 'I' for Inactive)
REMARK    1  A    between atoms: C_4  and  N_5 
REMARK    2  A    between atoms: C_7  and  C_8 
REMARK       I    between atoms: C_8  and  N_9 
REMARK    3  A    between atoms: N_9  and  N_10 
REMARK       I    between atoms: N_10  and  C_11 
REMARK    4  A    between atoms: C_11  and  C_12 
REMARK    5  A    between atoms: C_12  and  C_13 
REMARK    6  A    between atoms: C_22  and  O_23 
ROOT
HETATM    1  C   UNL     1      -2.604   4.075 -32.030  1.00  0.00     0.293 C 
HETATM    2  N   UNL     1      -2.092   4.400 -30.792  1.00  0.00    -0.262 N 
HETATM    3  O   UNL     1      -2.105   4.450 -33.091  1.00  0.00    -0.264 OA
HETATM    4  H   UNL     1      -2.504   4.012 -29.941  1.00  0.00     0.190 HD
ENDROOT
BRANCH   1   5
HETATM    5  C   UNL     1      -3.800   3.234 -31.978  1.00  0.00     0.181 A 
HETATM    6  N   UNL     1      -4.117   2.355 -32.946  1.00  0.00    -0.159 NA
HETATM    7  N   UNL     1      -5.287   1.779 -32.533  1.00  0.00    -0.242 N 
HETATM    8  C   UNL     1      -5.702   2.290 -31.323  1.00  0.00     0.158 A 
HETATM    9  C   UNL     1      -4.766   3.214 -30.955  1.00  0.00     0.119 A 
BRANCH   7  10
HETATM   10  C   UNL     1      -5.925   0.783 -33.326  1.00  0.00     0.058 A 
HETATM   11  C   UNL     1      -5.746  -0.573 -33.010  1.00  0.00     0.031 A 
HETATM   12  C   UNL     1      -6.366  -1.563 -33.775  1.00  0.00     0.002 A 
HETATM   13  C   UNL     1      -7.164  -1.210 -34.860  1.00  0.00     0.000 A 
HETATM   14  C   UNL     1      -7.347   0.133 -35.182  1.00  0.00     0.002 A 
HETATM   15  C   UNL     1      -6.731   1.131 -34.420  1.00  0.00     0.031 A 
ENDBRANCH   7  10
BRANCH   9  16
HETATM   16  O   UNL     1      -4.828   3.926 -29.819  1.00  0.00    -0.357 OA
HETATM   17  H   UNL     1      -4.450   4.818 -29.964  1.00  0.00     0.218 HD
ENDBRANCH   9  16
ENDBRANCH   1   5
BRANCH   2  18
HETATM   18  N   UNL     1      -0.914   5.144 -30.693  1.00  0.00    -0.267 N 
HETATM   19  C   UNL     1      -0.977   6.377 -30.074  1.00  0.00     0.240 C 
HETATM   20  O   UNL     1      -2.032   6.868 -29.677  1.00  0.00    -0.272 OA
HETATM   21  H   UNL     1      -0.039   4.644 -30.844  1.00  0.00     0.190 HD
BRANCH  19  22
HETATM   22  C   UNL     1       0.363   7.070 -29.930  1.00  0.00     0.143 C 
BRANCH  22  23
HETATM   23  C   UNL     1       0.762   7.467 -28.524  1.00  0.00    -0.049 A 
HETATM   24  C   UNL     1       0.421   6.727 -27.384  1.00  0.00     0.009 A 
HETATM   25  C   UNL     1       0.802   7.161 -26.110  1.00  0.00     0.019 A 
HETATM   26  C   UNL     1       1.522   8.343 -25.966  1.00  0.00     0.011 A 
HETATM   27 BR   UNL     1       2.027   8.933 -24.243  1.00  0.00    -0.051 Br
HETATM   28  C   UNL     1       1.866   9.098 -27.083  1.00  0.00     0.019 A 
HETATM   29  C   UNL     1       1.487   8.661 -28.355  1.00  0.00     0.009 A 
ENDBRANCH  22  23
ENDBRANCH  19  22
ENDBRANCH   2  18
TORSDOF 6
ENDMDL
MODEL 6
REMARK VINA RESULT:      -8.2      8.624     11.394
REMARK  6 active torsions:
REMARK  status: ('A' for Active; 'I' for Inactive)
REMARK    1  A    between atoms: C_4  and  N_5 
REMARK    2  A    between atoms: C_7  and  C_8 
REMARK       I    between atoms: C_8  and  N_9 
REMARK    3  A    between atoms: N_9  and  N_10 
REMARK       I    between atoms: N_10  and  C_11 
REMARK    4  A    between atoms: C_11  and  C_12 
REMARK    5  A    between atoms: C_12  and  C_13 
REMARK    6  A    between atoms: C_22  and  O_23 
ROOT
HETATM    1  C   UNL     1     -11.388   2.298 -33.647  1.00  0.00     0.293 C 
HETATM    2  N   UNL     1     -10.881   1.282 -34.430  1.00  0.00    -0.262 N 
HETATM    3  O   UNL     1     -10.713   3.244 -33.243  1.00  0.00    -0.264 OA
HETATM    4  H   UNL     1     -11.495   0.551 -34.794  1.00  0.00     0.190 HD
ENDROOT
BRANCH   1   5
HETATM    5  C   UNL     1     -12.810   2.157 -33.336  1.00  0.00     0.181 A 
HETATM    6  N   UNL     1     -13.548   3.159 -32.825  1.00  0.00    -0.159 NA
HETATM    7  N   UNL     1     -14.803   2.636 -32.677  1.00  0.00    -0.242 N 
HETATM    8  C   UNL     1     -14.855   1.322 -33.089  1.00  0.00     0.158 A 
HETATM    9  C   UNL     1     -13.597   1.003 -33.512  1.00  0.00     0.119 A 
BRANCH   7  10
HETATM   10  C   UNL     1     -15.864   3.430 -32.152  1.00  0.00     0.058 A 
HETATM   11  C   UNL     1     -15.601   4.742 -31.727  1.00  0.00     0.031 A 
HETATM   12  C   UNL     1     -16.629   5.534 -31.212  1.00  0.00     0.002 A 
HETATM   13  C   UNL     1     -17.921   5.026 -31.115  1.00  0.00     0.000 A 
HETATM   14  C   UNL     1     -18.191   3.725 -31.533  1.00  0.00     0.002 A 
HETATM   15  C   UNL     1     -17.168   2.925 -32.052  1.00  0.00     0.031 A 
ENDBRANCH   7  10
BRANCH   9  16
HETATM   16  O   UNL     1     -13.256  -0.203 -33.993  1.00  0.00    -0.357 OA
HETATM   17  H   UNL     1     -13.706  -0.905 -33.479  1.00  0.00     0.218 HD
ENDBRANCH   9  16
ENDBRANCH   1   5
BRANCH   2  18
HETATM   18  N   UNL     1      -9.552   1.321 -34.857  1.00  0.00    -0.267 N 
HETATM   19  C   UNL     1      -8.639   0.511 -34.211  1.00  0.00     0.240 C 
HETATM   20  O   UNL     1      -8.937  -0.180 -33.239  1.00  0.00    -0.272 OA
HETATM   21  H   UNL     1      -9.374   1.739 -35.770  1.00  0.00     0.190 HD
BRANCH  19  22
HETATM   22  C   UNL     1      -7.244   0.551 -34.802  1.00  0.00     0.143 C 
BRANCH  22  23
HETATM   23  C   UNL     1      -6.358  -0.640 -34.504  1.00  0.00    -0.049 A 
HETATM   24  C   UNL     1      -5.194  -0.564 -33.727  1.00  0.00     0.009 A 
HETATM   25  C   UNL     1      -4.406  -1.699 -33.508  1.00  0.00     0.019 A 
HETATM   26  C   UNL     1      -4.774  -2.919 -34.070  1.00  0.00     0.011 A 
HETATM   27 BR   UNL     1      -3.703  -4.449 -33.782  1.00  0.00    -0.051 Br
HETATM   28  C   UNL     1      -5.921  -3.016 -34.851  1.00  0.00     0.019 A 
HETATM   29  C   UNL     1      -6.708  -1.881 -35.066  1.00  0.00     0.009 A 
ENDBRANCH  22  23
ENDBRANCH  19  22
ENDBRANCH   2  18
TORSDOF 6
ENDMDL
MODEL 7
REMARK VINA RESULT:      -8.1      4.127      9.894
REMARK  6 active torsions:
REMARK  status: ('A' for Active; 'I' for Inactive)
REMARK    1  A    between atoms: C_4  and  N_5 
REMARK    2  A    between atoms: C_7  and  C_8 
REMARK       I    between atoms: C_8  and  N_9 
REMARK    3  A    between atoms: N_9  and  N_10 
REMARK       I    between atoms: N_10  and  C_11 
REMARK    4  A    between atoms: C_11  and  C_12 
REMARK    5  A    between atoms: C_12  and  C_13 
REMARK    6  A    between atoms: C_22  and  O_23 
ROOT
HETATM    1  C   UNL     1      -3.728   5.395 -33.346  1.00  0.00     0.293 C 
HETATM    2  N   UNL     1      -4.194   4.291 -32.665  1.00  0.00    -0.262 N 
HETATM    3  O   UNL     1      -4.154   5.742 -34.448  1.00  0.00    -0.264 OA
HETATM    4  H   UNL     1      -3.855   4.079 -31.725  1.00  0.00     0.190 HD
ENDROOT
BRANCH   1   5
HETATM    5  C   UNL     1      -2.678   6.130 -32.642  1.00  0.00     0.181 A 
HETATM    6  N   UNL     1      -2.375   5.911 -31.349  1.00  0.00    -0.159 NA
HETATM    7  N   UNL     1      -1.360   6.784 -31.069  1.00  0.00    -0.242 N 
HETATM    8  C   UNL     1      -1.029   7.543 -32.170  1.00  0.00     0.158 A 
HETATM    9  C   UNL     1      -1.855   7.138 -33.178  1.00  0.00     0.119 A 
BRANCH   7  10
HETATM   10  C   UNL     1      -0.781   6.831 -29.768  1.00  0.00     0.058 A 
HETATM   11  C   UNL     1       0.178   5.871 -29.404  1.00  0.00     0.031 A 
HETATM   12  C   UNL     1       0.758   5.904 -28.133  1.00  0.00     0.002 A 
HETATM   13  C   UNL     1       0.386   6.887 -27.220  1.00  0.00     0.000 A 
HETATM   14  C   UNL     1      -0.565   7.842 -27.574  1.00  0.00     0.002 A 
HETATM   15  C   UNL     1      -1.150   7.818 -28.844  1.00  0.00     0.031 A 
ENDBRANCH   7  10
BRANCH   9  16
HETATM   16  O   UNL     1      -1.826   7.653 -34.418  1.00  0.00    -0.357 OA
HETATM   17  H   UNL     1      -2.158   8.574 -34.403  1.00  0.00     0.218 HD
ENDBRANCH   9  16
ENDBRANCH   1   5
BRANCH   2  18
HETATM   18  N   UNL     1      -5.243   3.533 -33.190  1.00  0.00    -0.267 N 
HETATM   19  C   UNL     1      -6.246   3.132 -32.330  1.00  0.00     0.240 C 
HETATM   20  O   UNL     1      -6.214   3.355 -31.121  1.00  0.00    -0.272 OA
HETATM   21  H   UNL     1      -5.349   3.532 -34.203  1.00  0.00     0.190 HD
BRANCH  19  22
HETATM   22  C   UNL     1      -7.386   2.394 -33.004  1.00  0.00     0.143 C 
BRANCH  22  23
HETATM   23  C   UNL     1      -7.073   1.004 -33.515  1.00  0.00    -0.049 A 
HETATM   24  C   UNL     1      -7.499   0.523 -34.760  1.00  0.00     0.009 A 
HETATM   25  C   UNL     1      -7.195  -0.782 -35.164  1.00  0.00     0.019 A 
HETATM   26  C   UNL     1      -6.466  -1.617 -34.322  1.00  0.00     0.011 A 
HETATM   27 BR   UNL     1      -6.065  -3.382 -34.866  1.00  0.00    -0.051 Br
HETATM   28  C   UNL     1      -6.039  -1.163 -33.079  1.00  0.00     0.019 A 
HETATM   29  C   UNL     1      -6.342   0.141 -32.678  1.00  0.00     0.009 A 
ENDBRANCH  22  23
ENDBRANCH  19  22
ENDBRANCH   2  18
TORSDOF 6
ENDMDL
MODEL 8
REMARK VINA RESULT:      -8.0      3.643      4.573
REMARK  6 active torsions:
REMARK  status: ('A' for Active; 'I' for Inactive)
REMARK    1  A    between atoms: C_4  and  N_5 
REMARK    2  A    between atoms: C_7  and  C_8 
REMARK       I    between atoms: C_8  and  N_9 
REMARK    3  A    between atoms: N_9  and  N_10 
REMARK       I    between atoms: N_10  and  C_11 
REMARK    4  A    between atoms: C_11  and  C_12 
REMARK    5  A    between atoms: C_12  and  C_13 
REMARK    6  A    between atoms: C_22  and  O_23 
ROOT
HETATM    1  C   UNL     1      -4.470   3.121 -30.918  1.00  0.00     0.293 C 
HETATM    2  N   UNL     1      -3.996   4.415 -30.909  1.00  0.00    -0.262 N 
HETATM    3  O   UNL     1      -3.741   2.132 -30.991  1.00  0.00    -0.264 OA
HETATM    4  H   UNL     1      -4.636   5.202 -30.782  1.00  0.00     0.190 HD
ENDROOT
BRANCH   1   5
HETATM    5  C   UNL     1      -5.926   3.019 -30.827  1.00  0.00     0.181 A 
HETATM    6  N   UNL     1      -6.668   2.339 -31.720  1.00  0.00    -0.159 NA
HETATM    7  N   UNL     1      -7.959   2.485 -31.294  1.00  0.00    -0.242 N 
HETATM    8  C   UNL     1      -8.030   3.247 -30.149  1.00  0.00     0.158 A 
HETATM    9  C   UNL     1      -6.747   3.593 -29.838  1.00  0.00     0.119 A 
BRANCH   7  10
HETATM   10  C   UNL     1      -9.033   1.885 -32.012  1.00  0.00     0.058 A 
HETATM   11  C   UNL     1     -10.010   2.701 -32.605  1.00  0.00     0.031 A 
HETATM   12  C   UNL     1     -11.069   2.129 -33.315  1.00  0.00     0.002 A 
HETATM   13  C   UNL     1     -11.163   0.745 -33.436  1.00  0.00     0.000 A 
HETATM   14  C   UNL     1     -10.198  -0.072 -32.850  1.00  0.00     0.002 A 
HETATM   15  C   UNL     1      -9.134   0.492 -32.138  1.00  0.00     0.031 A 
ENDBRANCH   7  10
BRANCH   9  16
HETATM   16  O   UNL     1      -6.413   4.340 -28.774  1.00  0.00    -0.357 OA
HETATM   17  H   UNL     1      -7.018   5.108 -28.704  1.00  0.00     0.218 HD
ENDBRANCH   9  16
ENDBRANCH   1   5
BRANCH   2  18
HETATM   18  N   UNL     1      -2.621   4.660 -30.925  1.00  0.00    -0.267 N 
HETATM   19  C   UNL     1      -2.031   4.963 -32.136  1.00  0.00     0.240 C 
HETATM   20  O   UNL     1      -2.651   4.955 -33.198  1.00  0.00    -0.272 OA
HETATM   21  H   UNL     1      -2.178   4.854 -30.028  1.00  0.00     0.190 HD
BRANCH  19  22
HETATM   22  C   UNL     1      -0.557   5.304 -32.042  1.00  0.00     0.143 C 
BRANCH  22  23
HETATM   23  C   UNL     1      -0.073   5.815 -30.702  1.00  0.00    -0.049 A 
HETATM   24  C   UNL     1       0.498   4.995 -29.720  1.00  0.00     0.009 A 
HETATM   25  C   UNL     1       0.903   5.527 -28.492  1.00  0.00     0.019 A 
HETATM   26  C   UNL     1       0.735   6.885 -28.234  1.00  0.00     0.011 A 
HETATM   27 BR   UNL     1       1.274   7.600 -26.569  1.00  0.00    -0.051 Br
HETATM   28  C   UNL     1       0.163   7.717 -29.191  1.00  0.00     0.019 A 
HETATM   29  C   UNL     1      -0.239   7.183 -30.418  1.00  0.00     0.009 A 
ENDBRANCH  22  23
ENDBRANCH  19  22
ENDBRANCH   2  18
TORSDOF 6
ENDMDL
MODEL 9
REMARK VINA RESULT:      -7.9      3.982      9.948
REMARK  6 active torsions:
REMARK  status: ('A' for Active; 'I' for Inactive)
REMARK    1  A    between atoms: C_4  and  N_5 
REMARK    2  A    between atoms: C_7  and  C_8 
REMARK       I    between atoms: C_8  and  N_9 
REMARK    3  A    between atoms: N_9  and  N_10 
REMARK       I    between atoms: N_10  and  C_11 
REMARK    4  A    between atoms: C_11  and  C_12 
REMARK    5  A    between atoms: C_12  and  C_13 
REMARK    6  A    between atoms: C_22  and  O_23 
ROOT
HETATM    1  C   UNL     1      -2.268   4.596 -32.943  1.00  0.00     0.293 C 
HETATM    2  N   UNL     1      -2.869   3.634 -32.159  1.00  0.00    -0.262 N 
HETATM    3  O   UNL     1      -2.167   4.507 -34.167  1.00  0.00    -0.264 OA
HETATM    4  H   UNL     1      -2.986   3.782 -31.155  1.00  0.00     0.190 HD
ENDROOT
BRANCH   1   5
HETATM    5  C   UNL     1      -1.757   5.742 -32.193  1.00  0.00     0.181 A 
HETATM    6  N   UNL     1      -1.422   5.673 -30.892  1.00  0.00    -0.159 NA
HETATM    7  N   UNL     1      -1.001   6.933 -30.566  1.00  0.00    -0.242 N 
HETATM    8  C   UNL     1      -1.071   7.784 -31.647  1.00  0.00     0.158 A 
HETATM    9  C   UNL     1      -1.548   7.043 -32.689  1.00  0.00     0.119 A 
BRANCH   7  10
HETATM   10  C   UNL     1      -0.563   7.232 -29.244  1.00  0.00     0.058 A 
HETATM   11  C   UNL     1       0.739   7.717 -29.040  1.00  0.00     0.031 A 
HETATM   12  C   UNL     1       1.185   8.018 -27.751  1.00  0.00     0.002 A 
HETATM   13  C   UNL     1       0.340   7.836 -26.659  1.00  0.00     0.000 A 
HETATM   14  C   UNL     1      -0.953   7.354 -26.853  1.00  0.00     0.002 A 
HETATM   15  C   UNL     1      -1.408   7.051 -28.140  1.00  0.00     0.031 A 
ENDBRANCH   7  10
BRANCH   9  16
HETATM   16  O   UNL     1      -1.750   7.534 -33.922  1.00  0.00    -0.357 OA
HETATM   17  H   UNL     1      -0.973   7.343 -34.488  1.00  0.00     0.218 HD
ENDBRANCH   9  16
ENDBRANCH   1   5
BRANCH   2  18
HETATM   18  N   UNL     1      -3.459   2.515 -32.749  1.00  0.00    -0.267 N 
HETATM   19  C   UNL     1      -3.411   1.318 -32.061  1.00  0.00     0.240 C 
HETATM   20  O   UNL     1      -2.813   1.189 -30.994  1.00  0.00    -0.272 OA
HETATM   21  H   UNL     1      -4.106   2.686 -33.518  1.00  0.00     0.190 HD
BRANCH  19  22
HETATM   22  C   UNL     1      -4.155   0.182 -32.734  1.00  0.00     0.143 C 
BRANCH  22  23
HETATM   23  C   UNL     1      -5.661   0.324 -32.813  1.00  0.00    -0.049 A 
HETATM   24  C   UNL     1      -6.496   0.350 -31.688  1.00  0.00     0.009 A 
HETATM   25  C   UNL     1      -7.883   0.461 -31.831  1.00  0.00     0.019 A 
HETATM   26  C   UNL     1      -8.446   0.540 -33.102  1.00  0.00     0.011 A 
HETATM   27 BR   UNL     1     -10.321   0.679 -33.294  1.00  0.00    -0.051 Br
HETATM   28  C   UNL     1      -7.637   0.508 -34.233  1.00  0.00     0.019 A 
HETATM   29  C   UNL     1      -6.251   0.400 -34.087  1.00  0.00     0.009 A 
ENDBRANCH  22  23
ENDBRANCH  19  22
ENDBRANCH   2  18
TORSDOF 6
ENDMDL
MODEL 10
REMARK VINA RESULT:      -7.7      4.142      4.933
REMARK  6 active torsions:
REMARK  status: ('A' for Active; 'I' for Inactive)
REMARK    1  A    between atoms: C_4  and  N_5 
REMARK    2  A    between atoms: C_7  and  C_8 
REMARK       I    between atoms: C_8  and  N_9 
REMARK    3  A    between atoms: N_9  and  N_10 
REMARK       I    between atoms: N_10  and  C_11 
REMARK    4  A    between atoms: C_11  and  C_12 
REMARK    5  A    between atoms: C_12  and  C_13 
REMARK    6  A    between atoms: C_22  and  O_23 
ROOT
HETATM    1  C   UNL     1      -5.061   3.033 -31.830  1.00  0.00     0.293 C 
HETATM    2  N   UNL     1      -4.638   3.587 -33.020  1.00  0.00    -0.262 N 
HETATM    3  O   UNL     1      -4.314   2.827 -30.874  1.00  0.00    -0.264 OA
HETATM    4  H   UNL     1      -5.308   3.799 -33.762  1.00  0.00     0.190 HD
ENDROOT
BRANCH   1   5
HETATM    5  C   UNL     1      -6.487   2.712 -31.797  1.00  0.00     0.181 A 
HETATM    6  N   UNL     1      -7.288   2.834 -32.871  1.00  0.00    -0.159 NA
HETATM    7  N   UNL     1      -8.526   2.447 -32.437  1.00  0.00    -0.242 N 
HETATM    8  C   UNL     1      -8.506   2.089 -31.107  1.00  0.00     0.158 A 
HETATM    9  C   UNL     1      -7.217   2.249 -30.686  1.00  0.00     0.119 A 
BRANCH   7  10
HETATM   10  C   UNL     1      -9.641   2.450 -33.324  1.00  0.00     0.058 A 
HETATM   11  C   UNL     1     -10.527   1.361 -33.324  1.00  0.00     0.031 A 
HETATM   12  C   UNL     1     -11.626   1.347 -34.187  1.00  0.00     0.002 A 
HETATM   13  C   UNL     1     -11.847   2.414 -35.054  1.00  0.00     0.000 A 
HETATM   14  C   UNL     1     -10.971   3.498 -35.061  1.00  0.00     0.002 A 
HETATM   15  C   UNL     1      -9.869   3.520 -34.200  1.00  0.00     0.031 A 
ENDBRANCH   7  10
BRANCH   9  16
HETATM   16  O   UNL     1      -6.804   1.992 -29.435  1.00  0.00    -0.357 OA
HETATM   17  H   UNL     1      -5.864   2.249 -29.335  1.00  0.00     0.218 HD
ENDBRANCH   9  16
ENDBRANCH   1   5
BRANCH   2  18
HETATM   18  N   UNL     1      -3.313   4.003 -33.170  1.00  0.00    -0.267 N 
HETATM   19  C   UNL     1      -3.077   5.185 -33.845  1.00  0.00     0.240 C 
HETATM   20  O   UNL     1      -3.974   5.838 -34.373  1.00  0.00    -0.272 OA
HETATM   21  H   UNL     1      -2.621   3.562 -32.566  1.00  0.00     0.190 HD
BRANCH  19  22
HETATM   22  C   UNL     1      -1.620   5.602 -33.878  1.00  0.00     0.143 C 
BRANCH  22  23
HETATM   23  C   UNL     1      -1.028   6.065 -32.564  1.00  0.00    -0.049 A 
HETATM   24  C   UNL     1      -0.086   5.325 -31.836  1.00  0.00     0.009 A 
HETATM   25  C   UNL     1       0.406   5.800 -30.615  1.00  0.00     0.019 A 
HETATM   26  C   UNL     1      -0.047   7.015 -30.109  1.00  0.00     0.011 A 
HETATM   27 BR   UNL     1       0.611   7.649 -28.454  1.00  0.00    -0.051 Br
HETATM   28  C   UNL     1      -0.987   7.762 -30.811  1.00  0.00     0.019 A 
HETATM   29  C   UNL     1      -1.475   7.288 -32.032  1.00  0.00     0.009 A 
ENDBRANCH  22  23
ENDBRANCH  19  22
ENDBRANCH   2  18
TORSDOF 6
ENDMDL
