MODEL 1
REMARK VINA RESULT:      -8.9      0.000      0.000
REMARK  4 active torsions:
REMARK  status: ('A' for Active; 'I' for Inactive)
REMARK    1  A    between atoms: C_9  and  C_10 
REMARK    2  A    between atoms: C_20  and  C_21 
REMARK       I    between atoms: C_21  and  N_22 
REMARK    3  A    between atoms: N_22  and  C_23 
REMARK    4  A    between atoms: C_24  and  O_25 
ROOT
HETATM    1  C   UNL     1      -2.470 -13.434 -37.279  1.00  0.00     0.070 C 
HETATM    2  C   UNL     1      -3.882 -13.460 -36.742  1.00  0.00     0.037 A 
HETATM    3  N   UNL     1      -3.995 -13.635 -35.369  1.00  0.00    -0.192 N 
HETATM    4  C   UNL     1      -5.168 -13.655 -34.713  1.00  0.00     0.725 A 
HETATM    5  N   UNL     1      -6.331 -13.518 -35.421  1.00  0.00    -0.084 N 
HETATM    6  N   UNL     1      -7.393 -13.411 -34.592  1.00  0.00    -0.149 NA
HETATM    7  C   UNL     1      -6.803 -13.615 -33.409  1.00  0.00     0.275 A 
HETATM    8  N   UNL     1      -5.440 -13.756 -33.438  1.00  0.00    -0.054 NA
HETATM    9  C   UNL     1      -6.390 -13.313 -36.873  1.00  0.00     0.203 A 
HETATM   10  C   UNL     1      -4.996 -13.304 -37.505  1.00  0.00     0.062 A 
HETATM   11  H   UNL     1      -3.137 -13.750 -34.835  1.00  0.00     0.184 HD
ENDROOT
BRANCH  10  12
HETATM   12  C   UNL     1      -4.878 -13.235 -38.997  1.00  0.00     0.256 C 
HETATM   13  N   UNL     1      -4.690 -14.454 -39.614  1.00  0.00    -0.321 N 
HETATM   14  H   UNL     1      -4.423 -15.239 -39.040  1.00  0.00     0.169 HD
HETATM   15  O   UNL     1      -4.879 -12.135 -39.535  1.00  0.00    -0.267 OA
BRANCH  13  16
HETATM   16  C   UNL     1      -4.568 -14.690 -41.007  1.00  0.00     0.068 A 
HETATM   17  C   UNL     1      -3.386 -14.613 -41.759  1.00  0.00     0.095 A 
HETATM   18  C   UNL     1      -3.387 -14.932 -43.123  1.00  0.00     0.039 A 
HETATM   19  C   UNL     1      -4.574 -15.269 -43.767  1.00  0.00     0.003 A 
HETATM   20  C   UNL     1      -5.765 -15.288 -43.048  1.00  0.00     0.002 A 
HETATM   21  C   UNL     1      -5.762 -14.996 -41.681  1.00  0.00     0.032 A 
BRANCH  17  22
HETATM   22  O   UNL     1      -2.182 -14.209 -41.248  1.00  0.00    -0.354 OA
HETATM   23  C   UNL     1      -1.304 -15.322 -41.090  1.00  0.00     0.210 C 
ENDBRANCH  17  22
ENDBRANCH  13  16
ENDBRANCH  10  12
BRANCH   9  24
HETATM   24  C   UNL     1      -7.368 -14.307 -37.509  1.00  0.00    -0.017 A 
HETATM   25  C   UNL     1      -8.362 -13.894 -38.453  1.00  0.00    -0.017 A 
HETATM   26  C   UNL     1      -9.184 -14.886 -39.050  1.00  0.00    -0.025 A 
HETATM   27  C   UNL     1      -8.603 -12.550 -38.837  1.00  0.00     0.013 A 
HETATM   28  C   UNL     1     -10.157 -14.528 -39.998  1.00  0.00     0.012 A 
HETATM   29  C   UNL     1      -9.039 -16.231 -38.690  1.00  0.00     0.012 A 
HETATM   30  C   UNL     1     -10.353 -13.200 -40.363  1.00  0.00     0.001 A 
HETATM   31  C   UNL     1      -9.580 -12.209 -39.778  1.00  0.00     0.001 A 
HETATM   32  C   UNL     1      -8.104 -16.620 -37.739  1.00  0.00     0.002 A 
HETATM   33  C   UNL     1      -7.282 -15.669 -37.148  1.00  0.00     0.010 A 
ENDBRANCH   9  24
TORSDOF 4
ENDMDL
MODEL 2
REMARK VINA RESULT:      -8.7     14.840     16.450
REMARK  4 active torsions:
REMARK  status: ('A' for Active; 'I' for Inactive)
REMARK    1  A    between atoms: C_9  and  C_10 
REMARK    2  A    between atoms: C_20  and  C_21 
REMARK       I    between atoms: C_21  and  N_22 
REMARK    3  A    between atoms: N_22  and  C_23 
REMARK    4  A    between atoms: C_24  and  O_25 
ROOT
HETATM    1  C   UNL     1      -2.562   0.193 -31.019  1.00  0.00     0.070 C 
HETATM    2  C   UNL     1      -3.422   1.358 -31.452  1.00  0.00     0.037 A 
HETATM    3  N   UNL     1      -2.905   2.617 -31.171  1.00  0.00    -0.192 N 
HETATM    4  C   UNL     1      -3.515   3.766 -31.506  1.00  0.00     0.725 A 
HETATM    5  N   UNL     1      -4.725   3.718 -32.143  1.00  0.00    -0.084 N 
HETATM    6  N   UNL     1      -5.115   4.950 -32.536  1.00  0.00    -0.149 NA
HETATM    7  C   UNL     1      -4.149   5.699 -31.992  1.00  0.00     0.275 A 
HETATM    8  N   UNL     1      -3.144   5.012 -31.363  1.00  0.00    -0.054 NA
HETATM    9  C   UNL     1      -5.404   2.474 -32.525  1.00  0.00     0.203 A 
HETATM   10  C   UNL     1      -4.613   1.237 -32.096  1.00  0.00     0.062 A 
HETATM   11  H   UNL     1      -2.011   2.663 -30.686  1.00  0.00     0.184 HD
ENDROOT
BRANCH  10  12
HETATM   12  C   UNL     1      -5.223  -0.118 -32.292  1.00  0.00     0.256 C 
HETATM   13  N   UNL     1      -4.904  -0.721 -33.490  1.00  0.00    -0.321 N 
HETATM   14  H   UNL     1      -4.498  -0.150 -34.215  1.00  0.00     0.169 HD
HETATM   15  O   UNL     1      -5.995  -0.541 -31.441  1.00  0.00    -0.267 OA
BRANCH  13  16
HETATM   16  C   UNL     1      -5.320  -2.003 -33.931  1.00  0.00     0.068 A 
HETATM   17  C   UNL     1      -4.565  -3.184 -33.873  1.00  0.00     0.095 A 
HETATM   18  C   UNL     1      -5.117  -4.404 -34.286  1.00  0.00     0.039 A 
HETATM   19  C   UNL     1      -6.401  -4.452 -34.820  1.00  0.00     0.003 A 
HETATM   20  C   UNL     1      -7.139  -3.279 -34.943  1.00  0.00     0.002 A 
HETATM   21  C   UNL     1      -6.601  -2.065 -34.507  1.00  0.00     0.032 A 
BRANCH  17  22
HETATM   22  O   UNL     1      -3.265  -3.237 -33.448  1.00  0.00    -0.354 OA
HETATM   23  C   UNL     1      -3.205  -3.480 -32.044  1.00  0.00     0.210 C 
ENDBRANCH  17  22
ENDBRANCH  13  16
ENDBRANCH  10  12
BRANCH   9  24
HETATM   24  C   UNL     1      -6.859   2.495 -32.044  1.00  0.00    -0.017 A 
HETATM   25  C   UNL     1      -7.928   1.967 -32.836  1.00  0.00    -0.017 A 
HETATM   26  C   UNL     1      -9.238   1.961 -32.288  1.00  0.00    -0.025 A 
HETATM   27  C   UNL     1      -7.783   1.454 -34.150  1.00  0.00     0.013 A 
HETATM   28  C   UNL     1     -10.314   1.433 -33.022  1.00  0.00     0.012 A 
HETATM   29  C   UNL     1      -9.473   2.492 -31.014  1.00  0.00     0.012 A 
HETATM   30  C   UNL     1     -10.129   0.921 -34.302  1.00  0.00     0.001 A 
HETATM   31  C   UNL     1      -8.865   0.937 -34.869  1.00  0.00     0.001 A 
HETATM   32  C   UNL     1      -8.438   3.045 -30.269  1.00  0.00     0.002 A 
HETATM   33  C   UNL     1      -7.147   3.054 -30.779  1.00  0.00     0.010 A 
ENDBRANCH   9  24
TORSDOF 4
ENDMDL
MODEL 3
REMARK VINA RESULT:      -8.7     15.153     16.769
REMARK  4 active torsions:
REMARK  status: ('A' for Active; 'I' for Inactive)
REMARK    1  A    between atoms: C_9  and  C_10 
REMARK    2  A    between atoms: C_20  and  C_21 
REMARK       I    between atoms: C_21  and  N_22 
REMARK    3  A    between atoms: N_22  and  C_23 
REMARK    4  A    between atoms: C_24  and  O_25 
ROOT
HETATM    1  C   UNL     1      -4.922   1.746 -30.926  1.00  0.00     0.070 C 
HETATM    2  C   UNL     1      -6.235   2.423 -31.248  1.00  0.00     0.037 A 
HETATM    3  N   UNL     1      -6.701   3.308 -30.284  1.00  0.00    -0.192 N 
HETATM    4  C   UNL     1      -7.834   4.020 -30.411  1.00  0.00     0.725 A 
HETATM    5  N   UNL     1      -8.597   3.865 -31.535  1.00  0.00    -0.084 N 
HETATM    6  N   UNL     1      -9.609   4.760 -31.561  1.00  0.00    -0.149 NA
HETATM    7  C   UNL     1      -9.459   5.336 -30.363  1.00  0.00     0.275 A 
HETATM    8  N   UNL     1      -8.377   4.920 -29.632  1.00  0.00    -0.054 NA
HETATM    9  C   UNL     1      -8.245   2.982 -32.653  1.00  0.00     0.203 A 
HETATM   10  C   UNL     1      -6.937   2.230 -32.396  1.00  0.00     0.062 A 
HETATM   11  H   UNL     1      -6.146   3.422 -29.439  1.00  0.00     0.184 HD
ENDROOT
BRANCH  10  12
HETATM   12  C   UNL     1      -6.495   1.189 -33.378  1.00  0.00     0.256 C 
HETATM   13  N   UNL     1      -6.343  -0.074 -32.845  1.00  0.00    -0.321 N 
HETATM   14  H   UNL     1      -6.313  -0.163 -31.841  1.00  0.00     0.169 HD
HETATM   15  O   UNL     1      -6.234   1.536 -34.523  1.00  0.00    -0.267 OA
BRANCH  13  16
HETATM   16  C   UNL     1      -5.959  -1.248 -33.541  1.00  0.00     0.068 A 
HETATM   17  C   UNL     1      -4.650  -1.729 -33.694  1.00  0.00     0.095 A 
HETATM   18  C   UNL     1      -4.408  -2.940 -34.354  1.00  0.00     0.039 A 
HETATM   19  C   UNL     1      -5.458  -3.654 -34.925  1.00  0.00     0.003 A 
HETATM   20  C   UNL     1      -6.755  -3.158 -34.836  1.00  0.00     0.002 A 
HETATM   21  C   UNL     1      -7.002  -1.963 -34.155  1.00  0.00     0.032 A 
BRANCH  17  22
HETATM   22  O   UNL     1      -3.538  -1.065 -33.250  1.00  0.00    -0.354 OA
HETATM   23  C   UNL     1      -3.125  -1.570 -31.982  1.00  0.00     0.210 C 
ENDBRANCH  17  22
ENDBRANCH  13  16
ENDBRANCH  10  12
BRANCH   9  24
HETATM   24  C   UNL     1      -9.433   2.083 -33.013  1.00  0.00    -0.017 A 
HETATM   25  C   UNL     1     -10.396   2.459 -34.003  1.00  0.00    -0.017 A 
HETATM   26  C   UNL     1     -11.427   1.539 -34.328  1.00  0.00    -0.025 A 
HETATM   27  C   UNL     1     -10.410   3.702 -34.685  1.00  0.00     0.013 A 
HETATM   28  C   UNL     1     -12.382   1.857 -35.309  1.00  0.00     0.012 A 
HETATM   29  C   UNL     1     -11.510   0.308 -33.666  1.00  0.00     0.012 A 
HETATM   30  C   UNL     1     -12.353   3.081 -35.971  1.00  0.00     0.001 A 
HETATM   31  C   UNL     1     -11.371   4.006 -35.655  1.00  0.00     0.001 A 
HETATM   32  C   UNL     1     -10.599  -0.032 -32.674  1.00  0.00     0.002 A 
HETATM   33  C   UNL     1      -9.576   0.847 -32.344  1.00  0.00     0.010 A 
ENDBRANCH   9  24
TORSDOF 4
ENDMDL
MODEL 4
REMARK VINA RESULT:      -8.5     14.825     16.433
REMARK  4 active torsions:
REMARK  status: ('A' for Active; 'I' for Inactive)
REMARK    1  A    between atoms: C_9  and  C_10 
REMARK    2  A    between atoms: C_20  and  C_21 
REMARK       I    between atoms: C_21  and  N_22 
REMARK    3  A    between atoms: N_22  and  C_23 
REMARK    4  A    between atoms: C_24  and  O_25 
ROOT
HETATM    1  C   UNL     1      -3.150   0.666 -31.135  1.00  0.00     0.070 C 
HETATM    2  C   UNL     1      -4.022   1.554 -31.991  1.00  0.00     0.037 A 
HETATM    3  N   UNL     1      -3.747   2.914 -31.911  1.00  0.00    -0.192 N 
HETATM    4  C   UNL     1      -4.401   3.850 -32.620  1.00  0.00     0.725 A 
HETATM    5  N   UNL     1      -5.410   3.467 -33.460  1.00  0.00    -0.084 N 
HETATM    6  N   UNL     1      -5.848   4.511 -34.199  1.00  0.00    -0.149 NA
HETATM    7  C   UNL     1      -5.139   5.509 -33.660  1.00  0.00     0.275 A 
HETATM    8  N   UNL     1      -4.232   5.145 -32.699  1.00  0.00    -0.054 NA
HETATM    9  C   UNL     1      -5.819   2.074 -33.673  1.00  0.00     0.203 A 
HETATM   10  C   UNL     1      -5.003   1.103 -32.816  1.00  0.00     0.062 A 
HETATM   11  H   UNL     1      -3.007   3.210 -31.280  1.00  0.00     0.184 HD
ENDROOT
BRANCH  10  12
HETATM   12  C   UNL     1      -5.376  -0.348 -32.812  1.00  0.00     0.256 C 
HETATM   13  N   UNL     1      -5.025  -1.033 -33.957  1.00  0.00    -0.321 N 
HETATM   14  H   UNL     1      -4.769  -0.495 -34.771  1.00  0.00     0.169 HD
HETATM   15  O   UNL     1      -6.010  -0.788 -31.862  1.00  0.00    -0.267 OA
BRANCH  13  16
HETATM   16  C   UNL     1      -5.234  -2.411 -34.219  1.00  0.00     0.068 A 
HETATM   17  C   UNL     1      -4.362  -3.458 -33.884  1.00  0.00     0.095 A 
HETATM   18  C   UNL     1      -4.715  -4.789 -34.144  1.00  0.00     0.039 A 
HETATM   19  C   UNL     1      -5.908  -5.088 -34.795  1.00  0.00     0.003 A 
HETATM   20  C   UNL     1      -6.754  -4.056 -35.190  1.00  0.00     0.002 A 
HETATM   21  C   UNL     1      -6.416  -2.729 -34.909  1.00  0.00     0.032 A 
BRANCH  17  22
HETATM   22  O   UNL     1      -3.128  -3.273 -33.322  1.00  0.00    -0.354 OA
HETATM   23  C   UNL     1      -3.179  -3.501 -31.915  1.00  0.00     0.210 C 
ENDBRANCH  17  22
ENDBRANCH  13  16
ENDBRANCH  10  12
BRANCH   9  24
HETATM   24  C   UNL     1      -7.337   1.937 -33.514  1.00  0.00    -0.017 A 
HETATM   25  C   UNL     1      -8.030   2.453 -32.372  1.00  0.00    -0.017 A 
HETATM   26  C   UNL     1      -9.445   2.347 -32.333  1.00  0.00    -0.025 A 
HETATM   27  C   UNL     1      -7.404   3.057 -31.252  1.00  0.00     0.013 A 
HETATM   28  C   UNL     1     -10.168   2.859 -31.242  1.00  0.00     0.012 A 
HETATM   29  C   UNL     1     -10.135   1.723 -33.379  1.00  0.00     0.012 A 
HETATM   30  C   UNL     1      -9.519   3.463 -30.169  1.00  0.00     0.001 A 
HETATM   31  C   UNL     1      -8.137   3.556 -30.170  1.00  0.00     0.001 A 
HETATM   32  C   UNL     1      -9.453   1.183 -34.463  1.00  0.00     0.002 A 
HETATM   33  C   UNL     1      -8.069   1.282 -34.528  1.00  0.00     0.010 A 
ENDBRANCH   9  24
TORSDOF 4
ENDMDL
MODEL 5
REMARK VINA RESULT:      -8.4     16.183     18.506
REMARK  4 active torsions:
REMARK  status: ('A' for Active; 'I' for Inactive)
REMARK    1  A    between atoms: C_9  and  C_10 
REMARK    2  A    between atoms: C_20  and  C_21 
REMARK       I    between atoms: C_21  and  N_22 
REMARK    3  A    between atoms: N_22  and  C_23 
REMARK    4  A    between atoms: C_24  and  O_25 
ROOT
HETATM    1  C   UNL     1      -9.617   5.680 -33.117  1.00  0.00     0.070 C 
HETATM    2  C   UNL     1      -8.287   4.962 -33.110  1.00  0.00     0.037 A 
HETATM    3  N   UNL     1      -7.196   5.724 -33.508  1.00  0.00    -0.192 N 
HETATM    4  C   UNL     1      -5.934   5.263 -33.537  1.00  0.00     0.725 A 
HETATM    5  N   UNL     1      -5.689   3.966 -33.178  1.00  0.00    -0.084 N 
HETATM    6  N   UNL     1      -4.362   3.720 -33.121  1.00  0.00    -0.149 NA
HETATM    7  C   UNL     1      -3.878   4.881 -33.577  1.00  0.00     0.275 A 
HETATM    8  N   UNL     1      -4.806   5.856 -33.831  1.00  0.00    -0.054 NA
HETATM    9  C   UNL     1      -6.724   3.030 -32.722  1.00  0.00     0.203 A 
HETATM   10  C   UNL     1      -8.114   3.670 -32.727  1.00  0.00     0.062 A 
HETATM   11  H   UNL     1      -7.369   6.687 -33.788  1.00  0.00     0.184 HD
ENDROOT
BRANCH  10  12
HETATM   12  C   UNL     1      -9.305   2.816 -32.413  1.00  0.00     0.256 C 
HETATM   13  N   UNL     1     -10.227   2.722 -33.434  1.00  0.00    -0.321 N 
HETATM   14  H   UNL     1     -10.162   3.382 -34.193  1.00  0.00     0.169 HD
HETATM   15  O   UNL     1      -9.408   2.346 -31.287  1.00  0.00    -0.267 OA
BRANCH  13  16
HETATM   16  C   UNL     1     -11.430   1.971 -33.424  1.00  0.00     0.068 A 
HETATM   17  C   UNL     1     -12.727   2.486 -33.275  1.00  0.00     0.095 A 
HETATM   18  C   UNL     1     -13.842   1.641 -33.345  1.00  0.00     0.039 A 
HETATM   19  C   UNL     1     -13.677   0.268 -33.500  1.00  0.00     0.003 A 
HETATM   20  C   UNL     1     -12.395  -0.266 -33.586  1.00  0.00     0.002 A 
HETATM   21  C   UNL     1     -11.281   0.579 -33.542  1.00  0.00     0.032 A 
BRANCH  17  22
HETATM   22  O   UNL     1     -12.999   3.806 -33.031  1.00  0.00    -0.354 OA
HETATM   23  C   UNL     1     -13.232   4.021 -31.641  1.00  0.00     0.210 C 
ENDBRANCH  17  22
ENDBRANCH  13  16
ENDBRANCH  10  12
BRANCH   9  24
HETATM   24  C   UNL     1      -6.628   1.714 -33.500  1.00  0.00    -0.017 A 
HETATM   25  C   UNL     1      -5.812   0.625 -33.054  1.00  0.00    -0.017 A 
HETATM   26  C   UNL     1      -5.833  -0.586 -33.795  1.00  0.00    -0.025 A 
HETATM   27  C   UNL     1      -4.960   0.666 -31.920  1.00  0.00     0.013 A 
HETATM   28  C   UNL     1      -5.063  -1.686 -33.380  1.00  0.00     0.012 A 
HETATM   29  C   UNL     1      -6.612  -0.691 -34.953  1.00  0.00     0.012 A 
HETATM   30  C   UNL     1      -4.253  -1.615 -32.251  1.00  0.00     0.001 A 
HETATM   31  C   UNL     1      -4.197  -0.436 -31.524  1.00  0.00     0.001 A 
HETATM   32  C   UNL     1      -7.367   0.384 -35.406  1.00  0.00     0.002 A 
HETATM   33  C   UNL     1      -7.370   1.576 -34.694  1.00  0.00     0.010 A 
ENDBRANCH   9  24
TORSDOF 4
ENDMDL
MODEL 6
REMARK VINA RESULT:      -8.4     15.376     17.586
REMARK  4 active torsions:
REMARK  status: ('A' for Active; 'I' for Inactive)
REMARK    1  A    between atoms: C_9  and  C_10 
REMARK    2  A    between atoms: C_20  and  C_21 
REMARK       I    between atoms: C_21  and  N_22 
REMARK    3  A    between atoms: N_22  and  C_23 
REMARK    4  A    between atoms: C_24  and  O_25 
ROOT
HETATM    1  C   UNL     1      -7.041  -2.399 -34.478  1.00  0.00     0.070 C 
HETATM    2  C   UNL     1      -6.041  -1.494 -33.796  1.00  0.00     0.037 A 
HETATM    3  N   UNL     1      -4.994  -2.142 -33.151  1.00  0.00    -0.192 N 
HETATM    4  C   UNL     1      -3.999  -1.500 -32.516  1.00  0.00     0.725 A 
HETATM    5  N   UNL     1      -4.007  -0.133 -32.472  1.00  0.00    -0.084 N 
HETATM    6  N   UNL     1      -2.863   0.341 -31.931  1.00  0.00    -0.149 NA
HETATM    7  C   UNL     1      -2.273  -0.801 -31.563  1.00  0.00     0.275 A 
HETATM    8  N   UNL     1      -2.929  -1.952 -31.914  1.00  0.00    -0.054 NA
HETATM    9  C   UNL     1      -5.030   0.704 -33.110  1.00  0.00     0.203 A 
HETATM   10  C   UNL     1      -6.104  -0.137 -33.803  1.00  0.00     0.062 A 
HETATM   11  H   UNL     1      -4.986  -3.159 -33.167  1.00  0.00     0.184 HD
ENDROOT
BRANCH  10  12
HETATM   12  C   UNL     1      -7.294   0.554 -34.395  1.00  0.00     0.256 C 
HETATM   13  N   UNL     1      -8.327   0.778 -33.508  1.00  0.00    -0.321 N 
HETATM   14  H   UNL     1      -8.313   0.282 -32.631  1.00  0.00     0.169 HD
HETATM   15  O   UNL     1      -7.297   0.791 -35.596  1.00  0.00    -0.267 OA
BRANCH  13  16
HETATM   16  C   UNL     1      -9.557   1.426 -33.785  1.00  0.00     0.068 A 
HETATM   17  C   UNL     1      -9.721   2.771 -34.148  1.00  0.00     0.095 A 
HETATM   18  C   UNL     1     -10.991   3.276 -34.457  1.00  0.00     0.039 A 
HETATM   19  C   UNL     1     -12.118   2.467 -34.346  1.00  0.00     0.003 A 
HETATM   20  C   UNL     1     -11.979   1.148 -33.926  1.00  0.00     0.002 A 
HETATM   21  C   UNL     1     -10.709   0.634 -33.643  1.00  0.00     0.032 A 
BRANCH  17  22
HETATM   22  O   UNL     1      -8.695   3.676 -34.204  1.00  0.00    -0.354 OA
HETATM   23  C   UNL     1      -9.203   5.009 -34.238  1.00  0.00     0.210 C 
ENDBRANCH  17  22
ENDBRANCH  13  16
ENDBRANCH  10  12
BRANCH   9  24
HETATM   24  C   UNL     1      -5.574   1.730 -32.110  1.00  0.00    -0.017 A 
HETATM   25  C   UNL     1      -5.653   3.125 -32.423  1.00  0.00    -0.017 A 
HETATM   26  C   UNL     1      -6.235   4.001 -31.468  1.00  0.00    -0.025 A 
HETATM   27  C   UNL     1      -5.178   3.713 -33.623  1.00  0.00     0.013 A 
HETATM   28  C   UNL     1      -6.353   5.374 -31.742  1.00  0.00     0.012 A 
HETATM   29  C   UNL     1      -6.687   3.506 -30.240  1.00  0.00     0.012 A 
HETATM   30  C   UNL     1      -5.891   5.912 -32.939  1.00  0.00     0.001 A 
HETATM   31  C   UNL     1      -5.297   5.083 -33.877  1.00  0.00     0.001 A 
HETATM   32  C   UNL     1      -6.566   2.158 -29.924  1.00  0.00     0.002 A 
HETATM   33  C   UNL     1      -6.009   1.280 -30.845  1.00  0.00     0.010 A 
ENDBRANCH   9  24
TORSDOF 4
ENDMDL
MODEL 7
REMARK VINA RESULT:      -8.3     15.705     17.697
REMARK  4 active torsions:
REMARK  status: ('A' for Active; 'I' for Inactive)
REMARK    1  A    between atoms: C_9  and  C_10 
REMARK    2  A    between atoms: C_20  and  C_21 
REMARK       I    between atoms: C_21  and  N_22 
REMARK    3  A    between atoms: N_22  and  C_23 
REMARK    4  A    between atoms: C_24  and  O_25 
ROOT
HETATM    1  C   UNL     1     -10.663   0.727 -33.594  1.00  0.00     0.070 C 
HETATM    2  C   UNL     1      -9.846   1.701 -32.777  1.00  0.00     0.037 A 
HETATM    3  N   UNL     1     -10.580   2.616 -32.032  1.00  0.00    -0.192 N 
HETATM    4  C   UNL     1     -10.026   3.538 -31.227  1.00  0.00     0.725 A 
HETATM    5  N   UNL     1      -8.663   3.611 -31.135  1.00  0.00    -0.084 N 
HETATM    6  N   UNL     1      -8.288   4.484 -30.174  1.00  0.00    -0.149 NA
HETATM    7  C   UNL     1      -9.477   4.985 -29.819  1.00  0.00     0.275 A 
HETATM    8  N   UNL     1     -10.567   4.424 -30.431  1.00  0.00    -0.054 NA
HETATM    9  C   UNL     1      -7.742   2.714 -31.843  1.00  0.00     0.203 A 
HETATM   10  C   UNL     1      -8.488   1.708 -32.722  1.00  0.00     0.062 A 
HETATM   11  H   UNL     1     -11.594   2.578 -32.103  1.00  0.00     0.184 HD
ENDROOT
BRANCH  10  12
HETATM   12  C   UNL     1      -7.698   0.801 -33.615  1.00  0.00     0.256 C 
HETATM   13  N   UNL     1      -7.207  -0.328 -32.994  1.00  0.00    -0.321 N 
HETATM   14  H   UNL     1      -7.210  -0.353 -31.985  1.00  0.00     0.169 HD
HETATM   15  O   UNL     1      -7.487   1.152 -34.769  1.00  0.00    -0.267 OA
BRANCH  13  16
HETATM   16  C   UNL     1      -6.449  -1.365 -33.594  1.00  0.00     0.068 A 
HETATM   17  C   UNL     1      -5.049  -1.459 -33.620  1.00  0.00     0.095 A 
HETATM   18  C   UNL     1      -4.420  -2.571 -34.195  1.00  0.00     0.039 A 
HETATM   19  C   UNL     1      -5.173  -3.570 -34.805  1.00  0.00     0.003 A 
HETATM   20  C   UNL     1      -6.559  -3.460 -34.844  1.00  0.00     0.002 A 
HETATM   21  C   UNL     1      -7.191  -2.364 -34.248  1.00  0.00     0.032 A 
BRANCH  17  22
HETATM   22  O   UNL     1      -4.211  -0.494 -33.128  1.00  0.00    -0.354 OA
HETATM   23  C   UNL     1      -3.190  -1.080 -32.323  1.00  0.00     0.210 C 
ENDBRANCH  17  22
ENDBRANCH  13  16
ENDBRANCH  10  12
BRANCH   9  24
HETATM   24  C   UNL     1      -6.671   3.527 -32.578  1.00  0.00    -0.017 A 
HETATM   25  C   UNL     1      -5.275   3.363 -32.305  1.00  0.00    -0.017 A 
HETATM   26  C   UNL     1      -4.342   4.104 -33.079  1.00  0.00    -0.025 A 
HETATM   27  C   UNL     1      -4.741   2.518 -31.299  1.00  0.00     0.013 A 
HETATM   28  C   UNL     1      -2.962   3.958 -32.860  1.00  0.00     0.012 A 
HETATM   29  C   UNL     1      -4.790   4.995 -34.061  1.00  0.00     0.012 A 
HETATM   30  C   UNL     1      -2.475   3.104 -31.876  1.00  0.00     0.001 A 
HETATM   31  C   UNL     1      -3.364   2.389 -31.090  1.00  0.00     0.001 A 
HETATM   32  C   UNL     1      -6.148   5.183 -34.289  1.00  0.00     0.002 A 
HETATM   33  C   UNL     1      -7.079   4.463 -33.552  1.00  0.00     0.010 A 
ENDBRANCH   9  24
TORSDOF 4
ENDMDL
MODEL 8
REMARK VINA RESULT:      -8.1     16.984     18.936
REMARK  4 active torsions:
REMARK  status: ('A' for Active; 'I' for Inactive)
REMARK    1  A    between atoms: C_9  and  C_10 
REMARK    2  A    between atoms: C_20  and  C_21 
REMARK       I    between atoms: C_21  and  N_22 
REMARK    3  A    between atoms: N_22  and  C_23 
REMARK    4  A    between atoms: C_24  and  O_25 
ROOT
HETATM    1  C   UNL     1      -8.010   6.910 -32.685  1.00  0.00     0.070 C 
HETATM    2  C   UNL     1      -8.529   5.502 -32.866  1.00  0.00     0.037 A 
HETATM    3  N   UNL     1      -9.886   5.331 -32.619  1.00  0.00    -0.192 N 
HETATM    4  C   UNL     1     -10.527   4.158 -32.756  1.00  0.00     0.725 A 
HETATM    5  N   UNL     1      -9.820   3.052 -33.140  1.00  0.00    -0.084 N 
HETATM    6  N   UNL     1     -10.643   2.006 -33.371  1.00  0.00    -0.149 NA
HETATM    7  C   UNL     1     -11.815   2.526 -32.988  1.00  0.00     0.275 A 
HETATM    8  N   UNL     1     -11.789   3.845 -32.616  1.00  0.00    -0.054 NA
HETATM    9  C   UNL     1      -8.385   3.060 -33.451  1.00  0.00     0.203 A 
HETATM   10  C   UNL     1      -7.769   4.448 -33.264  1.00  0.00     0.062 A 
HETATM   11  H   UNL     1     -10.418   6.145 -32.322  1.00  0.00     0.184 HD
ENDROOT
BRANCH  10  12
HETATM   12  C   UNL     1      -6.287   4.609 -33.414  1.00  0.00     0.256 C 
HETATM   13  N   UNL     1      -5.636   5.018 -32.269  1.00  0.00    -0.321 N 
HETATM   14  H   UNL     1      -6.193   5.388 -31.515  1.00  0.00     0.169 HD
HETATM   15  O   UNL     1      -5.789   4.447 -34.521  1.00  0.00    -0.267 OA
BRANCH  13  16
HETATM   16  C   UNL     1      -4.242   5.229 -32.115  1.00  0.00     0.068 A 
HETATM   17  C   UNL     1      -3.307   4.288 -31.659  1.00  0.00     0.095 A 
HETATM   18  C   UNL     1      -1.944   4.603 -31.611  1.00  0.00     0.039 A 
HETATM   19  C   UNL     1      -1.502   5.878 -31.955  1.00  0.00     0.003 A 
HETATM   20  C   UNL     1      -2.424   6.842 -32.349  1.00  0.00     0.002 A 
HETATM   21  C   UNL     1      -3.784   6.521 -32.423  1.00  0.00     0.032 A 
BRANCH  17  22
HETATM   22  O   UNL     1      -3.641   3.037 -31.213  1.00  0.00    -0.354 OA
HETATM   23  C   UNL     1      -3.548   2.086 -32.272  1.00  0.00     0.210 C 
ENDBRANCH  17  22
ENDBRANCH  13  16
ENDBRANCH  10  12
BRANCH   9  24
HETATM   24  C   UNL     1      -7.671   1.940 -32.688  1.00  0.00    -0.017 A 
HETATM   25  C   UNL     1      -7.184   0.765 -33.344  1.00  0.00    -0.017 A 
HETATM   26  C   UNL     1      -6.471  -0.194 -32.577  1.00  0.00    -0.025 A 
HETATM   27  C   UNL     1      -7.372   0.471 -34.719  1.00  0.00     0.013 A 
HETATM   28  C   UNL     1      -5.956  -1.352 -33.185  1.00  0.00     0.012 A 
HETATM   29  C   UNL     1      -6.282   0.001 -31.204  1.00  0.00     0.012 A 
HETATM   30  C   UNL     1      -6.145  -1.597 -34.542  1.00  0.00     0.001 A 
HETATM   31  C   UNL     1      -6.859  -0.689 -35.308  1.00  0.00     0.001 A 
HETATM   32  C   UNL     1      -6.796   1.121 -30.563  1.00  0.00     0.002 A 
HETATM   33  C   UNL     1      -7.490   2.078 -31.294  1.00  0.00     0.010 A 
ENDBRANCH   9  24
TORSDOF 4
ENDMDL
MODEL 9
REMARK VINA RESULT:      -7.8     16.557     18.849
REMARK  4 active torsions:
REMARK  status: ('A' for Active; 'I' for Inactive)
REMARK    1  A    between atoms: C_9  and  C_10 
REMARK    2  A    between atoms: C_20  and  C_21 
REMARK       I    between atoms: C_21  and  N_22 
REMARK    3  A    between atoms: N_22  and  C_23 
REMARK    4  A    between atoms: C_24  and  O_25 
ROOT
HETATM    1  C   UNL     1      -9.523   5.440 -34.343  1.00  0.00     0.070 C 
HETATM    2  C   UNL     1      -8.338   4.997 -33.518  1.00  0.00     0.037 A 
HETATM    3  N   UNL     1      -7.123   5.580 -33.858  1.00  0.00    -0.192 N 
HETATM    4  C   UNL     1      -5.970   5.328 -33.217  1.00  0.00     0.725 A 
HETATM    5  N   UNL     1      -5.963   4.436 -32.181  1.00  0.00    -0.084 N 
HETATM    6  N   UNL     1      -4.762   4.420 -31.561  1.00  0.00    -0.149 NA
HETATM    7  C   UNL     1      -4.064   5.238 -32.358  1.00  0.00     0.275 A 
HETATM    8  N   UNL     1      -4.770   5.825 -33.376  1.00  0.00    -0.054 NA
HETATM    9  C   UNL     1      -7.158   3.741 -31.685  1.00  0.00     0.203 A 
HETATM   10  C   UNL     1      -8.406   4.111 -32.489  1.00  0.00     0.062 A 
HETATM   11  H   UNL     1      -7.116   6.236 -34.635  1.00  0.00     0.184 HD
ENDROOT
BRANCH  10  12
HETATM   12  C   UNL     1      -9.691   3.395 -32.201  1.00  0.00     0.256 C 
HETATM   13  N   UNL     1     -10.299   2.842 -33.309  1.00  0.00    -0.321 N 
HETATM   14  H   UNL     1      -9.983   3.139 -34.220  1.00  0.00     0.169 HD
HETATM   15  O   UNL     1     -10.132   3.420 -31.060  1.00  0.00    -0.267 OA
BRANCH  13  16
HETATM   16  C   UNL     1     -11.504   2.096 -33.331  1.00  0.00     0.068 A 
HETATM   17  C   UNL     1     -12.801   2.613 -33.193  1.00  0.00     0.095 A 
HETATM   18  C   UNL     1     -13.917   1.773 -33.296  1.00  0.00     0.039 A 
HETATM   19  C   UNL     1     -13.755   0.402 -33.471  1.00  0.00     0.003 A 
HETATM   20  C   UNL     1     -12.473  -0.134 -33.546  1.00  0.00     0.002 A 
HETATM   21  C   UNL     1     -11.358   0.705 -33.471  1.00  0.00     0.032 A 
BRANCH  17  22
HETATM   22  O   UNL     1     -13.073   3.929 -32.931  1.00  0.00    -0.354 OA
HETATM   23  C   UNL     1     -14.363   4.066 -32.338  1.00  0.00     0.210 C 
ENDBRANCH  17  22
ENDBRANCH  13  16
ENDBRANCH  10  12
BRANCH   9  24
HETATM   24  C   UNL     1      -6.891   2.236 -31.584  1.00  0.00    -0.017 A 
HETATM   25  C   UNL     1      -6.861   1.391 -32.740  1.00  0.00    -0.017 A 
HETATM   26  C   UNL     1      -6.538   0.019 -32.568  1.00  0.00    -0.025 A 
HETATM   27  C   UNL     1      -7.144   1.820 -34.062  1.00  0.00     0.013 A 
HETATM   28  C   UNL     1      -6.475  -0.841 -33.677  1.00  0.00     0.012 A 
HETATM   29  C   UNL     1      -6.289  -0.493 -31.289  1.00  0.00     0.012 A 
HETATM   30  C   UNL     1      -6.742  -0.380 -34.963  1.00  0.00     0.001 A 
HETATM   31  C   UNL     1      -7.083   0.949 -35.155  1.00  0.00     0.001 A 
HETATM   32  C   UNL     1      -6.366   0.322 -30.166  1.00  0.00     0.002 A 
HETATM   33  C   UNL     1      -6.671   1.670 -30.309  1.00  0.00     0.010 A 
ENDBRANCH   9  24
TORSDOF 4
ENDMDL
MODEL 10
REMARK VINA RESULT:      -7.7     17.868     19.878
REMARK  4 active torsions:
REMARK  status: ('A' for Active; 'I' for Inactive)
REMARK    1  A    between atoms: C_9  and  C_10 
REMARK    2  A    between atoms: C_20  and  C_21 
REMARK       I    between atoms: C_21  and  N_22 
REMARK    3  A    between atoms: N_22  and  C_23 
REMARK    4  A    between atoms: C_24  and  O_25 
ROOT
HETATM    1  C   UNL     1      -8.909   3.048 -31.141  1.00  0.00     0.070 C 
HETATM    2  C   UNL     1      -7.992   4.237 -31.311  1.00  0.00     0.037 A 
HETATM    3  N   UNL     1      -8.627   5.464 -31.455  1.00  0.00    -0.192 N 
HETATM    4  C   UNL     1      -7.975   6.631 -31.589  1.00  0.00     0.725 A 
HETATM    5  N   UNL     1      -6.607   6.633 -31.609  1.00  0.00    -0.084 N 
HETATM    6  N   UNL     1      -6.123   7.894 -31.598  1.00  0.00    -0.149 NA
HETATM    7  C   UNL     1      -7.259   8.594 -31.696  1.00  0.00     0.275 A 
HETATM    8  N   UNL     1      -8.416   7.859 -31.681  1.00  0.00    -0.054 NA
HETATM    9  C   UNL     1      -5.781   5.428 -31.457  1.00  0.00     0.203 A 
HETATM   10  C   UNL     1      -6.635   4.167 -31.308  1.00  0.00     0.062 A 
HETATM   11  H   UNL     1      -9.645   5.473 -31.454  1.00  0.00     0.184 HD
ENDROOT
BRANCH  10  12
HETATM   12  C   UNL     1      -5.954   2.832 -31.272  1.00  0.00     0.256 C 
HETATM   13  N   UNL     1      -5.919   2.175 -32.485  1.00  0.00    -0.321 N 
HETATM   14  H   UNL     1      -6.523   2.507 -33.221  1.00  0.00     0.169 HD
HETATM   15  O   UNL     1      -5.563   2.403 -30.195  1.00  0.00    -0.267 OA
BRANCH  13  16
HETATM   16  C   UNL     1      -5.324   0.915 -32.749  1.00  0.00     0.068 A 
HETATM   17  C   UNL     1      -5.992  -0.241 -33.181  1.00  0.00     0.095 A 
HETATM   18  C   UNL     1      -5.277  -1.411 -33.468  1.00  0.00     0.039 A 
HETATM   19  C   UNL     1      -3.901  -1.464 -33.268  1.00  0.00     0.003 A 
HETATM   20  C   UNL     1      -3.234  -0.345 -32.780  1.00  0.00     0.002 A 
HETATM   21  C   UNL     1      -3.941   0.832 -32.517  1.00  0.00     0.032 A 
BRANCH  17  22
HETATM   22  O   UNL     1      -7.350  -0.326 -33.328  1.00  0.00    -0.354 OA
HETATM   23  C   UNL     1      -7.720  -0.146 -34.693  1.00  0.00     0.210 C 
ENDBRANCH  17  22
ENDBRANCH  13  16
ENDBRANCH  10  12
BRANCH   9  24
HETATM   24  C   UNL     1      -4.736   5.358 -32.575  1.00  0.00    -0.017 A 
HETATM   25  C   UNL     1      -3.331   5.413 -32.305  1.00  0.00    -0.017 A 
HETATM   26  C   UNL     1      -2.426   5.271 -33.390  1.00  0.00    -0.025 A 
HETATM   27  C   UNL     1      -2.762   5.614 -31.021  1.00  0.00     0.013 A 
HETATM   28  C   UNL     1      -1.039   5.297 -33.168  1.00  0.00     0.012 A 
HETATM   29  C   UNL     1      -2.908   5.115 -34.695  1.00  0.00     0.012 A 
HETATM   30  C   UNL     1      -0.518   5.478 -31.891  1.00  0.00     0.001 A 
HETATM   31  C   UNL     1      -1.379   5.643 -30.818  1.00  0.00     0.001 A 
HETATM   32  C   UNL     1      -4.273   5.109 -34.957  1.00  0.00     0.002 A 
HETATM   33  C   UNL     1      -5.178   5.237 -33.911  1.00  0.00     0.010 A 
ENDBRANCH   9  24
TORSDOF 4
ENDMDL
