MODEL 1
REMARK VINA RESULT:      -8.9      0.000      0.000
REMARK  8 active torsions:
REMARK  status: ('A' for Active; 'I' for Inactive)
REMARK    1  A    between atoms: C_2  and  C_3 
REMARK    2  A    between atoms: C_3  and  C_4 
REMARK    3  A    between atoms: C_7  and  N_8 
REMARK       I    between atoms: N_8  and  C_9 
REMARK    4  A    between atoms: C_9  and  C_10 
REMARK    5  A    between atoms: C_13  and  N_14 
REMARK       I    between atoms: N_14  and  C_15 
REMARK    6  A    between atoms: C_15  and  C_16 
REMARK    7  A    between atoms: C_16  and  C_17 
REMARK    8  A    between atoms: C_19  and  N_20 
ROOT
HETATM    1  C   UNL     1      -1.671   5.978 -30.789  1.00  0.00     0.032 A 
HETATM    2  C   UNL     1      -1.359   4.841 -31.543  1.00  0.00     0.019 A 
HETATM    3  C   UNL     1      -2.372   4.129 -32.205  1.00  0.00     0.030 A 
HETATM    4  C   UNL     1      -3.703   4.533 -32.108  1.00  0.00     0.034 A 
HETATM    5  C   UNL     1      -4.017   5.648 -31.324  1.00  0.00     0.030 A 
HETATM    6  C   UNL     1      -3.011   6.365 -30.670  1.00  0.00     0.019 A 
ENDROOT
BRANCH   4   7
HETATM    7  N   UNL     1      -4.780   3.896 -32.754  1.00  0.00    -0.327 N 
HETATM    8  C   UNL     1      -5.791   3.146 -32.187  1.00  0.00     0.223 C 
HETATM    9  O   UNL     1      -5.955   2.930 -30.991  1.00  0.00    -0.273 OA
HETATM   10  H   UNL     1      -4.829   4.052 -33.763  1.00  0.00     0.169 HD
BRANCH   8  11
HETATM   11  C   UNL     1      -6.765   2.582 -33.207  1.00  0.00     0.128 C 
BRANCH  11  12
HETATM   12  C   UNL     1      -6.932   1.088 -32.993  1.00  0.00     0.158 C 
HETATM   13  S   UNL     1      -5.370   0.187 -33.240  1.00  0.00    -0.077 SA
HETATM   14  C   UNL     1      -6.225  -1.088 -34.098  1.00  0.00     0.168 C 
HETATM   15  N   UNL     1      -7.445  -0.807 -34.426  1.00  0.00    -0.189 NA
HETATM   16  C   UNL     1      -7.825   0.456 -34.050  1.00  0.00     0.260 C 
HETATM   17  O   UNL     1      -8.812   1.031 -34.502  1.00  0.00    -0.270 OA
BRANCH  14  18
HETATM   18  N   UNL     1      -5.606  -2.296 -34.321  1.00  0.00    -0.360 N 
HETATM   19  C   UNL     1      -4.187  -2.546 -34.050  1.00  0.00     0.125 C 
HETATM   20  C   UNL     1      -4.010  -3.951 -33.477  1.00  0.00     0.020 C 
HETATM   21  C   UNL     1      -4.619  -5.007 -34.395  1.00  0.00     0.003 C 
HETATM   22  C   UNL     1      -6.068  -4.666 -34.727  1.00  0.00     0.020 C 
HETATM   23  C   UNL     1      -6.196  -3.245 -35.276  1.00  0.00     0.125 C 
ENDBRANCH  14  18
ENDBRANCH  11  12
ENDBRANCH   8  11
ENDBRANCH   4   7
BRANCH   1  24
HETATM   24  C   UNL     1      -0.646   6.821 -30.099  1.00  0.00     0.256 C 
HETATM   25  N   UNL     1      -0.907   7.132 -28.776  1.00  0.00    -0.323 N 
HETATM   26  H   UNL     1      -1.779   6.817 -28.380  1.00  0.00     0.169 HD
HETATM   27  O   UNL     1       0.353   7.139 -30.736  1.00  0.00    -0.267 OA
BRANCH  25  28
HETATM   28  C   UNL     1      -0.034   7.769 -27.866  1.00  0.00     0.035 A 
HETATM   29  C   UNL     1       1.058   7.146 -27.265  1.00  0.00     0.030 A 
HETATM   30  C   UNL     1       1.838   7.825 -26.321  1.00  0.00     0.010 A 
HETATM   31  C   UNL     1       1.557   9.151 -25.972  1.00  0.00    -0.054 A 
HETATM   32  C   UNL     1       0.469   9.781 -26.590  1.00  0.00     0.010 A 
HETATM   33  C   UNL     1      -0.319   9.096 -27.523  1.00  0.00     0.030 A 
BRANCH  31  34
HETATM   34  C   UNL     1       2.364   9.893 -24.920  1.00  0.00     0.014 C 
HETATM   35  C   UNL     1       1.416  10.521 -23.891  1.00  0.00     0.015 C 
BRANCH  34  36
HETATM   36  C   UNL     1       3.422   9.026 -24.206  1.00  0.00     0.004 C 
HETATM   37  C   UNL     1       3.049   8.689 -22.768  1.00  0.00     0.006 C 
ENDBRANCH  34  36
ENDBRANCH  31  34
ENDBRANCH  25  28
ENDBRANCH   1  24
TORSDOF 8
ENDMDL
MODEL 2
REMARK VINA RESULT:      -8.9      2.657      5.437
REMARK  8 active torsions:
REMARK  status: ('A' for Active; 'I' for Inactive)
REMARK    1  A    between atoms: C_2  and  C_3 
REMARK    2  A    between atoms: C_3  and  C_4 
REMARK    3  A    between atoms: C_7  and  N_8 
REMARK       I    between atoms: N_8  and  C_9 
REMARK    4  A    between atoms: C_9  and  C_10 
REMARK    5  A    between atoms: C_13  and  N_14 
REMARK       I    between atoms: N_14  and  C_15 
REMARK    6  A    between atoms: C_15  and  C_16 
REMARK    7  A    between atoms: C_16  and  C_17 
REMARK    8  A    between atoms: C_19  and  N_20 
ROOT
HETATM    1  C   UNL     1       1.074   8.037 -26.607  1.00  0.00     0.032 A 
HETATM    2  C   UNL     1       0.220   6.968 -26.308  1.00  0.00     0.019 A 
HETATM    3  C   UNL     1      -0.338   6.197 -27.339  1.00  0.00     0.030 A 
HETATM    4  C   UNL     1      -0.065   6.493 -28.674  1.00  0.00     0.034 A 
HETATM    5  C   UNL     1       0.759   7.584 -28.971  1.00  0.00     0.030 A 
HETATM    6  C   UNL     1       1.323   8.349 -27.948  1.00  0.00     0.019 A 
ENDROOT
BRANCH   4   7
HETATM    7  N   UNL     1      -0.561   5.762 -29.771  1.00  0.00    -0.327 N 
HETATM    8  C   UNL     1      -1.728   5.970 -30.476  1.00  0.00     0.223 C 
HETATM    9  O   UNL     1      -2.539   6.872 -30.293  1.00  0.00    -0.273 OA
HETATM   10  H   UNL     1       0.052   5.013 -30.101  1.00  0.00     0.169 HD
BRANCH   8  11
HETATM   11  C   UNL     1      -1.953   4.954 -31.582  1.00  0.00     0.128 C 
BRANCH  11  12
HETATM   12  C   UNL     1      -3.388   4.456 -31.546  1.00  0.00     0.158 C 
HETATM   13  S   UNL     1      -3.479   2.640 -31.626  1.00  0.00    -0.077 SA
HETATM   14  C   UNL     1      -4.842   2.744 -32.732  1.00  0.00     0.168 C 
HETATM   15  N   UNL     1      -5.064   3.921 -33.222  1.00  0.00    -0.189 NA
HETATM   16  C   UNL     1      -4.163   4.861 -32.790  1.00  0.00     0.260 C 
HETATM   17  O   UNL     1      -4.004   5.950 -33.336  1.00  0.00    -0.270 OA
BRANCH  14  18
HETATM   18  N   UNL     1      -5.616   1.631 -32.971  1.00  0.00    -0.360 N 
HETATM   19  C   UNL     1      -6.725   1.603 -33.930  1.00  0.00     0.125 C 
HETATM   20  C   UNL     1      -6.741   0.262 -34.661  1.00  0.00     0.020 C 
HETATM   21  C   UNL     1      -6.793  -0.906 -33.680  1.00  0.00     0.003 C 
HETATM   22  C   UNL     1      -5.678  -0.794 -32.644  1.00  0.00     0.020 C 
HETATM   23  C   UNL     1      -5.690   0.571 -31.957  1.00  0.00     0.125 C 
ENDBRANCH  14  18
ENDBRANCH  11  12
ENDBRANCH   8  11
ENDBRANCH   4   7
BRANCH   1  24
HETATM   24  C   UNL     1       1.751   8.872 -25.566  1.00  0.00     0.256 C 
HETATM   25  N   UNL     1       2.624   8.204 -24.727  1.00  0.00    -0.323 N 
HETATM   26  H   UNL     1       2.713   7.206 -24.835  1.00  0.00     0.169 HD
HETATM   27  O   UNL     1       1.513  10.076 -25.559  1.00  0.00    -0.267 OA
BRANCH  25  28
HETATM   28  C   UNL     1       3.498   8.782 -23.779  1.00  0.00     0.035 A 
HETATM   29  C   UNL     1       4.494   9.705 -24.095  1.00  0.00     0.030 A 
HETATM   30  C   UNL     1       5.365  10.182 -23.109  1.00  0.00     0.010 A 
HETATM   31  C   UNL     1       5.248   9.763 -21.779  1.00  0.00    -0.054 A 
HETATM   32  C   UNL     1       4.237   8.848 -21.460  1.00  0.00     0.010 A 
HETATM   33  C   UNL     1       3.374   8.361 -22.449  1.00  0.00     0.030 A 
BRANCH  31  34
HETATM   34  C   UNL     1       6.210  10.236 -20.700  1.00  0.00     0.014 C 
HETATM   35  C   UNL     1       5.842   9.586 -19.361  1.00  0.00     0.015 C 
BRANCH  34  36
HETATM   36  C   UNL     1       7.697   9.982 -21.024  1.00  0.00     0.004 C 
HETATM   37  C   UNL     1       8.005   8.518 -21.312  1.00  0.00     0.006 C 
ENDBRANCH  34  36
ENDBRANCH  31  34
ENDBRANCH  25  28
ENDBRANCH   1  24
TORSDOF 8
ENDMDL
MODEL 3
REMARK VINA RESULT:      -8.7      3.145      4.565
REMARK  8 active torsions:
REMARK  status: ('A' for Active; 'I' for Inactive)
REMARK    1  A    between atoms: C_2  and  C_3 
REMARK    2  A    between atoms: C_3  and  C_4 
REMARK    3  A    between atoms: C_7  and  N_8 
REMARK       I    between atoms: N_8  and  C_9 
REMARK    4  A    between atoms: C_9  and  C_10 
REMARK    5  A    between atoms: C_13  and  N_14 
REMARK       I    between atoms: N_14  and  C_15 
REMARK    6  A    between atoms: C_15  and  C_16 
REMARK    7  A    between atoms: C_16  and  C_17 
REMARK    8  A    between atoms: C_19  and  N_20 
ROOT
HETATM    1  C   UNL     1      -1.743   5.714 -31.472  1.00  0.00     0.032 A 
HETATM    2  C   UNL     1      -1.469   4.894 -32.574  1.00  0.00     0.019 A 
HETATM    3  C   UNL     1      -2.512   4.241 -33.249  1.00  0.00     0.030 A 
HETATM    4  C   UNL     1      -3.833   4.384 -32.823  1.00  0.00     0.034 A 
HETATM    5  C   UNL     1      -4.100   5.175 -31.700  1.00  0.00     0.030 A 
HETATM    6  C   UNL     1      -3.066   5.833 -31.030  1.00  0.00     0.019 A 
ENDROOT
BRANCH   4   7
HETATM    7  N   UNL     1      -4.943   3.788 -33.451  1.00  0.00    -0.327 N 
HETATM    8  C   UNL     1      -5.517   2.562 -33.181  1.00  0.00     0.223 C 
HETATM    9  O   UNL     1      -5.178   1.777 -32.302  1.00  0.00    -0.273 OA
HETATM   10  H   UNL     1      -5.394   4.364 -34.164  1.00  0.00     0.169 HD
BRANCH   8  11
HETATM   11  C   UNL     1      -6.687   2.233 -34.091  1.00  0.00     0.128 C 
BRANCH  11  12
HETATM   12  C   UNL     1      -7.996   2.545 -33.386  1.00  0.00     0.158 C 
HETATM   13  S   UNL     1      -9.288   1.326 -33.782  1.00  0.00    -0.077 SA
HETATM   14  C   UNL     1     -10.480   2.612 -33.918  1.00  0.00     0.168 C 
HETATM   15  N   UNL     1      -9.993   3.811 -33.949  1.00  0.00    -0.189 NA
HETATM   16  C   UNL     1      -8.622   3.836 -33.890  1.00  0.00     0.260 C 
HETATM   17  O   UNL     1      -7.948   4.817 -34.193  1.00  0.00    -0.270 OA
BRANCH  14  18
HETATM   18  N   UNL     1     -11.821   2.305 -33.925  1.00  0.00    -0.360 N 
HETATM   19  C   UNL     1     -12.417   1.281 -34.788  1.00  0.00     0.125 C 
HETATM   20  C   UNL     1     -13.499   0.524 -34.021  1.00  0.00     0.020 C 
HETATM   21  C   UNL     1     -14.544   1.477 -33.448  1.00  0.00     0.003 C 
HETATM   22  C   UNL     1     -13.880   2.581 -32.629  1.00  0.00     0.020 C 
HETATM   23  C   UNL     1     -12.791   3.292 -33.432  1.00  0.00     0.125 C 
ENDBRANCH  14  18
ENDBRANCH  11  12
ENDBRANCH   8  11
ENDBRANCH   4   7
BRANCH   1  24
HETATM   24  C   UNL     1      -0.696   6.485 -30.733  1.00  0.00     0.256 C 
HETATM   25  N   UNL     1      -1.027   6.880 -29.450  1.00  0.00    -0.323 N 
HETATM   26  H   UNL     1      -1.954   6.669 -29.115  1.00  0.00     0.169 HD
HETATM   27  O   UNL     1       0.376   6.675 -31.299  1.00  0.00    -0.267 OA
BRANCH  25  28
HETATM   28  C   UNL     1      -0.168   7.473 -28.496  1.00  0.00     0.035 A 
HETATM   29  C   UNL     1       0.834   6.785 -27.814  1.00  0.00     0.030 A 
HETATM   30  C   UNL     1       1.601   7.426 -26.834  1.00  0.00     0.010 A 
HETATM   31  C   UNL     1       1.397   8.776 -26.527  1.00  0.00    -0.054 A 
HETATM   32  C   UNL     1       0.400   9.470 -27.225  1.00  0.00     0.010 A 
HETATM   33  C   UNL     1      -0.375   8.824 -28.196  1.00  0.00     0.030 A 
BRANCH  31  34
HETATM   34  C   UNL     1       2.188   9.481 -25.438  1.00  0.00     0.014 C 
HETATM   35  C   UNL     1       1.505  10.805 -25.078  1.00  0.00     0.015 C 
BRANCH  34  36
HETATM   36  C   UNL     1       2.407   8.634 -24.167  1.00  0.00     0.004 C 
HETATM   37  C   UNL     1       2.259   9.436 -22.881  1.00  0.00     0.006 C 
ENDBRANCH  34  36
ENDBRANCH  31  34
ENDBRANCH  25  28
ENDBRANCH   1  24
TORSDOF 8
ENDMDL
MODEL 4
REMARK VINA RESULT:      -8.6      3.663     13.721
REMARK  8 active torsions:
REMARK  status: ('A' for Active; 'I' for Inactive)
REMARK    1  A    between atoms: C_2  and  C_3 
REMARK    2  A    between atoms: C_3  and  C_4 
REMARK    3  A    between atoms: C_7  and  N_8 
REMARK       I    between atoms: N_8  and  C_9 
REMARK    4  A    between atoms: C_9  and  C_10 
REMARK    5  A    between atoms: C_13  and  N_14 
REMARK       I    between atoms: N_14  and  C_15 
REMARK    6  A    between atoms: C_15  and  C_16 
REMARK    7  A    between atoms: C_16  and  C_17 
REMARK    8  A    between atoms: C_19  and  N_20 
ROOT
HETATM    1  C   UNL     1      -2.031   5.249 -31.182  1.00  0.00     0.032 A 
HETATM    2  C   UNL     1      -2.792   6.387 -30.888  1.00  0.00     0.019 A 
HETATM    3  C   UNL     1      -2.256   7.411 -30.091  1.00  0.00     0.030 A 
HETATM    4  C   UNL     1      -0.968   7.302 -29.567  1.00  0.00     0.034 A 
HETATM    5  C   UNL     1      -0.225   6.148 -29.832  1.00  0.00     0.030 A 
HETATM    6  C   UNL     1      -0.750   5.130 -30.632  1.00  0.00     0.019 A 
ENDROOT
BRANCH   4   7
HETATM    7  N   UNL     1      -0.342   8.287 -28.778  1.00  0.00    -0.327 N 
HETATM    8  C   UNL     1      -0.736   8.769 -27.547  1.00  0.00     0.223 C 
HETATM    9  O   UNL     1      -1.701   8.391 -26.890  1.00  0.00    -0.273 OA
HETATM   10  H   UNL     1       0.534   8.649 -29.159  1.00  0.00     0.169 HD
BRANCH   8  11
HETATM   11  C   UNL     1       0.173   9.862 -27.010  1.00  0.00     0.128 C 
BRANCH  11  12
HETATM   12  C   UNL     1       0.769   9.433 -25.680  1.00  0.00     0.158 C 
HETATM   13  S   UNL     1       1.618  10.807 -24.842  1.00  0.00    -0.077 SA
HETATM   14  C   UNL     1       2.927   9.731 -24.374  1.00  0.00     0.168 C 
HETATM   15  N   UNL     1       2.927   8.578 -24.960  1.00  0.00    -0.189 NA
HETATM   16  C   UNL     1       1.900   8.432 -25.859  1.00  0.00     0.260 C 
HETATM   17  O   UNL     1       1.873   7.559 -26.722  1.00  0.00    -0.270 OA
BRANCH  14  18
HETATM   18  N   UNL     1       3.821  10.123 -23.404  1.00  0.00    -0.360 N 
HETATM   19  C   UNL     1       4.007  11.515 -22.984  1.00  0.00     0.125 C 
HETATM   20  C   UNL     1       4.220  11.574 -21.472  1.00  0.00     0.020 C 
HETATM   21  C   UNL     1       5.377  10.678 -21.038  1.00  0.00     0.003 C 
HETATM   22  C   UNL     1       5.193   9.260 -21.569  1.00  0.00     0.020 C 
HETATM   23  C   UNL     1       4.962   9.255 -23.080  1.00  0.00     0.125 C 
ENDBRANCH  14  18
ENDBRANCH  11  12
ENDBRANCH   8  11
ENDBRANCH   4   7
BRANCH   1  24
HETATM   24  C   UNL     1      -2.508   4.140 -32.067  1.00  0.00     0.256 C 
HETATM   25  N   UNL     1      -3.284   3.170 -31.458  1.00  0.00    -0.323 N 
HETATM   26  H   UNL     1      -3.438   3.243 -30.464  1.00  0.00     0.169 HD
HETATM   27  O   UNL     1      -2.210   4.192 -33.256  1.00  0.00    -0.267 OA
BRANCH  25  28
HETATM   28  C   UNL     1      -3.982   2.119 -32.095  1.00  0.00     0.035 A 
HETATM   29  C   UNL     1      -5.253   2.251 -32.650  1.00  0.00     0.030 A 
HETATM   30  C   UNL     1      -5.908   1.144 -33.205  1.00  0.00     0.010 A 
HETATM   31  C   UNL     1      -5.298  -0.115 -33.236  1.00  0.00    -0.054 A 
HETATM   32  C   UNL     1      -4.014  -0.241 -32.691  1.00  0.00     0.010 A 
HETATM   33  C   UNL     1      -3.365   0.863 -32.124  1.00  0.00     0.030 A 
BRANCH  31  34
HETATM   34  C   UNL     1      -6.008  -1.337 -33.795  1.00  0.00     0.014 C 
HETATM   35  C   UNL     1      -6.902  -0.923 -34.969  1.00  0.00     0.015 C 
BRANCH  34  36
HETATM   36  C   UNL     1      -5.060  -2.476 -34.225  1.00  0.00     0.004 C 
HETATM   37  C   UNL     1      -5.728  -3.499 -35.134  1.00  0.00     0.006 C 
ENDBRANCH  34  36
ENDBRANCH  31  34
ENDBRANCH  25  28
ENDBRANCH   1  24
TORSDOF 8
ENDMDL
MODEL 5
REMARK VINA RESULT:      -8.4      3.699     11.834
REMARK  8 active torsions:
REMARK  status: ('A' for Active; 'I' for Inactive)
REMARK    1  A    between atoms: C_2  and  C_3 
REMARK    2  A    between atoms: C_3  and  C_4 
REMARK    3  A    between atoms: C_7  and  N_8 
REMARK       I    between atoms: N_8  and  C_9 
REMARK    4  A    between atoms: C_9  and  C_10 
REMARK    5  A    between atoms: C_13  and  N_14 
REMARK       I    between atoms: N_14  and  C_15 
REMARK    6  A    between atoms: C_15  and  C_16 
REMARK    7  A    between atoms: C_16  and  C_17 
REMARK    8  A    between atoms: C_19  and  N_20 
ROOT
HETATM    1  C   UNL     1      -7.352   3.922 -30.209  1.00  0.00     0.032 A 
HETATM    2  C   UNL     1      -8.450   4.706 -29.833  1.00  0.00     0.019 A 
HETATM    3  C   UNL     1      -8.266   5.850 -29.040  1.00  0.00     0.030 A 
HETATM    4  C   UNL     1      -6.992   6.212 -28.601  1.00  0.00     0.034 A 
HETATM    5  C   UNL     1      -5.902   5.406 -28.947  1.00  0.00     0.030 A 
HETATM    6  C   UNL     1      -6.080   4.272 -29.744  1.00  0.00     0.019 A 
ENDROOT
BRANCH   4   7
HETATM    7  N   UNL     1      -6.710   7.352 -27.824  1.00  0.00    -0.327 N 
HETATM    8  C   UNL     1      -6.815   8.679 -28.189  1.00  0.00     0.223 C 
HETATM    9  O   UNL     1      -7.218   9.109 -29.264  1.00  0.00    -0.273 OA
HETATM   10  H   UNL     1      -6.434   7.157 -26.860  1.00  0.00     0.169 HD
BRANCH   8  11
HETATM   11  C   UNL     1      -6.388   9.639 -27.092  1.00  0.00     0.128 C 
BRANCH  11  12
HETATM   12  C   UNL     1      -4.872   9.701 -27.019  1.00  0.00     0.158 C 
HETATM   13  S   UNL     1      -4.105   9.537 -28.661  1.00  0.00    -0.077 SA
HETATM   14  C   UNL     1      -2.865   8.485 -27.992  1.00  0.00     0.168 C 
HETATM   15  N   UNL     1      -3.094   8.060 -26.791  1.00  0.00    -0.189 NA
HETATM   16  C   UNL     1      -4.288   8.505 -26.282  1.00  0.00     0.260 C 
HETATM   17  O   UNL     1      -4.836   8.007 -25.303  1.00  0.00    -0.270 OA
BRANCH  14  18
HETATM   18  N   UNL     1      -1.727   8.219 -28.719  1.00  0.00    -0.360 N 
HETATM   19  C   UNL     1      -0.369   8.347 -28.180  1.00  0.00     0.125 C 
HETATM   20  C   UNL     1       0.504   7.210 -28.706  1.00  0.00     0.020 C 
HETATM   21  C   UNL     1       0.489   7.158 -30.232  1.00  0.00     0.003 C 
HETATM   22  C   UNL     1      -0.942   7.116 -30.759  1.00  0.00     0.020 C 
HETATM   23  C   UNL     1      -1.781   8.258 -30.186  1.00  0.00     0.125 C 
ENDBRANCH  14  18
ENDBRANCH  11  12
ENDBRANCH   8  11
ENDBRANCH   4   7
BRANCH   1  24
HETATM   24  C   UNL     1      -7.457   2.721 -31.095  1.00  0.00     0.256 C 
HETATM   25  N   UNL     1      -6.340   2.431 -31.857  1.00  0.00    -0.323 N 
HETATM   26  H   UNL     1      -5.555   3.062 -31.805  1.00  0.00     0.169 HD
HETATM   27  O   UNL     1      -8.497   2.072 -31.053  1.00  0.00    -0.267 OA
BRANCH  25  28
HETATM   28  C   UNL     1      -6.126   1.276 -32.643  1.00  0.00     0.035 A 
HETATM   29  C   UNL     1      -6.649   1.094 -33.922  1.00  0.00     0.030 A 
HETATM   30  C   UNL     1      -6.448  -0.107 -34.612  1.00  0.00     0.010 A 
HETATM   31  C   UNL     1      -5.700  -1.147 -34.047  1.00  0.00    -0.054 A 
HETATM   32  C   UNL     1      -5.162  -0.956 -32.769  1.00  0.00     0.010 A 
HETATM   33  C   UNL     1      -5.375   0.241 -32.074  1.00  0.00     0.030 A 
BRANCH  31  34
HETATM   34  C   UNL     1      -5.505  -2.475 -34.761  1.00  0.00     0.014 C 
HETATM   35  C   UNL     1      -4.344  -3.241 -34.116  1.00  0.00     0.015 C 
BRANCH  34  36
HETATM   36  C   UNL     1      -6.767  -3.361 -34.804  1.00  0.00     0.004 C 
HETATM   37  C   UNL     1      -6.526  -4.713 -35.463  1.00  0.00     0.006 C 
ENDBRANCH  34  36
ENDBRANCH  31  34
ENDBRANCH  25  28
ENDBRANCH   1  24
TORSDOF 8
ENDMDL
MODEL 6
REMARK VINA RESULT:      -8.3      3.778     12.224
REMARK  8 active torsions:
REMARK  status: ('A' for Active; 'I' for Inactive)
REMARK    1  A    between atoms: C_2  and  C_3 
REMARK    2  A    between atoms: C_3  and  C_4 
REMARK    3  A    between atoms: C_7  and  N_8 
REMARK       I    between atoms: N_8  and  C_9 
REMARK    4  A    between atoms: C_9  and  C_10 
REMARK    5  A    between atoms: C_13  and  N_14 
REMARK       I    between atoms: N_14  and  C_15 
REMARK    6  A    between atoms: C_15  and  C_16 
REMARK    7  A    between atoms: C_16  and  C_17 
REMARK    8  A    between atoms: C_19  and  N_20 
ROOT
HETATM    1  C   UNL     1      -6.663   4.086 -30.123  1.00  0.00     0.032 A 
HETATM    2  C   UNL     1      -5.397   4.627 -29.867  1.00  0.00     0.019 A 
HETATM    3  C   UNL     1      -5.263   5.756 -29.043  1.00  0.00     0.030 A 
HETATM    4  C   UNL     1      -6.386   6.364 -28.483  1.00  0.00     0.034 A 
HETATM    5  C   UNL     1      -7.652   5.844 -28.771  1.00  0.00     0.030 A 
HETATM    6  C   UNL     1      -7.790   4.715 -29.583  1.00  0.00     0.019 A 
ENDROOT
BRANCH   4   7
HETATM    7  N   UNL     1      -6.345   7.483 -27.629  1.00  0.00    -0.327 N 
HETATM    8  C   UNL     1      -6.309   8.818 -27.975  1.00  0.00     0.223 C 
HETATM    9  O   UNL     1      -6.345   9.278 -29.112  1.00  0.00    -0.273 OA
HETATM   10  H   UNL     1      -6.391   7.264 -26.632  1.00  0.00     0.169 HD
BRANCH   8  11
HETATM   11  C   UNL     1      -6.234   9.748 -26.777  1.00  0.00     0.128 C 
BRANCH  11  12
HETATM   12  C   UNL     1      -4.786   9.944 -26.362  1.00  0.00     0.158 C 
HETATM   13  S   UNL     1      -3.633   9.558 -27.716  1.00  0.00    -0.077 SA
HETATM   14  C   UNL     1      -2.559   8.743 -26.588  1.00  0.00     0.168 C 
HETATM   15  N   UNL     1      -3.061   8.517 -25.416  1.00  0.00    -0.189 NA
HETATM   16  C   UNL     1      -4.358   8.947 -25.296  1.00  0.00     0.260 C 
HETATM   17  O   UNL     1      -5.113   8.585 -24.397  1.00  0.00    -0.270 OA
BRANCH  14  18
HETATM   18  N   UNL     1      -1.268   8.447 -26.963  1.00  0.00    -0.360 N 
HETATM   19  C   UNL     1      -0.918   7.367 -27.890  1.00  0.00     0.125 C 
HETATM   20  C   UNL     1       0.221   7.818 -28.802  1.00  0.00     0.020 C 
HETATM   21  C   UNL     1       1.423   8.299 -27.994  1.00  0.00     0.003 C 
HETATM   22  C   UNL     1       1.004   9.358 -26.978  1.00  0.00     0.020 C 
HETATM   23  C   UNL     1      -0.152   8.869 -26.106  1.00  0.00     0.125 C 
ENDBRANCH  14  18
ENDBRANCH  11  12
ENDBRANCH   8  11
ENDBRANCH   4   7
BRANCH   1  24
HETATM   24  C   UNL     1      -6.886   2.856 -30.944  1.00  0.00     0.256 C 
HETATM   25  N   UNL     1      -5.887   2.539 -31.846  1.00  0.00    -0.323 N 
HETATM   26  H   UNL     1      -5.105   3.171 -31.927  1.00  0.00     0.169 HD
HETATM   27  O   UNL     1      -7.907   2.208 -30.734  1.00  0.00    -0.267 OA
BRANCH  25  28
HETATM   28  C   UNL     1      -5.780   1.358 -32.615  1.00  0.00     0.035 A 
HETATM   29  C   UNL     1      -6.402   1.171 -33.848  1.00  0.00     0.030 A 
HETATM   30  C   UNL     1      -6.303  -0.054 -34.519  1.00  0.00     0.010 A 
HETATM   31  C   UNL     1      -5.563  -1.114 -33.982  1.00  0.00    -0.054 A 
HETATM   32  C   UNL     1      -4.926  -0.918 -32.751  1.00  0.00     0.010 A 
HETATM   33  C   UNL     1      -5.036   0.303 -32.074  1.00  0.00     0.030 A 
BRANCH  31  34
HETATM   34  C   UNL     1      -5.478  -2.465 -34.673  1.00  0.00     0.014 C 
HETATM   35  C   UNL     1      -4.302  -3.264 -34.098  1.00  0.00     0.015 C 
BRANCH  34  36
HETATM   36  C   UNL     1      -6.774  -3.297 -34.596  1.00  0.00     0.004 C 
HETATM   37  C   UNL     1      -6.720  -4.568 -35.435  1.00  0.00     0.006 C 
ENDBRANCH  34  36
ENDBRANCH  31  34
ENDBRANCH  25  28
ENDBRANCH   1  24
TORSDOF 8
ENDMDL
MODEL 7
REMARK VINA RESULT:      -8.3      6.303     13.530
REMARK  8 active torsions:
REMARK  status: ('A' for Active; 'I' for Inactive)
REMARK    1  A    between atoms: C_2  and  C_3 
REMARK    2  A    between atoms: C_3  and  C_4 
REMARK    3  A    between atoms: C_7  and  N_8 
REMARK       I    between atoms: N_8  and  C_9 
REMARK    4  A    between atoms: C_9  and  C_10 
REMARK    5  A    between atoms: C_13  and  N_14 
REMARK       I    between atoms: N_14  and  C_15 
REMARK    6  A    between atoms: C_15  and  C_16 
REMARK    7  A    between atoms: C_16  and  C_17 
REMARK    8  A    between atoms: C_19  and  N_20 
ROOT
HETATM    1  C   UNL     1     -11.586   1.801 -33.687  1.00  0.00     0.032 A 
HETATM    2  C   UNL     1     -11.011   0.551 -33.429  1.00  0.00     0.019 A 
HETATM    3  C   UNL     1      -9.616   0.410 -33.371  1.00  0.00     0.030 A 
HETATM    4  C   UNL     1      -8.782   1.507 -33.588  1.00  0.00     0.034 A 
HETATM    5  C   UNL     1      -9.358   2.747 -33.882  1.00  0.00     0.030 A 
HETATM    6  C   UNL     1     -10.746   2.894 -33.931  1.00  0.00     0.019 A 
ENDROOT
BRANCH   4   7
HETATM    7  N   UNL     1      -7.376   1.465 -33.527  1.00  0.00    -0.327 N 
HETATM    8  C   UNL     1      -6.580   0.619 -32.781  1.00  0.00     0.223 C 
HETATM    9  O   UNL     1      -6.965  -0.290 -32.053  1.00  0.00    -0.273 OA
HETATM   10  H   UNL     1      -6.899   2.120 -34.149  1.00  0.00     0.169 HD
BRANCH   8  11
HETATM   11  C   UNL     1      -5.095   0.892 -32.943  1.00  0.00     0.128 C 
BRANCH  11  12
HETATM   12  C   UNL     1      -4.678   2.045 -32.046  1.00  0.00     0.158 C 
HETATM   13  S   UNL     1      -4.462   3.590 -32.983  1.00  0.00    -0.077 SA
HETATM   14  C   UNL     1      -3.014   3.964 -32.058  1.00  0.00     0.168 C 
HETATM   15  N   UNL     1      -2.555   2.992 -31.339  1.00  0.00    -0.189 NA
HETATM   16  C   UNL     1      -3.289   1.839 -31.461  1.00  0.00     0.260 C 
HETATM   17  O   UNL     1      -2.883   0.735 -31.111  1.00  0.00    -0.270 OA
BRANCH  14  18
HETATM   18  N   UNL     1      -2.490   5.236 -32.091  1.00  0.00    -0.360 N 
HETATM   19  C   UNL     1      -1.632   5.790 -31.039  1.00  0.00     0.125 C 
HETATM   20  C   UNL     1      -0.528   6.639 -31.667  1.00  0.00     0.020 C 
HETATM   21  C   UNL     1      -1.107   7.723 -32.572  1.00  0.00     0.003 C 
HETATM   22  C   UNL     1      -2.063   7.120 -33.596  1.00  0.00     0.020 C 
HETATM   23  C   UNL     1      -3.134   6.262 -32.922  1.00  0.00     0.125 C 
ENDBRANCH  14  18
ENDBRANCH  11  12
ENDBRANCH   8  11
ENDBRANCH   4   7
BRANCH   1  24
HETATM   24  C   UNL     1     -13.061   2.045 -33.712  1.00  0.00     0.256 C 
HETATM   25  N   UNL     1     -13.633   2.423 -32.510  1.00  0.00    -0.323 N 
HETATM   26  H   UNL     1     -13.039   2.464 -31.696  1.00  0.00     0.169 HD
HETATM   27  O   UNL     1     -13.640   1.929 -34.787  1.00  0.00    -0.267 OA
BRANCH  25  28
HETATM   28  C   UNL     1     -14.960   2.863 -32.303  1.00  0.00     0.035 A 
HETATM   29  C   UNL     1     -16.077   2.031 -32.366  1.00  0.00     0.030 A 
HETATM   30  C   UNL     1     -17.367   2.555 -32.215  1.00  0.00     0.010 A 
HETATM   31  C   UNL     1     -17.569   3.919 -31.977  1.00  0.00    -0.054 A 
HETATM   32  C   UNL     1     -16.444   4.750 -31.898  1.00  0.00     0.010 A 
HETATM   33  C   UNL     1     -15.155   4.228 -32.063  1.00  0.00     0.030 A 
BRANCH  31  34
HETATM   34  C   UNL     1     -18.961   4.515 -31.852  1.00  0.00     0.014 C 
HETATM   35  C   UNL     1     -19.121   5.168 -30.474  1.00  0.00     0.015 C 
BRANCH  34  36
HETATM   36  C   UNL     1     -19.319   5.524 -32.963  1.00  0.00     0.004 C 
HETATM   37  C   UNL     1     -19.485   4.873 -34.331  1.00  0.00     0.006 C 
ENDBRANCH  34  36
ENDBRANCH  31  34
ENDBRANCH  25  28
ENDBRANCH   1  24
TORSDOF 8
ENDMDL
MODEL 8
REMARK VINA RESULT:      -8.3      3.549     12.337
REMARK  8 active torsions:
REMARK  status: ('A' for Active; 'I' for Inactive)
REMARK    1  A    between atoms: C_2  and  C_3 
REMARK    2  A    between atoms: C_3  and  C_4 
REMARK    3  A    between atoms: C_7  and  N_8 
REMARK       I    between atoms: N_8  and  C_9 
REMARK    4  A    between atoms: C_9  and  C_10 
REMARK    5  A    between atoms: C_13  and  N_14 
REMARK       I    between atoms: N_14  and  C_15 
REMARK    6  A    between atoms: C_15  and  C_16 
REMARK    7  A    between atoms: C_16  and  C_17 
REMARK    8  A    between atoms: C_19  and  N_20 
ROOT
HETATM    1  C   UNL     1      -4.111   4.391 -31.251  1.00  0.00     0.032 A 
HETATM    2  C   UNL     1      -3.112   5.344 -31.022  1.00  0.00     0.019 A 
HETATM    3  C   UNL     1      -3.369   6.457 -30.205  1.00  0.00     0.030 A 
HETATM    4  C   UNL     1      -4.624   6.639 -29.626  1.00  0.00     0.034 A 
HETATM    5  C   UNL     1      -5.632   5.704 -29.888  1.00  0.00     0.030 A 
HETATM    6  C   UNL     1      -5.379   4.591 -30.692  1.00  0.00     0.019 A 
ENDROOT
BRANCH   4   7
HETATM    7  N   UNL     1      -4.965   7.710 -28.778  1.00  0.00    -0.327 N 
HETATM    8  C   UNL     1      -5.234   7.672 -27.425  1.00  0.00     0.223 C 
HETATM    9  O   UNL     1      -5.185   6.684 -26.699  1.00  0.00    -0.273 OA
HETATM   10  H   UNL     1      -4.969   8.629 -29.225  1.00  0.00     0.169 HD
BRANCH   8  11
HETATM   11  C   UNL     1      -5.601   9.027 -26.846  1.00  0.00     0.128 C 
BRANCH  11  12
HETATM   12  C   UNL     1      -4.376   9.674 -26.222  1.00  0.00     0.158 C 
HETATM   13  S   UNL     1      -2.874   9.372 -27.205  1.00  0.00    -0.077 SA
HETATM   14  C   UNL     1      -1.952   9.090 -25.735  1.00  0.00     0.168 C 
HETATM   15  N   UNL     1      -2.660   8.953 -24.660  1.00  0.00    -0.189 NA
HETATM   16  C   UNL     1      -4.010   9.035 -24.891  1.00  0.00     0.260 C 
HETATM   17  O   UNL     1      -4.860   8.653 -24.092  1.00  0.00    -0.270 OA
BRANCH  14  18
HETATM   18  N   UNL     1      -0.577   9.087 -25.779  1.00  0.00    -0.360 N 
HETATM   19  C   UNL     1       0.269   9.814 -24.827  1.00  0.00     0.125 C 
HETATM   20  C   UNL     1       1.499   8.976 -24.485  1.00  0.00     0.020 C 
HETATM   21  C   UNL     1       2.261   8.567 -25.743  1.00  0.00     0.003 C 
HETATM   22  C   UNL     1       1.330   7.894 -26.746  1.00  0.00     0.020 C 
HETATM   23  C   UNL     1       0.105   8.761 -27.039  1.00  0.00     0.125 C 
ENDBRANCH  14  18
ENDBRANCH  11  12
ENDBRANCH   8  11
ENDBRANCH   4   7
BRANCH   1  24
HETATM   24  C   UNL     1      -3.903   3.152 -32.063  1.00  0.00     0.256 C 
HETATM   25  N   UNL     1      -4.581   2.025 -31.635  1.00  0.00    -0.323 N 
HETATM   26  H   UNL     1      -5.127   2.095 -30.790  1.00  0.00     0.169 HD
HETATM   27  O   UNL     1      -3.185   3.235 -33.055  1.00  0.00    -0.267 OA
BRANCH  25  28
HETATM   28  C   UNL     1      -4.680   0.787 -32.309  1.00  0.00     0.035 A 
HETATM   29  C   UNL     1      -3.712  -0.214 -32.249  1.00  0.00     0.030 A 
HETATM   30  C   UNL     1      -3.852  -1.388 -32.999  1.00  0.00     0.010 A 
HETATM   31  C   UNL     1      -4.972  -1.597 -33.811  1.00  0.00    -0.054 A 
HETATM   32  C   UNL     1      -5.951  -0.597 -33.857  1.00  0.00     0.010 A 
HETATM   33  C   UNL     1      -5.805   0.583 -33.117  1.00  0.00     0.030 A 
BRANCH  31  34
HETATM   34  C   UNL     1      -5.123  -2.845 -34.666  1.00  0.00     0.014 C 
HETATM   35  C   UNL     1      -4.114  -3.906 -34.211  1.00  0.00     0.015 C 
BRANCH  34  36
HETATM   36  C   UNL     1      -6.548  -3.435 -34.676  1.00  0.00     0.004 C 
HETATM   37  C   UNL     1      -6.729  -4.543 -35.705  1.00  0.00     0.006 C 
ENDBRANCH  34  36
ENDBRANCH  31  34
ENDBRANCH  25  28
ENDBRANCH   1  24
TORSDOF 8
ENDMDL
MODEL 9
REMARK VINA RESULT:      -8.3      2.261      4.069
REMARK  8 active torsions:
REMARK  status: ('A' for Active; 'I' for Inactive)
REMARK    1  A    between atoms: C_2  and  C_3 
REMARK    2  A    between atoms: C_3  and  C_4 
REMARK    3  A    between atoms: C_7  and  N_8 
REMARK       I    between atoms: N_8  and  C_9 
REMARK    4  A    between atoms: C_9  and  C_10 
REMARK    5  A    between atoms: C_13  and  N_14 
REMARK       I    between atoms: N_14  and  C_15 
REMARK    6  A    between atoms: C_15  and  C_16 
REMARK    7  A    between atoms: C_16  and  C_17 
REMARK    8  A    between atoms: C_19  and  N_20 
ROOT
HETATM    1  C   UNL     1      -2.544   5.913 -30.606  1.00  0.00     0.032 A 
HETATM    2  C   UNL     1      -3.942   5.843 -30.582  1.00  0.00     0.019 A 
HETATM    3  C   UNL     1      -4.610   4.789 -31.226  1.00  0.00     0.030 A 
HETATM    4  C   UNL     1      -3.894   3.809 -31.912  1.00  0.00     0.034 A 
HETATM    5  C   UNL     1      -2.499   3.902 -31.966  1.00  0.00     0.030 A 
HETATM    6  C   UNL     1      -1.830   4.944 -31.319  1.00  0.00     0.019 A 
ENDROOT
BRANCH   4   7
HETATM    7  N   UNL     1      -4.476   2.705 -32.566  1.00  0.00    -0.327 N 
HETATM    8  C   UNL     1      -5.025   1.573 -32.001  1.00  0.00     0.223 C 
HETATM    9  O   UNL     1      -5.142   1.340 -30.802  1.00  0.00    -0.273 OA
HETATM   10  H   UNL     1      -4.527   2.787 -33.583  1.00  0.00     0.169 HD
BRANCH   8  11
HETATM   11  C   UNL     1      -5.529   0.573 -33.027  1.00  0.00     0.128 C 
BRANCH  11  12
HETATM   12  C   UNL     1      -6.513   1.247 -33.968  1.00  0.00     0.158 C 
HETATM   13  S   UNL     1      -7.921   1.974 -33.073  1.00  0.00    -0.077 SA
HETATM   14  C   UNL     1      -9.025   1.396 -34.313  1.00  0.00     0.168 C 
HETATM   15  N   UNL     1      -8.519   0.546 -35.148  1.00  0.00    -0.189 NA
HETATM   16  C   UNL     1      -7.207   0.246 -34.879  1.00  0.00     0.260 C 
HETATM   17  O   UNL     1      -6.624  -0.729 -35.346  1.00  0.00    -0.270 OA
BRANCH  14  18
HETATM   18  N   UNL     1     -10.306   1.895 -34.376  1.00  0.00    -0.360 N 
HETATM   19  C   UNL     1     -10.618   3.305 -34.632  1.00  0.00     0.125 C 
HETATM   20  C   UNL     1     -11.844   3.407 -35.536  1.00  0.00     0.020 C 
HETATM   21  C   UNL     1     -13.032   2.648 -34.950  1.00  0.00     0.003 C 
HETATM   22  C   UNL     1     -12.645   1.211 -34.613  1.00  0.00     0.020 C 
HETATM   23  C   UNL     1     -11.401   1.162 -33.727  1.00  0.00     0.125 C 
ENDBRANCH  14  18
ENDBRANCH  11  12
ENDBRANCH   8  11
ENDBRANCH   4   7
BRANCH   1  24
HETATM   24  C   UNL     1      -1.757   6.971 -29.901  1.00  0.00     0.256 C 
HETATM   25  N   UNL     1      -1.368   6.676 -28.606  1.00  0.00    -0.323 N 
HETATM   26  H   UNL     1      -1.675   5.802 -28.208  1.00  0.00     0.169 HD
HETATM   27  O   UNL     1      -1.486   7.992 -30.526  1.00  0.00    -0.267 OA
BRANCH  25  28
HETATM   28  C   UNL     1      -0.492   7.428 -27.791  1.00  0.00     0.035 A 
HETATM   29  C   UNL     1       0.869   7.161 -27.654  1.00  0.00     0.030 A 
HETATM   30  C   UNL     1       1.659   7.911 -26.774  1.00  0.00     0.010 A 
HETATM   31  C   UNL     1       1.110   8.958 -26.026  1.00  0.00    -0.054 A 
HETATM   32  C   UNL     1      -0.254   9.235 -26.176  1.00  0.00     0.010 A 
HETATM   33  C   UNL     1      -1.047   8.476 -27.047  1.00  0.00     0.030 A 
BRANCH  31  34
HETATM   34  C   UNL     1       1.939   9.757 -25.034  1.00  0.00     0.014 C 
HETATM   35  C   UNL     1       1.035  10.290 -23.916  1.00  0.00     0.015 C 
BRANCH  34  36
HETATM   36  C   UNL     1       3.126   8.978 -24.430  1.00  0.00     0.004 C 
HETATM   37  C   UNL     1       3.414   9.352 -22.982  1.00  0.00     0.006 C 
ENDBRANCH  34  36
ENDBRANCH  31  34
ENDBRANCH  25  28
ENDBRANCH   1  24
TORSDOF 8
ENDMDL
MODEL 10
REMARK VINA RESULT:      -8.2      8.056     13.339
REMARK  8 active torsions:
REMARK  status: ('A' for Active; 'I' for Inactive)
REMARK    1  A    between atoms: C_2  and  C_3 
REMARK    2  A    between atoms: C_3  and  C_4 
REMARK    3  A    between atoms: C_7  and  N_8 
REMARK       I    between atoms: N_8  and  C_9 
REMARK    4  A    between atoms: C_9  and  C_10 
REMARK    5  A    between atoms: C_13  and  N_14 
REMARK       I    between atoms: N_14  and  C_15 
REMARK    6  A    between atoms: C_15  and  C_16 
REMARK    7  A    between atoms: C_16  and  C_17 
REMARK    8  A    between atoms: C_19  and  N_20 
ROOT
HETATM    1  C   UNL     1      -7.102   4.233 -29.978  1.00  0.00     0.032 A 
HETATM    2  C   UNL     1      -6.494   4.978 -28.961  1.00  0.00     0.019 A 
HETATM    3  C   UNL     1      -7.224   5.955 -28.266  1.00  0.00     0.030 A 
HETATM    4  C   UNL     1      -8.557   6.210 -28.588  1.00  0.00     0.034 A 
HETATM    5  C   UNL     1      -9.151   5.489 -29.630  1.00  0.00     0.030 A 
HETATM    6  C   UNL     1      -8.431   4.510 -30.319  1.00  0.00     0.019 A 
ENDROOT
BRANCH   4   7
HETATM    7  N   UNL     1      -9.371   7.152 -27.931  1.00  0.00    -0.327 N 
HETATM    8  C   UNL     1      -9.517   8.495 -28.213  1.00  0.00     0.223 C 
HETATM    9  O   UNL     1      -8.981   9.110 -29.129  1.00  0.00    -0.273 OA
HETATM   10  H   UNL     1      -9.951   6.771 -27.182  1.00  0.00     0.169 HD
BRANCH   8  11
HETATM   11  C   UNL     1     -10.463   9.210 -27.263  1.00  0.00     0.128 C 
BRANCH  11  12
HETATM   12  C   UNL     1     -11.550   8.255 -26.798  1.00  0.00     0.158 C 
HETATM   13  S   UNL     1     -13.205   9.002 -26.914  1.00  0.00    -0.077 SA
HETATM   14  C   UNL     1     -13.643   8.305 -25.360  1.00  0.00     0.168 C 
HETATM   15  N   UNL     1     -12.658   7.813 -24.681  1.00  0.00    -0.189 NA
HETATM   16  C   UNL     1     -11.447   7.956 -25.311  1.00  0.00     0.260 C 
HETATM   17  O   UNL     1     -10.366   7.832 -24.740  1.00  0.00    -0.270 OA
BRANCH  14  18
HETATM   18  N   UNL     1     -14.964   8.261 -24.978  1.00  0.00    -0.360 N 
HETATM   19  C   UNL     1     -16.026   7.656 -25.789  1.00  0.00     0.125 C 
HETATM   20  C   UNL     1     -17.010   6.918 -24.883  1.00  0.00     0.020 C 
HETATM   21  C   UNL     1     -17.563   7.837 -23.797  1.00  0.00     0.003 C 
HETATM   22  C   UNL     1     -16.430   8.517 -23.034  1.00  0.00     0.020 C 
HETATM   23  C   UNL     1     -15.461   9.221 -23.984  1.00  0.00     0.125 C 
ENDBRANCH  14  18
ENDBRANCH  11  12
ENDBRANCH   8  11
ENDBRANCH   4   7
BRANCH   1  24
HETATM   24  C   UNL     1      -6.411   3.139 -30.729  1.00  0.00     0.256 C 
HETATM   25  N   UNL     1      -7.230   2.164 -31.269  1.00  0.00    -0.323 N 
HETATM   26  H   UNL     1      -8.220   2.223 -31.087  1.00  0.00     0.169 HD
HETATM   27  O   UNL     1      -5.191   3.206 -30.839  1.00  0.00    -0.267 OA
BRANCH  25  28
HETATM   28  C   UNL     1      -6.846   1.124 -32.147  1.00  0.00     0.035 A 
HETATM   29  C   UNL     1      -7.377   0.945 -33.423  1.00  0.00     0.030 A 
HETATM   30  C   UNL     1      -6.994  -0.150 -34.208  1.00  0.00     0.010 A 
HETATM   31  C   UNL     1      -6.056  -1.078 -33.744  1.00  0.00    -0.054 A 
HETATM   32  C   UNL     1      -5.512  -0.887 -32.467  1.00  0.00     0.010 A 
HETATM   33  C   UNL     1      -5.905   0.200 -31.677  1.00  0.00     0.030 A 
BRANCH  31  34
HETATM   34  C   UNL     1      -5.658  -2.296 -34.561  1.00  0.00     0.014 C 
HETATM   35  C   UNL     1      -4.360  -2.891 -34.002  1.00  0.00     0.015 C 
BRANCH  34  36
HETATM   36  C   UNL     1      -6.748  -3.384 -34.647  1.00  0.00     0.004 C 
HETATM   37  C   UNL     1      -6.364  -4.546 -35.554  1.00  0.00     0.006 C 
ENDBRANCH  34  36
ENDBRANCH  31  34
ENDBRANCH  25  28
ENDBRANCH   1  24
TORSDOF 8
ENDMDL
