MODEL 1
REMARK VINA RESULT:      -9.6      0.000      0.000
REMARK  3 active torsions:
REMARK  status: ('A' for Active; 'I' for Inactive)
REMARK    1  A    between atoms: C_4  and  C_5 
REMARK    2  A    between atoms: C_9  and  C_10 
REMARK       I    between atoms: C_10  and  N_11 
REMARK    3  A    between atoms: N_11  and  N_12 
ROOT
HETATM    1  C   UNL     1      -8.184   2.165 -33.488  1.00  0.00     0.289 C 
HETATM    2  N   UNL     1      -9.064   2.342 -34.545  1.00  0.00    -0.241 N 
HETATM    3  O   UNL     1      -8.171   2.841 -32.466  1.00  0.00    -0.264 OA
HETATM    4  H   UNL     1      -8.917   1.826 -35.399  1.00  0.00     0.192 HD
ENDROOT
BRANCH   1   5
HETATM    5  C   UNL     1      -7.285   1.050 -33.664  1.00  0.00     0.121 A 
HETATM    6  N   UNL     1      -5.959   1.142 -33.346  1.00  0.00    -0.272 N 
HETATM    7  N   UNL     1      -5.280  -0.008 -33.486  1.00  0.00    -0.174 NA
HETATM    8  H   UNL     1      -5.474   1.963 -32.994  1.00  0.00     0.189 HD
HETATM    9  C   UNL     1      -6.182  -0.880 -33.962  1.00  0.00     0.089 A 
HETATM   10  C   UNL     1      -7.449  -0.250 -34.104  1.00  0.00     0.071 A 
BRANCH   9  11
HETATM   11  C   UNL     1      -5.848  -2.279 -34.235  1.00  0.00    -0.006 A 
HETATM   12  C   UNL     1      -4.557  -2.763 -33.977  1.00  0.00     0.014 A 
HETATM   13  C   UNL     1      -4.243  -4.107 -34.193  1.00  0.00     0.001 A 
HETATM   14  C   UNL     1      -5.214  -4.981 -34.677  1.00  0.00     0.000 A 
HETATM   15  C   UNL     1      -6.497  -4.511 -34.951  1.00  0.00     0.001 A 
HETATM   16  C   UNL     1      -6.813  -3.168 -34.731  1.00  0.00     0.014 A 
ENDBRANCH   9  11
ENDBRANCH   1   5
BRANCH   2  17
HETATM   17  N   UNL     1      -9.945   3.378 -34.572  1.00  0.00    -0.165 NA
HETATM   18  C   UNL     1     -11.209   3.113 -34.458  1.00  0.00     0.157 A 
HETATM   19  C   UNL     1     -12.283   4.196 -34.693  1.00  0.00     0.277 A 
HETATM   20  C   UNL     1     -11.952   1.882 -34.140  1.00  0.00     0.027 A 
HETATM   21  O   UNL     1     -12.094   5.366 -34.934  1.00  0.00    -0.266 OA
HETATM   22  N   UNL     1     -13.489   3.538 -34.596  1.00  0.00    -0.321 N 
HETATM   23  C   UNL     1     -13.305   2.201 -34.268  1.00  0.00     0.048 A 
HETATM   24  H   UNL     1     -14.374   4.010 -34.706  1.00  0.00     0.169 HD
HETATM   25  C   UNL     1     -14.301   1.272 -34.044  1.00  0.00     0.030 A 
HETATM   26  C   UNL     1     -13.910  -0.014 -33.660  1.00  0.00     0.002 A 
HETATM   27  C   UNL     1     -12.550  -0.332 -33.489  1.00  0.00     0.001 A 
HETATM   28  C   UNL     1     -11.555   0.625 -33.717  1.00  0.00     0.016 A 
ENDBRANCH   2  17
TORSDOF 3
ENDMDL
MODEL 2
REMARK VINA RESULT:      -9.1      1.944      7.875
REMARK  3 active torsions:
REMARK  status: ('A' for Active; 'I' for Inactive)
REMARK    1  A    between atoms: C_4  and  C_5 
REMARK    2  A    between atoms: C_9  and  C_10 
REMARK       I    between atoms: C_10  and  N_11 
REMARK    3  A    between atoms: N_11  and  N_12 
ROOT
HETATM    1  C   UNL     1      -6.908   2.089 -33.272  1.00  0.00     0.289 C 
HETATM    2  N   UNL     1      -6.547   1.154 -32.314  1.00  0.00    -0.241 N 
HETATM    3  O   UNL     1      -6.122   2.781 -33.909  1.00  0.00    -0.264 OA
HETATM    4  H   UNL     1      -7.264   0.727 -31.748  1.00  0.00     0.192 HD
ENDROOT
BRANCH   1   5
HETATM    5  C   UNL     1      -8.330   2.152 -33.511  1.00  0.00     0.121 A 
HETATM    6  N   UNL     1      -8.909   3.239 -34.104  1.00  0.00    -0.272 N 
HETATM    7  N   UNL     1     -10.225   3.103 -34.334  1.00  0.00    -0.174 NA
HETATM    8  H   UNL     1      -8.440   4.089 -34.404  1.00  0.00     0.189 HD
HETATM    9  C   UNL     1     -10.536   1.900 -33.828  1.00  0.00     0.089 A 
HETATM   10  C   UNL     1      -9.377   1.278 -33.287  1.00  0.00     0.071 A 
BRANCH   9  11
HETATM   11  C   UNL     1     -11.891   1.350 -33.896  1.00  0.00    -0.006 A 
HETATM   12  C   UNL     1     -12.128   0.006 -33.572  1.00  0.00     0.014 A 
HETATM   13  C   UNL     1     -13.424  -0.515 -33.591  1.00  0.00     0.001 A 
HETATM   14  C   UNL     1     -14.498   0.301 -33.943  1.00  0.00     0.000 A 
HETATM   15  C   UNL     1     -14.276   1.635 -34.280  1.00  0.00     0.001 A 
HETATM   16  C   UNL     1     -12.981   2.157 -34.256  1.00  0.00     0.014 A 
ENDBRANCH   9  11
ENDBRANCH   1   5
BRANCH   2  17
HETATM   17  N   UNL     1      -5.254   0.999 -31.923  1.00  0.00    -0.165 NA
HETATM   18  C   UNL     1      -4.642  -0.098 -32.243  1.00  0.00     0.157 A 
HETATM   19  C   UNL     1      -3.256  -0.447 -31.662  1.00  0.00     0.277 A 
HETATM   20  C   UNL     1      -5.001  -1.229 -33.115  1.00  0.00     0.027 A 
HETATM   21  O   UNL     1      -2.581   0.242 -30.932  1.00  0.00    -0.266 OA
HETATM   22  N   UNL     1      -2.974  -1.712 -32.129  1.00  0.00    -0.321 N 
HETATM   23  C   UNL     1      -3.974  -2.166 -32.977  1.00  0.00     0.048 A 
HETATM   24  H   UNL     1      -2.116  -2.194 -31.904  1.00  0.00     0.169 HD
HETATM   25  C   UNL     1      -3.984  -3.368 -33.657  1.00  0.00     0.030 A 
HETATM   26  C   UNL     1      -5.058  -3.615 -34.516  1.00  0.00     0.002 A 
HETATM   27  C   UNL     1      -6.075  -2.659 -34.692  1.00  0.00     0.001 A 
HETATM   28  C   UNL     1      -6.046  -1.445 -33.997  1.00  0.00     0.016 A 
ENDBRANCH   2  17
TORSDOF 3
ENDMDL
MODEL 3
REMARK VINA RESULT:      -9.0      4.554      7.487
REMARK  3 active torsions:
REMARK  status: ('A' for Active; 'I' for Inactive)
REMARK    1  A    between atoms: C_4  and  C_5 
REMARK    2  A    between atoms: C_9  and  C_10 
REMARK       I    between atoms: C_10  and  N_11 
REMARK    3  A    between atoms: N_11  and  N_12 
ROOT
HETATM    1  C   UNL     1      -6.250   2.781 -32.134  1.00  0.00     0.289 C 
HETATM    2  N   UNL     1      -4.969   3.206 -31.819  1.00  0.00    -0.241 N 
HETATM    3  O   UNL     1      -7.280   3.374 -31.836  1.00  0.00    -0.264 OA
HETATM    4  H   UNL     1      -4.189   2.590 -31.989  1.00  0.00     0.192 HD
ENDROOT
BRANCH   1   5
HETATM    5  C   UNL     1      -6.280   1.569 -32.918  1.00  0.00     0.121 A 
HETATM    6  N   UNL     1      -6.654   1.576 -34.233  1.00  0.00    -0.272 N 
HETATM    7  N   UNL     1      -6.544   0.384 -34.841  1.00  0.00    -0.174 NA
HETATM    8  H   UNL     1      -6.960   2.381 -34.774  1.00  0.00     0.189 HD
HETATM    9  C   UNL     1      -6.130  -0.453 -33.877  1.00  0.00     0.089 A 
HETATM   10  C   UNL     1      -5.969   0.250 -32.650  1.00  0.00     0.071 A 
BRANCH   9  11
HETATM   11  C   UNL     1      -5.861  -1.869 -34.133  1.00  0.00    -0.006 A 
HETATM   12  C   UNL     1      -6.869  -2.701 -34.640  1.00  0.00     0.014 A 
HETATM   13  C   UNL     1      -6.609  -4.043 -34.929  1.00  0.00     0.001 A 
HETATM   14  C   UNL     1      -5.339  -4.570 -34.706  1.00  0.00     0.000 A 
HETATM   15  C   UNL     1      -4.330  -3.758 -34.190  1.00  0.00     0.001 A 
HETATM   16  C   UNL     1      -4.589  -2.415 -33.905  1.00  0.00     0.014 A 
ENDBRANCH   9  11
ENDBRANCH   1   5
BRANCH   2  17
HETATM   17  N   UNL     1      -4.754   4.300 -31.039  1.00  0.00    -0.165 NA
HETATM   18  C   UNL     1      -3.821   5.129 -31.388  1.00  0.00     0.157 A 
HETATM   19  C   UNL     1      -3.368   6.272 -30.454  1.00  0.00     0.277 A 
HETATM   20  C   UNL     1      -2.980   5.246 -32.591  1.00  0.00     0.027 A 
HETATM   21  O   UNL     1      -3.839   6.559 -29.378  1.00  0.00    -0.266 OA
HETATM   22  N   UNL     1      -2.305   6.867 -31.097  1.00  0.00    -0.321 N 
HETATM   23  C   UNL     1      -2.081   6.285 -32.338  1.00  0.00     0.048 A 
HETATM   24  H   UNL     1      -1.810   7.656 -30.710  1.00  0.00     0.169 HD
HETATM   25  C   UNL     1      -1.130   6.671 -33.261  1.00  0.00     0.030 A 
HETATM   26  C   UNL     1      -1.105   5.996 -34.484  1.00  0.00     0.002 A 
HETATM   27  C   UNL     1      -2.033   4.976 -34.763  1.00  0.00     0.001 A 
HETATM   28  C   UNL     1      -2.992   4.601 -33.816  1.00  0.00     0.016 A 
ENDBRANCH   2  17
TORSDOF 3
ENDMDL
MODEL 4
REMARK VINA RESULT:      -8.9      5.142      7.181
REMARK  3 active torsions:
REMARK  status: ('A' for Active; 'I' for Inactive)
REMARK    1  A    between atoms: C_4  and  C_5 
REMARK    2  A    between atoms: C_9  and  C_10 
REMARK       I    between atoms: C_10  and  N_11 
REMARK    3  A    between atoms: N_11  and  N_12 
ROOT
HETATM    1  C   UNL     1      -5.002   2.452 -31.555  1.00  0.00     0.289 C 
HETATM    2  N   UNL     1      -5.363   3.499 -32.389  1.00  0.00    -0.241 N 
HETATM    3  O   UNL     1      -4.921   2.523 -30.334  1.00  0.00    -0.264 OA
HETATM    4  H   UNL     1      -5.275   3.386 -33.387  1.00  0.00     0.192 HD
ENDROOT
BRANCH   1   5
HETATM    5  C   UNL     1      -4.770   1.210 -32.253  1.00  0.00     0.121 A 
HETATM    6  N   UNL     1      -3.506   0.764 -32.522  1.00  0.00    -0.272 N 
HETATM    7  N   UNL     1      -3.463  -0.448 -33.099  1.00  0.00    -0.174 NA
HETATM    8  H   UNL     1      -2.635   1.238 -32.300  1.00  0.00     0.189 HD
HETATM    9  C   UNL     1      -4.749  -0.793 -33.262  1.00  0.00     0.089 A 
HETATM   10  C   UNL     1      -5.602   0.229 -32.759  1.00  0.00     0.071 A 
BRANCH   9  11
HETATM   11  C   UNL     1      -5.146  -2.076 -33.845  1.00  0.00    -0.006 A 
HETATM   12  C   UNL     1      -4.235  -3.141 -33.903  1.00  0.00     0.014 A 
HETATM   13  C   UNL     1      -4.619  -4.382 -34.417  1.00  0.00     0.001 A 
HETATM   14  C   UNL     1      -5.917  -4.569 -34.886  1.00  0.00     0.000 A 
HETATM   15  C   UNL     1      -6.830  -3.517 -34.848  1.00  0.00     0.001 A 
HETATM   16  C   UNL     1      -6.447  -2.277 -34.330  1.00  0.00     0.014 A 
ENDBRANCH   9  11
ENDBRANCH   1   5
BRANCH   2  17
HETATM   17  N   UNL     1      -5.565   4.755 -31.907  1.00  0.00    -0.165 NA
HETATM   18  C   UNL     1      -4.661   5.654 -32.139  1.00  0.00     0.157 A 
HETATM   19  C   UNL     1      -4.705   7.036 -31.453  1.00  0.00     0.277 A 
HETATM   20  C   UNL     1      -3.454   5.671 -32.983  1.00  0.00     0.027 A 
HETATM   21  O   UNL     1      -5.565   7.451 -30.711  1.00  0.00    -0.266 OA
HETATM   22  N   UNL     1      -3.549   7.673 -31.845  1.00  0.00    -0.321 N 
HETATM   23  C   UNL     1      -2.825   6.893 -32.737  1.00  0.00     0.048 A 
HETATM   24  H   UNL     1      -3.316   8.608 -31.544  1.00  0.00     0.169 HD
HETATM   25  C   UNL     1      -1.647   7.249 -33.363  1.00  0.00     0.030 A 
HETATM   26  C   UNL     1      -1.104   6.345 -34.280  1.00  0.00     0.002 A 
HETATM   27  C   UNL     1      -1.753   5.129 -34.563  1.00  0.00     0.001 A 
HETATM   28  C   UNL     1      -2.948   4.787 -33.921  1.00  0.00     0.016 A 
ENDBRANCH   2  17
TORSDOF 3
ENDMDL
MODEL 5
REMARK VINA RESULT:      -8.5      1.969      8.045
REMARK  3 active torsions:
REMARK  status: ('A' for Active; 'I' for Inactive)
REMARK    1  A    between atoms: C_4  and  C_5 
REMARK    2  A    between atoms: C_9  and  C_10 
REMARK       I    between atoms: C_10  and  N_11 
REMARK    3  A    between atoms: N_11  and  N_12 
ROOT
HETATM    1  C   UNL     1      -7.801   2.997 -33.456  1.00  0.00     0.289 C 
HETATM    2  N   UNL     1      -7.256   1.968 -32.704  1.00  0.00    -0.241 N 
HETATM    3  O   UNL     1      -7.159   3.900 -33.980  1.00  0.00    -0.264 OA
HETATM    4  H   UNL     1      -7.872   1.345 -32.203  1.00  0.00     0.192 HD
ENDROOT
BRANCH   1   5
HETATM    5  C   UNL     1      -9.231   2.893 -33.628  1.00  0.00     0.121 A 
HETATM    6  N   UNL     1      -9.799   2.815 -34.869  1.00  0.00    -0.272 N 
HETATM    7  N   UNL     1     -11.130   2.636 -34.853  1.00  0.00    -0.174 NA
HETATM    8  H   UNL     1      -9.314   2.845 -35.763  1.00  0.00     0.189 HD
HETATM    9  C   UNL     1     -11.459   2.645 -33.552  1.00  0.00     0.089 A 
HETATM   10  C   UNL     1     -10.297   2.822 -32.751  1.00  0.00     0.071 A 
BRANCH   9  11
HETATM   11  C   UNL     1     -12.836   2.453 -33.093  1.00  0.00    -0.006 A 
HETATM   12  C   UNL     1     -13.420   3.366 -32.204  1.00  0.00     0.014 A 
HETATM   13  C   UNL     1     -14.747   3.214 -31.795  1.00  0.00     0.001 A 
HETATM   14  C   UNL     1     -15.503   2.142 -32.265  1.00  0.00     0.000 A 
HETATM   15  C   UNL     1     -14.931   1.219 -33.139  1.00  0.00     0.001 A 
HETATM   16  C   UNL     1     -13.605   1.373 -33.551  1.00  0.00     0.014 A 
ENDBRANCH   9  11
ENDBRANCH   1   5
BRANCH   2  17
HETATM   17  N   UNL     1      -5.932   1.936 -32.396  1.00  0.00    -0.165 NA
HETATM   18  C   UNL     1      -5.259   0.866 -32.686  1.00  0.00     0.157 A 
HETATM   19  C   UNL     1      -3.815   0.661 -32.181  1.00  0.00     0.277 A 
HETATM   20  C   UNL     1      -5.585  -0.347 -33.454  1.00  0.00     0.027 A 
HETATM   21  O   UNL     1      -3.149   1.448 -31.548  1.00  0.00    -0.266 OA
HETATM   22  N   UNL     1      -3.467  -0.609 -32.583  1.00  0.00    -0.321 N 
HETATM   23  C   UNL     1      -4.482  -1.194 -33.327  1.00  0.00     0.048 A 
HETATM   24  H   UNL     1      -2.562  -1.010 -32.388  1.00  0.00     0.169 HD
HETATM   25  C   UNL     1      -4.443  -2.439 -33.924  1.00  0.00     0.030 A 
HETATM   26  C   UNL     1      -5.549  -2.824 -34.687  1.00  0.00     0.002 A 
HETATM   27  C   UNL     1      -6.646  -1.960 -34.853  1.00  0.00     0.001 A 
HETATM   28  C   UNL     1      -6.666  -0.701 -34.243  1.00  0.00     0.016 A 
ENDBRANCH   2  17
TORSDOF 3
ENDMDL
MODEL 6
REMARK VINA RESULT:      -8.4      1.873      2.074
REMARK  3 active torsions:
REMARK  status: ('A' for Active; 'I' for Inactive)
REMARK    1  A    between atoms: C_4  and  C_5 
REMARK    2  A    between atoms: C_9  and  C_10 
REMARK       I    between atoms: C_10  and  N_11 
REMARK    3  A    between atoms: N_11  and  N_12 
ROOT
HETATM    1  C   UNL     1      -7.054   2.135 -31.881  1.00  0.00     0.289 C 
HETATM    2  N   UNL     1      -8.429   1.997 -31.768  1.00  0.00    -0.241 N 
HETATM    3  O   UNL     1      -6.404   3.074 -31.436  1.00  0.00    -0.264 OA
HETATM    4  H   UNL     1      -8.893   1.260 -32.277  1.00  0.00     0.192 HD
ENDROOT
BRANCH   1   5
HETATM    5  C   UNL     1      -6.413   1.022 -32.541  1.00  0.00     0.121 A 
HETATM    6  N   UNL     1      -5.082   1.044 -32.853  1.00  0.00    -0.272 N 
HETATM    7  N   UNL     1      -4.624  -0.101 -33.383  1.00  0.00    -0.174 NA
HETATM    8  H   UNL     1      -4.433   1.809 -32.690  1.00  0.00     0.189 HD
HETATM    9  C   UNL     1      -5.705  -0.892 -33.471  1.00  0.00     0.089 A 
HETATM   10  C   UNL     1      -6.851  -0.217 -32.968  1.00  0.00     0.071 A 
BRANCH   9  11
HETATM   11  C   UNL     1      -5.632  -2.261 -33.984  1.00  0.00    -0.006 A 
HETATM   12  C   UNL     1      -4.453  -3.008 -33.846  1.00  0.00     0.014 A 
HETATM   13  C   UNL     1      -4.389  -4.330 -34.293  1.00  0.00     0.001 A 
HETATM   14  C   UNL     1      -5.501  -4.917 -34.891  1.00  0.00     0.000 A 
HETATM   15  C   UNL     1      -6.676  -4.184 -35.047  1.00  0.00     0.001 A 
HETATM   16  C   UNL     1      -6.741  -2.863 -34.596  1.00  0.00     0.014 A 
ENDBRANCH   9  11
ENDBRANCH   1   5
BRANCH   2  17
HETATM   17  N   UNL     1      -9.200   2.976 -31.223  1.00  0.00    -0.165 NA
HETATM   18  C   UNL     1     -10.327   3.261 -31.796  1.00  0.00     0.157 A 
HETATM   19  C   UNL     1     -11.156   4.493 -31.375  1.00  0.00     0.277 A 
HETATM   20  C   UNL     1     -11.085   2.629 -32.889  1.00  0.00     0.027 A 
HETATM   21  O   UNL     1     -10.908   5.261 -30.475  1.00  0.00    -0.266 OA
HETATM   22  N   UNL     1     -12.212   4.538 -32.258  1.00  0.00    -0.321 N 
HETATM   23  C   UNL     1     -12.182   3.459 -33.131  1.00  0.00     0.048 A 
HETATM   24  H   UNL     1     -12.925   5.251 -32.214  1.00  0.00     0.169 HD
HETATM   25  C   UNL     1     -13.116   3.172 -34.106  1.00  0.00     0.030 A 
HETATM   26  C   UNL     1     -12.940   1.998 -34.843  1.00  0.00     0.002 A 
HETATM   27  C   UNL     1     -11.860   1.135 -34.578  1.00  0.00     0.001 A 
HETATM   28  C   UNL     1     -10.926   1.442 -33.583  1.00  0.00     0.016 A 
ENDBRANCH   2  17
TORSDOF 3
ENDMDL
MODEL 7
REMARK VINA RESULT:      -8.1      6.003      8.731
REMARK  3 active torsions:
REMARK  status: ('A' for Active; 'I' for Inactive)
REMARK    1  A    between atoms: C_4  and  C_5 
REMARK    2  A    between atoms: C_9  and  C_10 
REMARK       I    between atoms: C_10  and  N_11 
REMARK    3  A    between atoms: N_11  and  N_12 
ROOT
HETATM    1  C   UNL     1      -5.269   3.568 -30.611  1.00  0.00     0.289 C 
HETATM    2  N   UNL     1      -4.394   4.626 -30.806  1.00  0.00    -0.241 N 
HETATM    3  O   UNL     1      -6.231   3.583 -29.852  1.00  0.00    -0.264 OA
HETATM    4  H   UNL     1      -3.557   4.479 -31.349  1.00  0.00     0.192 HD
ENDROOT
BRANCH   1   5
HETATM    5  C   UNL     1      -4.984   2.422 -31.441  1.00  0.00     0.121 A 
HETATM    6  N   UNL     1      -3.701   2.068 -31.758  1.00  0.00    -0.272 N 
HETATM    7  N   UNL     1      -3.605   0.930 -32.464  1.00  0.00    -0.174 NA
HETATM    8  H   UNL     1      -2.852   2.555 -31.485  1.00  0.00     0.189 HD
HETATM    9  C   UNL     1      -4.875   0.544 -32.663  1.00  0.00     0.089 A 
HETATM   10  C   UNL     1      -5.771   1.464 -32.051  1.00  0.00     0.071 A 
BRANCH   9  11
HETATM   11  C   UNL     1      -5.214  -0.685 -33.383  1.00  0.00    -0.006 A 
HETATM   12  C   UNL     1      -6.512  -0.881 -33.877  1.00  0.00     0.014 A 
HETATM   13  C   UNL     1      -6.833  -2.030 -34.603  1.00  0.00     0.001 A 
HETATM   14  C   UNL     1      -5.861  -3.001 -34.836  1.00  0.00     0.000 A 
HETATM   15  C   UNL     1      -4.570  -2.826 -34.340  1.00  0.00     0.001 A 
HETATM   16  C   UNL     1      -4.248  -1.674 -33.617  1.00  0.00     0.014 A 
ENDBRANCH   9  11
ENDBRANCH   1   5
BRANCH   2  17
HETATM   17  N   UNL     1      -4.481   5.765 -30.069  1.00  0.00    -0.165 NA
HETATM   18  C   UNL     1      -3.395   6.439 -29.849  1.00  0.00     0.157 A 
HETATM   19  C   UNL     1      -3.365   7.617 -28.851  1.00  0.00     0.277 A 
HETATM   20  C   UNL     1      -2.022   6.328 -30.369  1.00  0.00     0.027 A 
HETATM   21  O   UNL     1      -4.303   8.071 -28.237  1.00  0.00    -0.266 OA
HETATM   22  N   UNL     1      -2.047   8.012 -28.796  1.00  0.00    -0.321 N 
HETATM   23  C   UNL     1      -1.267   7.277 -29.678  1.00  0.00     0.048 A 
HETATM   24  H   UNL     1      -1.735   8.777 -28.216  1.00  0.00     0.169 HD
HETATM   25  C   UNL     1       0.083   7.450 -29.911  1.00  0.00     0.030 A 
HETATM   26  C   UNL     1       0.677   6.647 -30.889  1.00  0.00     0.002 A 
HETATM   27  C   UNL     1      -0.085   5.717 -31.619  1.00  0.00     0.001 A 
HETATM   28  C   UNL     1      -1.453   5.559 -31.370  1.00  0.00     0.016 A 
ENDBRANCH   2  17
TORSDOF 3
ENDMDL
MODEL 8
REMARK VINA RESULT:      -8.1     14.235     15.755
REMARK  3 active torsions:
REMARK  status: ('A' for Active; 'I' for Inactive)
REMARK    1  A    between atoms: C_4  and  C_5 
REMARK    2  A    between atoms: C_9  and  C_10 
REMARK       I    between atoms: C_10  and  N_11 
REMARK    3  A    between atoms: N_11  and  N_12 
ROOT
HETATM    1  C   UNL     1      -5.735 -12.167 -39.157  1.00  0.00     0.289 C 
HETATM    2  N   UNL     1      -6.881 -12.285 -38.385  1.00  0.00    -0.241 N 
HETATM    3  O   UNL     1      -5.692 -11.678 -40.279  1.00  0.00    -0.264 OA
HETATM    4  H   UNL     1      -6.846 -12.818 -37.530  1.00  0.00     0.192 HD
ENDROOT
BRANCH   1   5
HETATM    5  C   UNL     1      -4.540 -12.632 -38.493  1.00  0.00     0.121 A 
HETATM    6  N   UNL     1      -4.442 -12.657 -37.129  1.00  0.00    -0.272 N 
HETATM    7  N   UNL     1      -3.302 -13.197 -36.672  1.00  0.00    -0.174 NA
HETATM    8  H   UNL     1      -5.145 -12.346 -36.464  1.00  0.00     0.189 HD
HETATM    9  C   UNL     1      -2.599 -13.495 -37.775  1.00  0.00     0.089 A 
HETATM   10  C   UNL     1      -3.335 -13.139 -38.939  1.00  0.00     0.071 A 
BRANCH   9  11
HETATM   11  C   UNL     1      -1.283 -14.134 -37.715  1.00  0.00    -0.006 A 
HETATM   12  C   UNL     1      -0.991 -15.063 -36.706  1.00  0.00     0.014 A 
HETATM   13  C   UNL     1       0.246 -15.710 -36.667  1.00  0.00     0.001 A 
HETATM   14  C   UNL     1       1.209 -15.429 -37.634  1.00  0.00     0.000 A 
HETATM   15  C   UNL     1       0.939 -14.498 -38.635  1.00  0.00     0.001 A 
HETATM   16  C   UNL     1      -0.300 -13.854 -38.676  1.00  0.00     0.014 A 
ENDBRANCH   9  11
ENDBRANCH   1   5
BRANCH   2  17
HETATM   17  N   UNL     1      -8.105 -11.946 -38.872  1.00  0.00    -0.165 NA
HETATM   18  C   UNL     1      -8.903 -12.898 -39.242  1.00  0.00     0.157 A 
HETATM   19  C   UNL     1     -10.214 -12.601 -40.001  1.00  0.00     0.277 A 
HETATM   20  C   UNL     1      -8.845 -14.364 -39.114  1.00  0.00     0.027 A 
HETATM   21  O   UNL     1     -10.665 -11.511 -40.272  1.00  0.00    -0.266 OA
HETATM   22  N   UNL     1     -10.736 -13.834 -40.321  1.00  0.00    -0.321 N 
HETATM   23  C   UNL     1      -9.955 -14.858 -39.803  1.00  0.00     0.048 A 
HETATM   24  H   UNL     1     -11.605 -13.941 -40.823  1.00  0.00     0.169 HD
HETATM   25  C   UNL     1     -10.217 -16.211 -39.895  1.00  0.00     0.030 A 
HETATM   26  C   UNL     1      -9.337 -17.084 -39.250  1.00  0.00     0.002 A 
HETATM   27  C   UNL     1      -8.240 -16.592 -38.519  1.00  0.00     0.001 A 
HETATM   28  C   UNL     1      -7.992 -15.217 -38.435  1.00  0.00     0.016 A 
ENDBRANCH   2  17
TORSDOF 3
ENDMDL
MODEL 9
REMARK VINA RESULT:      -8.1      3.068      4.597
REMARK  3 active torsions:
REMARK  status: ('A' for Active; 'I' for Inactive)
REMARK    1  A    between atoms: C_4  and  C_5 
REMARK    2  A    between atoms: C_9  and  C_10 
REMARK       I    between atoms: C_10  and  N_11 
REMARK    3  A    between atoms: N_11  and  N_12 
ROOT
HETATM    1  C   UNL     1      -9.633   1.319 -33.688  1.00  0.00     0.289 C 
HETATM    2  N   UNL     1      -9.125   2.430 -33.033  1.00  0.00    -0.241 N 
HETATM    3  O   UNL     1     -10.821   1.114 -33.905  1.00  0.00    -0.264 OA
HETATM    4  H   UNL     1      -8.148   2.451 -32.783  1.00  0.00     0.192 HD
ENDROOT
BRANCH   1   5
HETATM    5  C   UNL     1      -8.615   0.411 -34.160  1.00  0.00     0.121 A 
HETATM    6  N   UNL     1      -7.824   0.717 -35.233  1.00  0.00    -0.272 N 
HETATM    7  N   UNL     1      -6.871  -0.194 -35.489  1.00  0.00    -0.174 NA
HETATM    8  H   UNL     1      -7.873   1.556 -35.804  1.00  0.00     0.189 HD
HETATM    9  C   UNL     1      -7.072  -1.161 -34.582  1.00  0.00     0.089 A 
HETATM   10  C   UNL     1      -8.169  -0.828 -33.740  1.00  0.00     0.071 A 
BRANCH   9  11
HETATM   11  C   UNL     1      -6.217  -2.347 -34.501  1.00  0.00    -0.006 A 
HETATM   12  C   UNL     1      -4.911  -2.247 -34.000  1.00  0.00     0.014 A 
HETATM   13  C   UNL     1      -4.104  -3.381 -33.878  1.00  0.00     0.001 A 
HETATM   14  C   UNL     1      -4.592  -4.627 -34.265  1.00  0.00     0.000 A 
HETATM   15  C   UNL     1      -5.883  -4.741 -34.778  1.00  0.00     0.001 A 
HETATM   16  C   UNL     1      -6.692  -3.607 -34.896  1.00  0.00     0.014 A 
ENDBRANCH   9  11
ENDBRANCH   1   5
BRANCH   2  17
HETATM   17  N   UNL     1      -9.943   3.362 -32.474  1.00  0.00    -0.165 NA
HETATM   18  C   UNL     1      -9.493   4.054 -31.475  1.00  0.00     0.157 A 
HETATM   19  C   UNL     1     -10.418   4.973 -30.649  1.00  0.00     0.277 A 
HETATM   20  C   UNL     1      -8.162   4.175 -30.855  1.00  0.00     0.027 A 
HETATM   21  O   UNL     1     -11.589   5.199 -30.856  1.00  0.00    -0.266 OA
HETATM   22  N   UNL     1      -9.634   5.451 -29.623  1.00  0.00    -0.321 N 
HETATM   23  C   UNL     1      -8.326   5.001 -29.741  1.00  0.00     0.048 A 
HETATM   24  H   UNL     1      -9.986   6.086 -28.923  1.00  0.00     0.169 HD
HETATM   25  C   UNL     1      -7.272   5.330 -28.912  1.00  0.00     0.030 A 
HETATM   26  C   UNL     1      -6.012   4.821 -29.238  1.00  0.00     0.002 A 
HETATM   27  C   UNL     1      -5.831   4.022 -30.382  1.00  0.00     0.001 A 
HETATM   28  C   UNL     1      -6.911   3.702 -31.211  1.00  0.00     0.016 A 
ENDBRANCH   2  17
TORSDOF 3
ENDMDL
MODEL 10
REMARK VINA RESULT:      -7.9      5.487      8.728
REMARK  3 active torsions:
REMARK  status: ('A' for Active; 'I' for Inactive)
REMARK    1  A    between atoms: C_4  and  C_5 
REMARK    2  A    between atoms: C_9  and  C_10 
REMARK       I    between atoms: C_10  and  N_11 
REMARK    3  A    between atoms: N_11  and  N_12 
ROOT
HETATM    1  C   UNL     1      -6.008   3.525 -32.187  1.00  0.00     0.289 C 
HETATM    2  N   UNL     1      -5.558   2.794 -33.276  1.00  0.00    -0.241 N 
HETATM    3  O   UNL     1      -7.081   3.352 -31.620  1.00  0.00    -0.264 OA
HETATM    4  H   UNL     1      -4.723   3.093 -33.757  1.00  0.00     0.192 HD
ENDROOT
BRANCH   1   5
HETATM    5  C   UNL     1      -5.059   4.506 -31.717  1.00  0.00     0.121 A 
HETATM    6  N   UNL     1      -5.465   5.703 -31.196  1.00  0.00    -0.272 N 
HETATM    7  N   UNL     1      -4.464   6.465 -30.726  1.00  0.00    -0.174 NA
HETATM    8  H   UNL     1      -6.423   6.034 -31.108  1.00  0.00     0.189 HD
HETATM    9  C   UNL     1      -3.351   5.765 -30.990  1.00  0.00     0.089 A 
HETATM   10  C   UNL     1      -3.680   4.537 -31.628  1.00  0.00     0.071 A 
BRANCH   9  11
HETATM   11  C   UNL     1      -2.019   6.241 -30.610  1.00  0.00    -0.006 A 
HETATM   12  C   UNL     1      -0.902   5.923 -31.395  1.00  0.00     0.014 A 
HETATM   13  C   UNL     1       0.365   6.410 -31.064  1.00  0.00     0.001 A 
HETATM   14  C   UNL     1       0.529   7.215 -29.939  1.00  0.00     0.000 A 
HETATM   15  C   UNL     1      -0.570   7.529 -29.141  1.00  0.00     0.001 A 
HETATM   16  C   UNL     1      -1.838   7.045 -29.475  1.00  0.00     0.014 A 
ENDBRANCH   9  11
ENDBRANCH   1   5
BRANCH   2  17
HETATM   17  N   UNL     1      -6.344   1.865 -33.883  1.00  0.00    -0.165 NA
HETATM   18  C   UNL     1      -5.981   0.622 -33.825  1.00  0.00     0.157 A 
HETATM   19  C   UNL     1      -6.691  -0.464 -34.662  1.00  0.00     0.277 A 
HETATM   20  C   UNL     1      -4.922  -0.081 -33.082  1.00  0.00     0.027 A 
HETATM   21  O   UNL     1      -7.652  -0.314 -35.380  1.00  0.00    -0.266 OA
HETATM   22  N   UNL     1      -5.979  -1.621 -34.433  1.00  0.00    -0.321 N 
HETATM   23  C   UNL     1      -4.961  -1.409 -33.514  1.00  0.00     0.048 A 
HETATM   24  H   UNL     1      -6.227  -2.502 -34.858  1.00  0.00     0.169 HD
HETATM   25  C   UNL     1      -4.092  -2.364 -33.024  1.00  0.00     0.030 A 
HETATM   26  C   UNL     1      -3.172  -1.962 -32.052  1.00  0.00     0.002 A 
HETATM   27  C   UNL     1      -3.154  -0.636 -31.582  1.00  0.00     0.001 A 
HETATM   28  C   UNL     1      -4.044   0.317 -32.089  1.00  0.00     0.016 A 
ENDBRANCH   2  17
TORSDOF 3
ENDMDL
