MODEL 1
REMARK VINA RESULT:      -7.9      0.000      0.000
REMARK  6 active torsions:
REMARK  status: ('A' for Active; 'I' for Inactive)
REMARK    1  A    between atoms: C_2  and  S_3 
REMARK    2  A    between atoms: C_2  and  C_18 
REMARK    3  A    between atoms: S_3  and  C_4 
REMARK    4  A    between atoms: C_4  and  C_5 
REMARK       I    between atoms: C_5  and  N_6 
REMARK    5  A    between atoms: N_6  and  C_7 
REMARK    6  A    between atoms: C_10  and  C_11 
REMARK       I    between atoms: C_11  and  N_12 
ROOT
HETATM    1  C   UNL     1      -6.381   2.460 -31.217  1.00  0.00     0.231 C 
HETATM    2  N   UNL     1      -6.768   1.844 -32.395  1.00  0.00    -0.327 N 
HETATM    3  O   UNL     1      -7.126   2.995 -30.399  1.00  0.00    -0.272 OA
HETATM    4  H   UNL     1      -6.069   1.282 -32.867  1.00  0.00     0.169 HD
ENDROOT
BRANCH   1   5
HETATM    5  C   UNL     1      -4.869   2.452 -31.019  1.00  0.00     0.177 C 
BRANCH   5   6
HETATM    6  S   UNL     1      -3.993   1.581 -32.359  1.00  0.00    -0.147 SA
BRANCH   6   7
HETATM    7  C   UNL     1      -3.826  -0.116 -31.672  1.00  0.00     0.113 C 
HETATM    8  C   UNL     1      -2.374  -0.450 -31.335  1.00  0.00     0.029 C 
BRANCH   7   9
HETATM    9  C   UNL     1      -4.466  -1.150 -32.544  1.00  0.00     0.118 A 
HETATM   10  N   UNL     1      -5.658  -1.097 -33.108  1.00  0.00    -0.232 NA
HETATM   11  C   UNL     1      -5.778  -2.260 -33.834  1.00  0.00     0.085 A 
HETATM   12  C   UNL     1      -4.643  -3.050 -33.697  1.00  0.00     0.062 A 
HETATM   13  C   UNL     1      -6.836  -2.719 -34.630  1.00  0.00     0.034 A 
HETATM   14  N   UNL     1      -3.826  -2.326 -32.870  1.00  0.00    -0.342 N 
HETATM   15  C   UNL     1      -4.495  -4.297 -34.306  1.00  0.00     0.032 A 
HETATM   16  H   UNL     1      -2.926  -2.620 -32.517  1.00  0.00     0.167 HD
HETATM   17  C   UNL     1      -5.564  -4.741 -35.092  1.00  0.00     0.002 A 
HETATM   18  C   UNL     1      -6.717  -3.969 -35.253  1.00  0.00     0.002 A 
ENDBRANCH   7   9
ENDBRANCH   6   7
ENDBRANCH   5   6
ENDBRANCH   1   5
BRANCH   2  19
HETATM   19  C   UNL     1      -8.068   1.737 -32.928  1.00  0.00     0.034 A 
HETATM   20  C   UNL     1      -8.649   2.679 -33.780  1.00  0.00     0.030 A 
HETATM   21  C   UNL     1      -9.954   2.499 -34.258  1.00  0.00     0.019 A 
HETATM   22  C   UNL     1     -10.687   1.362 -33.899  1.00  0.00     0.032 A 
HETATM   23  C   UNL     1     -10.112   0.423 -33.040  1.00  0.00     0.019 A 
HETATM   24  C   UNL     1      -8.812   0.608 -32.563  1.00  0.00     0.030 A 
BRANCH  22  25
HETATM   25  C   UNL     1     -12.077   1.122 -34.377  1.00  0.00     0.251 C 
HETATM   26  N   UNL     1     -12.965   0.605 -33.456  1.00  0.00    -0.361 N 
HETATM   27  C   UNL     1     -14.335   0.320 -33.802  1.00  0.00     0.149 C 
HETATM   28  H   UNL     1     -12.672   0.443 -32.503  1.00  0.00     0.162 HD
HETATM   29  O   UNL     1     -12.386   1.408 -35.528  1.00  0.00    -0.268 OA
ENDBRANCH  22  25
ENDBRANCH   2  19
TORSDOF 6
ENDMDL
MODEL 2
REMARK VINA RESULT:      -7.7      1.592      1.905
REMARK  6 active torsions:
REMARK  status: ('A' for Active; 'I' for Inactive)
REMARK    1  A    between atoms: C_2  and  S_3 
REMARK    2  A    between atoms: C_2  and  C_18 
REMARK    3  A    between atoms: S_3  and  C_4 
REMARK    4  A    between atoms: C_4  and  C_5 
REMARK       I    between atoms: C_5  and  N_6 
REMARK    5  A    between atoms: N_6  and  C_7 
REMARK    6  A    between atoms: C_10  and  C_11 
REMARK       I    between atoms: C_11  and  N_12 
ROOT
HETATM    1  C   UNL     1      -6.907   4.110 -32.464  1.00  0.00     0.231 C 
HETATM    2  N   UNL     1      -7.714   3.025 -32.162  1.00  0.00    -0.327 N 
HETATM    3  O   UNL     1      -7.107   4.938 -33.350  1.00  0.00    -0.272 OA
HETATM    4  H   UNL     1      -7.526   2.547 -31.289  1.00  0.00     0.169 HD
ENDROOT
BRANCH   1   5
HETATM    5  C   UNL     1      -5.665   4.181 -31.583  1.00  0.00     0.177 C 
BRANCH   5   6
HETATM    6  S   UNL     1      -5.456   2.698 -30.545  1.00  0.00    -0.147 SA
BRANCH   6   7
HETATM    7  C   UNL     1      -4.154   1.770 -31.452  1.00  0.00     0.113 C 
HETATM    8  C   UNL     1      -3.289   2.697 -32.304  1.00  0.00     0.029 C 
BRANCH   7   9
HETATM    9  C   UNL     1      -4.711   0.623 -32.235  1.00  0.00     0.118 A 
HETATM   10  N   UNL     1      -5.977   0.386 -32.520  1.00  0.00    -0.232 NA
HETATM   11  C   UNL     1      -5.979  -0.758 -33.284  1.00  0.00     0.085 A 
HETATM   12  C   UNL     1      -4.688  -1.242 -33.455  1.00  0.00     0.062 A 
HETATM   13  C   UNL     1      -7.051  -1.454 -33.861  1.00  0.00     0.034 A 
HETATM   14  N   UNL     1      -3.901  -0.350 -32.778  1.00  0.00    -0.342 N 
HETATM   15  C   UNL     1      -4.390  -2.403 -34.170  1.00  0.00     0.032 A 
HETATM   16  H   UNL     1      -2.900  -0.416 -32.652  1.00  0.00     0.167 HD
HETATM   17  C   UNL     1      -5.473  -3.087 -34.734  1.00  0.00     0.002 A 
HETATM   18  C   UNL     1      -6.782  -2.624 -34.584  1.00  0.00     0.002 A 
ENDBRANCH   7   9
ENDBRANCH   6   7
ENDBRANCH   5   6
ENDBRANCH   1   5
BRANCH   2  19
HETATM   19  C   UNL     1      -8.891   2.614 -32.819  1.00  0.00     0.034 A 
HETATM   20  C   UNL     1      -8.920   1.728 -33.898  1.00  0.00     0.030 A 
HETATM   21  C   UNL     1     -10.137   1.379 -34.500  1.00  0.00     0.019 A 
HETATM   22  C   UNL     1     -11.341   1.901 -34.015  1.00  0.00     0.032 A 
HETATM   23  C   UNL     1     -11.313   2.794 -32.941  1.00  0.00     0.019 A 
HETATM   24  C   UNL     1     -10.098   3.143 -32.346  1.00  0.00     0.030 A 
BRANCH  22  25
HETATM   25  C   UNL     1     -12.661   1.564 -34.617  1.00  0.00     0.251 C 
HETATM   26  N   UNL     1     -13.628   1.088 -33.756  1.00  0.00    -0.361 N 
HETATM   27  C   UNL     1     -14.941   0.718 -34.222  1.00  0.00     0.149 C 
HETATM   28  H   UNL     1     -13.437   1.016 -32.767  1.00  0.00     0.162 HD
HETATM   29  O   UNL     1     -12.850   1.743 -35.814  1.00  0.00    -0.268 OA
ENDBRANCH  22  25
ENDBRANCH   2  19
TORSDOF 6
ENDMDL
MODEL 3
REMARK VINA RESULT:      -7.6      4.249      7.817
REMARK  6 active torsions:
REMARK  status: ('A' for Active; 'I' for Inactive)
REMARK    1  A    between atoms: C_2  and  S_3 
REMARK    2  A    between atoms: C_2  and  C_18 
REMARK    3  A    between atoms: S_3  and  C_4 
REMARK    4  A    between atoms: C_4  and  C_5 
REMARK       I    between atoms: C_5  and  N_6 
REMARK    5  A    between atoms: N_6  and  C_7 
REMARK    6  A    between atoms: C_10  and  C_11 
REMARK       I    between atoms: C_11  and  N_12 
ROOT
HETATM    1  C   UNL     1      -6.534   4.216 -33.937  1.00  0.00     0.231 C 
HETATM    2  N   UNL     1      -7.115   3.048 -33.474  1.00  0.00    -0.327 N 
HETATM    3  O   UNL     1      -5.546   4.297 -34.663  1.00  0.00    -0.272 OA
HETATM    4  H   UNL     1      -8.030   3.131 -33.049  1.00  0.00     0.169 HD
ENDROOT
BRANCH   1   5
HETATM    5  C   UNL     1      -7.236   5.467 -33.418  1.00  0.00     0.177 C 
BRANCH   5   6
HETATM    6  S   UNL     1      -6.176   6.457 -32.315  1.00  0.00    -0.147 SA
BRANCH   6   7
HETATM    7  C   UNL     1      -5.176   5.164 -31.475  1.00  0.00     0.113 C 
HETATM    8  C   UNL     1      -5.839   4.685 -30.184  1.00  0.00     0.029 C 
BRANCH   7   9
HETATM    9  C   UNL     1      -3.755   5.584 -31.269  1.00  0.00     0.118 A 
HETATM   10  N   UNL     1      -2.770   5.539 -32.147  1.00  0.00    -0.232 NA
HETATM   11  C   UNL     1      -1.672   6.062 -31.503  1.00  0.00     0.085 A 
HETATM   12  C   UNL     1      -1.987   6.417 -30.197  1.00  0.00     0.062 A 
HETATM   13  C   UNL     1      -0.364   6.256 -31.966  1.00  0.00     0.034 A 
HETATM   14  N   UNL     1      -3.313   6.100 -30.071  1.00  0.00    -0.342 N 
HETATM   15  C   UNL     1      -1.061   6.954 -29.301  1.00  0.00     0.032 A 
HETATM   16  H   UNL     1      -3.867   6.184 -29.230  1.00  0.00     0.167 HD
HETATM   17  C   UNL     1       0.241   7.135 -29.779  1.00  0.00     0.002 A 
HETATM   18  C   UNL     1       0.588   6.793 -31.089  1.00  0.00     0.002 A 
ENDBRANCH   7   9
ENDBRANCH   6   7
ENDBRANCH   5   6
ENDBRANCH   1   5
BRANCH   2  19
HETATM   19  C   UNL     1      -6.684   1.723 -33.691  1.00  0.00     0.034 A 
HETATM   20  C   UNL     1      -5.597   1.134 -33.042  1.00  0.00     0.030 A 
HETATM   21  C   UNL     1      -5.230  -0.189 -33.324  1.00  0.00     0.019 A 
HETATM   22  C   UNL     1      -5.960  -0.942 -34.250  1.00  0.00     0.032 A 
HETATM   23  C   UNL     1      -7.043  -0.352 -34.907  1.00  0.00     0.019 A 
HETATM   24  C   UNL     1      -7.403   0.968 -34.625  1.00  0.00     0.030 A 
BRANCH  22  25
HETATM   25  C   UNL     1      -5.614  -2.351 -34.588  1.00  0.00     0.251 C 
HETATM   26  N   UNL     1      -6.666  -3.187 -34.897  1.00  0.00    -0.361 N 
HETATM   27  C   UNL     1      -6.458  -4.574 -35.231  1.00  0.00     0.149 C 
HETATM   28  H   UNL     1      -7.610  -2.829 -34.923  1.00  0.00     0.162 HD
HETATM   29  O   UNL     1      -4.440  -2.703 -34.609  1.00  0.00    -0.268 OA
ENDBRANCH  22  25
ENDBRANCH   2  19
TORSDOF 6
ENDMDL
MODEL 4
REMARK VINA RESULT:      -7.6      3.887      7.362
REMARK  6 active torsions:
REMARK  status: ('A' for Active; 'I' for Inactive)
REMARK    1  A    between atoms: C_2  and  S_3 
REMARK    2  A    between atoms: C_2  and  C_18 
REMARK    3  A    between atoms: S_3  and  C_4 
REMARK    4  A    between atoms: C_4  and  C_5 
REMARK       I    between atoms: C_5  and  N_6 
REMARK    5  A    between atoms: N_6  and  C_7 
REMARK    6  A    between atoms: C_10  and  C_11 
REMARK       I    between atoms: C_11  and  N_12 
ROOT
HETATM    1  C   UNL     1      -5.816   2.848 -30.924  1.00  0.00     0.231 C 
HETATM    2  N   UNL     1      -5.244   2.455 -32.123  1.00  0.00    -0.327 N 
HETATM    3  O   UNL     1      -6.465   2.136 -30.162  1.00  0.00    -0.272 OA
HETATM    4  H   UNL     1      -4.580   3.095 -32.543  1.00  0.00     0.169 HD
ENDROOT
BRANCH   1   5
HETATM    5  C   UNL     1      -5.592   4.326 -30.624  1.00  0.00     0.177 C 
BRANCH   5   6
HETATM    6  S   UNL     1      -7.057   5.345 -30.994  1.00  0.00    -0.147 SA
BRANCH   6   7
HETATM    7  C   UNL     1      -6.821   5.731 -32.775  1.00  0.00     0.113 C 
HETATM    8  C   UNL     1      -7.614   4.781 -33.670  1.00  0.00     0.029 C 
BRANCH   7   9
HETATM    9  C   UNL     1      -5.376   5.807 -33.156  1.00  0.00     0.118 A 
HETATM   10  N   UNL     1      -4.739   5.058 -34.037  1.00  0.00    -0.232 NA
HETATM   11  C   UNL     1      -3.446   5.529 -34.060  1.00  0.00     0.085 A 
HETATM   12  C   UNL     1      -3.284   6.575 -33.160  1.00  0.00     0.062 A 
HETATM   13  C   UNL     1      -2.346   5.104 -34.817  1.00  0.00     0.034 A 
HETATM   14  N   UNL     1      -4.521   6.731 -32.596  1.00  0.00    -0.342 N 
HETATM   15  C   UNL     1      -2.070   7.232 -32.955  1.00  0.00     0.032 A 
HETATM   16  H   UNL     1      -4.762   7.378 -31.859  1.00  0.00     0.167 HD
HETATM   17  C   UNL     1      -0.981   6.791 -33.716  1.00  0.00     0.002 A 
HETATM   18  C   UNL     1      -1.113   5.744 -34.632  1.00  0.00     0.002 A 
ENDBRANCH   7   9
ENDBRANCH   6   7
ENDBRANCH   5   6
ENDBRANCH   1   5
BRANCH   2  19
HETATM   19  C   UNL     1      -5.318   1.192 -32.743  1.00  0.00     0.034 A 
HETATM   20  C   UNL     1      -6.414   0.742 -33.483  1.00  0.00     0.030 A 
HETATM   21  C   UNL     1      -6.408  -0.536 -34.059  1.00  0.00     0.019 A 
HETATM   22  C   UNL     1      -5.296  -1.371 -33.913  1.00  0.00     0.032 A 
HETATM   23  C   UNL     1      -4.202  -0.927 -33.166  1.00  0.00     0.019 A 
HETATM   24  C   UNL     1      -4.213   0.346 -32.590  1.00  0.00     0.030 A 
BRANCH  22  25
HETATM   25  C   UNL     1      -5.237  -2.738 -34.503  1.00  0.00     0.251 C 
HETATM   26  N   UNL     1      -6.440  -3.303 -34.872  1.00  0.00    -0.361 N 
HETATM   27  C   UNL     1      -6.513  -4.624 -35.444  1.00  0.00     0.149 C 
HETATM   28  H   UNL     1      -7.299  -2.781 -34.772  1.00  0.00     0.162 HD
HETATM   29  O   UNL     1      -4.154  -3.288 -34.664  1.00  0.00    -0.268 OA
ENDBRANCH  22  25
ENDBRANCH   2  19
TORSDOF 6
ENDMDL
MODEL 5
REMARK VINA RESULT:      -7.4      4.157      7.871
REMARK  6 active torsions:
REMARK  status: ('A' for Active; 'I' for Inactive)
REMARK    1  A    between atoms: C_2  and  S_3 
REMARK    2  A    between atoms: C_2  and  C_18 
REMARK    3  A    between atoms: S_3  and  C_4 
REMARK    4  A    between atoms: C_4  and  C_5 
REMARK       I    between atoms: C_5  and  N_6 
REMARK    5  A    between atoms: N_6  and  C_7 
REMARK    6  A    between atoms: C_10  and  C_11 
REMARK       I    between atoms: C_11  and  N_12 
ROOT
HETATM    1  C   UNL     1      -5.357   2.784 -30.906  1.00  0.00     0.231 C 
HETATM    2  N   UNL     1      -4.774   2.340 -32.081  1.00  0.00    -0.327 N 
HETATM    3  O   UNL     1      -5.941   2.087 -30.078  1.00  0.00    -0.272 OA
HETATM    4  H   UNL     1      -4.166   2.993 -32.562  1.00  0.00     0.169 HD
ENDROOT
BRANCH   1   5
HETATM    5  C   UNL     1      -5.242   4.293 -30.726  1.00  0.00     0.177 C 
BRANCH   5   6
HETATM    6  S   UNL     1      -6.278   5.221 -31.904  1.00  0.00    -0.147 SA
BRANCH   6   7
HETATM    7  C   UNL     1      -5.030   5.878 -33.083  1.00  0.00     0.113 C 
HETATM    8  C   UNL     1      -4.928   5.013 -34.338  1.00  0.00     0.029 C 
BRANCH   7   9
HETATM    9  C   UNL     1      -3.701   6.112 -32.437  1.00  0.00     0.118 A 
HETATM   10  N   UNL     1      -3.365   7.101 -31.631  1.00  0.00    -0.232 NA
HETATM   11  C   UNL     1      -2.057   6.862 -31.274  1.00  0.00     0.085 A 
HETATM   12  C   UNL     1      -1.578   5.713 -31.890  1.00  0.00     0.062 A 
HETATM   13  C   UNL     1      -1.205   7.592 -30.434  1.00  0.00     0.034 A 
HETATM   14  N   UNL     1      -2.638   5.256 -32.626  1.00  0.00    -0.342 N 
HETATM   15  C   UNL     1      -0.275   5.239 -31.727  1.00  0.00     0.032 A 
HETATM   16  H   UNL     1      -2.634   4.456 -33.242  1.00  0.00     0.167 HD
HETATM   17  C   UNL     1       0.563   5.984 -30.889  1.00  0.00     0.002 A 
HETATM   18  C   UNL     1       0.109   7.142 -30.252  1.00  0.00     0.002 A 
ENDBRANCH   7   9
ENDBRANCH   6   7
ENDBRANCH   5   6
ENDBRANCH   1   5
BRANCH   2  19
HETATM   19  C   UNL     1      -4.761   1.030 -32.600  1.00  0.00     0.034 A 
HETATM   20  C   UNL     1      -3.726   0.115 -32.398  1.00  0.00     0.030 A 
HETATM   21  C   UNL     1      -3.789  -1.168 -32.959  1.00  0.00     0.019 A 
HETATM   22  C   UNL     1      -4.900  -1.554 -33.716  1.00  0.00     0.032 A 
HETATM   23  C   UNL     1      -5.933  -0.637 -33.927  1.00  0.00     0.019 A 
HETATM   24  C   UNL     1      -5.865   0.642 -33.370  1.00  0.00     0.030 A 
BRANCH  22  25
HETATM   25  C   UNL     1      -5.019  -2.903 -34.336  1.00  0.00     0.251 C 
HETATM   26  N   UNL     1      -6.265  -3.259 -34.806  1.00  0.00    -0.361 N 
HETATM   27  C   UNL     1      -6.507  -4.542 -35.416  1.00  0.00     0.149 C 
HETATM   28  H   UNL     1      -7.033  -2.604 -34.756  1.00  0.00     0.162 HD
HETATM   29  O   UNL     1      -4.030  -3.621 -34.431  1.00  0.00    -0.268 OA
ENDBRANCH  22  25
ENDBRANCH   2  19
TORSDOF 6
ENDMDL
MODEL 6
REMARK VINA RESULT:      -7.3      3.009      7.102
REMARK  6 active torsions:
REMARK  status: ('A' for Active; 'I' for Inactive)
REMARK    1  A    between atoms: C_2  and  S_3 
REMARK    2  A    between atoms: C_2  and  C_18 
REMARK    3  A    between atoms: S_3  and  C_4 
REMARK    4  A    between atoms: C_4  and  C_5 
REMARK       I    between atoms: C_5  and  N_6 
REMARK    5  A    between atoms: N_6  and  C_7 
REMARK    6  A    between atoms: C_10  and  C_11 
REMARK       I    between atoms: C_11  and  N_12 
ROOT
HETATM    1  C   UNL     1      -6.209   4.188 -33.785  1.00  0.00     0.231 C 
HETATM    2  N   UNL     1      -6.807   3.049 -33.272  1.00  0.00    -0.327 N 
HETATM    3  O   UNL     1      -5.287   4.221 -34.597  1.00  0.00    -0.272 OA
HETATM    4  H   UNL     1      -7.675   3.178 -32.766  1.00  0.00     0.169 HD
ENDROOT
BRANCH   1   5
HETATM    5  C   UNL     1      -6.794   5.471 -33.204  1.00  0.00     0.177 C 
BRANCH   5   6
HETATM    6  S   UNL     1      -8.284   5.168 -32.199  1.00  0.00    -0.147 SA
BRANCH   6   7
HETATM    7  C   UNL     1      -9.628   5.315 -33.445  1.00  0.00     0.113 C 
HETATM    8  C   UNL     1     -10.448   6.588 -33.245  1.00  0.00     0.029 C 
BRANCH   7   9
HETATM    9  C   UNL     1     -10.480   4.087 -33.514  1.00  0.00     0.118 A 
HETATM   10  N   UNL     1     -10.077   2.831 -33.518  1.00  0.00    -0.232 NA
HETATM   11  C   UNL     1     -11.225   2.072 -33.557  1.00  0.00     0.085 A 
HETATM   12  C   UNL     1     -12.353   2.881 -33.596  1.00  0.00     0.062 A 
HETATM   13  C   UNL     1     -11.383   0.679 -33.574  1.00  0.00     0.034 A 
HETATM   14  N   UNL     1     -11.855   4.156 -33.572  1.00  0.00    -0.342 N 
HETATM   15  C   UNL     1     -13.655   2.384 -33.662  1.00  0.00     0.032 A 
HETATM   16  H   UNL     1     -12.396   5.008 -33.634  1.00  0.00     0.167 HD
HETATM   17  C   UNL     1     -13.794   0.991 -33.682  1.00  0.00     0.002 A 
HETATM   18  C   UNL     1     -12.679   0.150 -33.640  1.00  0.00     0.002 A 
ENDBRANCH   7   9
ENDBRANCH   6   7
ENDBRANCH   5   6
ENDBRANCH   1   5
BRANCH   2  19
HETATM   19  C   UNL     1      -6.468   1.705 -33.527  1.00  0.00     0.034 A 
HETATM   20  C   UNL     1      -5.549   0.970 -32.775  1.00  0.00     0.030 A 
HETATM   21  C   UNL     1      -5.262  -0.362 -33.105  1.00  0.00     0.019 A 
HETATM   22  C   UNL     1      -5.907  -0.977 -34.183  1.00  0.00     0.032 A 
HETATM   23  C   UNL     1      -6.819  -0.241 -34.943  1.00  0.00     0.019 A 
HETATM   24  C   UNL     1      -7.099   1.088 -34.614  1.00  0.00     0.030 A 
BRANCH  22  25
HETATM   25  C   UNL     1      -5.640  -2.389 -34.578  1.00  0.00     0.251 C 
HETATM   26  N   UNL     1      -6.741  -3.170 -34.860  1.00  0.00    -0.361 N 
HETATM   27  C   UNL     1      -6.610  -4.553 -35.242  1.00  0.00     0.149 C 
HETATM   28  H   UNL     1      -7.668  -2.770 -34.830  1.00  0.00     0.162 HD
HETATM   29  O   UNL     1      -4.485  -2.790 -34.665  1.00  0.00    -0.268 OA
ENDBRANCH  22  25
ENDBRANCH   2  19
TORSDOF 6
ENDMDL
MODEL 7
REMARK VINA RESULT:      -7.3      3.768      7.522
REMARK  6 active torsions:
REMARK  status: ('A' for Active; 'I' for Inactive)
REMARK    1  A    between atoms: C_2  and  S_3 
REMARK    2  A    between atoms: C_2  and  C_18 
REMARK    3  A    between atoms: S_3  and  C_4 
REMARK    4  A    between atoms: C_4  and  C_5 
REMARK       I    between atoms: C_5  and  N_6 
REMARK    5  A    between atoms: N_6  and  C_7 
REMARK    6  A    between atoms: C_10  and  C_11 
REMARK       I    between atoms: C_11  and  N_12 
ROOT
HETATM    1  C   UNL     1      -7.866   3.065 -33.344  1.00  0.00     0.231 C 
HETATM    2  N   UNL     1      -6.788   2.491 -33.997  1.00  0.00    -0.327 N 
HETATM    3  O   UNL     1      -8.757   2.465 -32.748  1.00  0.00    -0.272 OA
HETATM    4  H   UNL     1      -6.038   3.114 -34.273  1.00  0.00     0.169 HD
ENDROOT
BRANCH   1   5
HETATM    5  C   UNL     1      -7.879   4.586 -33.459  1.00  0.00     0.177 C 
BRANCH   5   6
HETATM    6  S   UNL     1      -7.329   5.408 -31.928  1.00  0.00    -0.147 SA
BRANCH   6   7
HETATM    7  C   UNL     1      -5.899   4.369 -31.423  1.00  0.00     0.113 C 
HETATM    8  C   UNL     1      -6.002   3.935 -29.962  1.00  0.00     0.029 C 
BRANCH   7   9
HETATM    9  C   UNL     1      -4.586   5.012 -31.741  1.00  0.00     0.118 A 
HETATM   10  N   UNL     1      -4.292   5.760 -32.787  1.00  0.00    -0.232 NA
HETATM   11  C   UNL     1      -2.981   6.143 -32.615  1.00  0.00     0.085 A 
HETATM   12  C   UNL     1      -2.456   5.601 -31.448  1.00  0.00     0.062 A 
HETATM   13  C   UNL     1      -2.163   6.945 -33.422  1.00  0.00     0.034 A 
HETATM   14  N   UNL     1      -3.492   4.885 -30.912  1.00  0.00    -0.342 N 
HETATM   15  C   UNL     1      -1.140   5.804 -31.029  1.00  0.00     0.032 A 
HETATM   16  H   UNL     1      -3.454   4.317 -30.077  1.00  0.00     0.167 HD
HETATM   17  C   UNL     1      -0.337   6.603 -31.851  1.00  0.00     0.002 A 
HETATM   18  C   UNL     1      -0.836   7.166 -33.028  1.00  0.00     0.002 A 
ENDBRANCH   7   9
ENDBRANCH   6   7
ENDBRANCH   5   6
ENDBRANCH   1   5
BRANCH   2  19
HETATM   19  C   UNL     1      -6.505   1.120 -34.158  1.00  0.00     0.034 A 
HETATM   20  C   UNL     1      -7.191   0.273 -35.030  1.00  0.00     0.030 A 
HETATM   21  C   UNL     1      -6.851  -1.084 -35.121  1.00  0.00     0.019 A 
HETATM   22  C   UNL     1      -5.806  -1.603 -34.349  1.00  0.00     0.032 A 
HETATM   23  C   UNL     1      -5.124  -0.760 -33.469  1.00  0.00     0.019 A 
HETATM   24  C   UNL     1      -5.469   0.591 -33.378  1.00  0.00     0.030 A 
BRANCH  22  25
HETATM   25  C   UNL     1      -5.403  -3.036 -34.406  1.00  0.00     0.251 C 
HETATM   26  N   UNL     1      -4.158  -3.348 -33.901  1.00  0.00    -0.361 N 
HETATM   27  C   UNL     1      -3.653  -4.697 -33.910  1.00  0.00     0.149 C 
HETATM   28  H   UNL     1      -3.584  -2.628 -33.485  1.00  0.00     0.162 HD
HETATM   29  O   UNL     1      -6.178  -3.871 -34.858  1.00  0.00    -0.268 OA
ENDBRANCH  22  25
ENDBRANCH   2  19
TORSDOF 6
ENDMDL
MODEL 8
REMARK VINA RESULT:      -7.1     14.087     14.957
REMARK  6 active torsions:
REMARK  status: ('A' for Active; 'I' for Inactive)
REMARK    1  A    between atoms: C_2  and  S_3 
REMARK    2  A    between atoms: C_2  and  C_18 
REMARK    3  A    between atoms: S_3  and  C_4 
REMARK    4  A    between atoms: C_4  and  C_5 
REMARK       I    between atoms: C_5  and  N_6 
REMARK    5  A    between atoms: N_6  and  C_7 
REMARK    6  A    between atoms: C_10  and  C_11 
REMARK       I    between atoms: C_11  and  N_12 
ROOT
HETATM    1  C   UNL     1      -2.917 -13.182 -39.088  1.00  0.00     0.231 C 
HETATM    2  N   UNL     1      -3.918 -12.252 -38.867  1.00  0.00    -0.327 N 
HETATM    3  O   UNL     1      -3.019 -14.217 -39.744  1.00  0.00    -0.272 OA
HETATM    4  H   UNL     1      -3.635 -11.362 -38.475  1.00  0.00     0.169 HD
ENDROOT
BRANCH   1   5
HETATM    5  C   UNL     1      -1.612 -12.819 -38.387  1.00  0.00     0.177 C 
BRANCH   5   6
HETATM    6  S   UNL     1      -0.611 -14.284 -37.969  1.00  0.00    -0.147 SA
BRANCH   6   7
HETATM    7  C   UNL     1      -1.130 -14.626 -36.239  1.00  0.00     0.113 C 
HETATM    8  C   UNL     1      -0.407 -15.841 -35.661  1.00  0.00     0.029 C 
BRANCH   7   9
HETATM    9  C   UNL     1      -2.616 -14.721 -36.096  1.00  0.00     0.118 A 
HETATM   10  N   UNL     1      -3.416 -15.628 -36.625  1.00  0.00    -0.232 NA
HETATM   11  C   UNL     1      -4.680 -15.314 -36.181  1.00  0.00     0.085 A 
HETATM   12  C   UNL     1      -4.656 -14.179 -35.379  1.00  0.00     0.062 A 
HETATM   13  C   UNL     1      -5.906 -15.946 -36.431  1.00  0.00     0.034 A 
HETATM   14  N   UNL     1      -3.335 -13.819 -35.343  1.00  0.00    -0.342 N 
HETATM   15  C   UNL     1      -5.798 -13.617 -34.806  1.00  0.00     0.032 A 
HETATM   16  H   UNL     1      -2.953 -13.004 -34.884  1.00  0.00     0.167 HD
HETATM   17  C   UNL     1      -7.013 -14.259 -35.071  1.00  0.00     0.002 A 
HETATM   18  C   UNL     1      -7.070 -15.404 -35.871  1.00  0.00     0.002 A 
ENDBRANCH   7   9
ENDBRANCH   6   7
ENDBRANCH   5   6
ENDBRANCH   1   5
BRANCH   2  19
HETATM   19  C   UNL     1      -5.259 -12.307 -39.297  1.00  0.00     0.034 A 
HETATM   20  C   UNL     1      -5.668 -12.140 -40.621  1.00  0.00     0.030 A 
HETATM   21  C   UNL     1      -7.027 -12.200 -40.961  1.00  0.00     0.019 A 
HETATM   22  C   UNL     1      -7.990 -12.445 -39.977  1.00  0.00     0.032 A 
HETATM   23  C   UNL     1      -7.585 -12.603 -38.650  1.00  0.00     0.019 A 
HETATM   24  C   UNL     1      -6.230 -12.539 -38.314  1.00  0.00     0.030 A 
BRANCH  22  25
HETATM   25  C   UNL     1      -9.447 -12.518 -40.282  1.00  0.00     0.251 C 
HETATM   26  N   UNL     1      -9.975 -13.778 -40.471  1.00  0.00    -0.361 N 
HETATM   27  C   UNL     1     -11.368 -13.976 -40.781  1.00  0.00     0.149 C 
HETATM   28  H   UNL     1      -9.392 -14.595 -40.363  1.00  0.00     0.162 HD
HETATM   29  O   UNL     1     -10.114 -11.491 -40.327  1.00  0.00    -0.268 OA
ENDBRANCH  22  25
ENDBRANCH   2  19
TORSDOF 6
ENDMDL
MODEL 9
REMARK VINA RESULT:      -7.0      3.279      7.149
REMARK  6 active torsions:
REMARK  status: ('A' for Active; 'I' for Inactive)
REMARK    1  A    between atoms: C_2  and  S_3 
REMARK    2  A    between atoms: C_2  and  C_18 
REMARK    3  A    between atoms: S_3  and  C_4 
REMARK    4  A    between atoms: C_4  and  C_5 
REMARK       I    between atoms: C_5  and  N_6 
REMARK    5  A    between atoms: N_6  and  C_7 
REMARK    6  A    between atoms: C_10  and  C_11 
REMARK       I    between atoms: C_11  and  N_12 
ROOT
HETATM    1  C   UNL     1      -7.681   4.286 -31.270  1.00  0.00     0.231 C 
HETATM    2  N   UNL     1      -6.652   3.969 -32.140  1.00  0.00    -0.327 N 
HETATM    3  O   UNL     1      -7.561   4.808 -30.163  1.00  0.00    -0.272 OA
HETATM    4  H   UNL     1      -6.915   3.725 -33.087  1.00  0.00     0.169 HD
ENDROOT
BRANCH   1   5
HETATM    5  C   UNL     1      -9.051   3.885 -31.808  1.00  0.00     0.177 C 
BRANCH   5   6
HETATM    6  S   UNL     1      -9.501   2.174 -31.370  1.00  0.00    -0.147 SA
BRANCH   6   7
HETATM    7  C   UNL     1      -9.391   1.318 -32.993  1.00  0.00     0.113 C 
HETATM    8  C   UNL     1     -10.635   0.477 -33.274  1.00  0.00     0.029 C 
BRANCH   7   9
HETATM    9  C   UNL     1      -8.124   0.537 -33.143  1.00  0.00     0.118 A 
HETATM   10  N   UNL     1      -6.977   0.745 -32.525  1.00  0.00    -0.232 NA
HETATM   11  C   UNL     1      -6.131  -0.247 -32.966  1.00  0.00     0.085 A 
HETATM   12  C   UNL     1      -6.769  -1.068 -33.888  1.00  0.00     0.062 A 
HETATM   13  C   UNL     1      -4.794  -0.506 -32.632  1.00  0.00     0.034 A 
HETATM   14  N   UNL     1      -8.032  -0.548 -33.987  1.00  0.00    -0.342 N 
HETATM   15  C   UNL     1      -6.146  -2.146 -34.519  1.00  0.00     0.032 A 
HETATM   16  H   UNL     1      -8.761  -0.871 -34.607  1.00  0.00     0.167 HD
HETATM   17  C   UNL     1      -4.810  -2.386 -34.177  1.00  0.00     0.002 A 
HETATM   18  C   UNL     1      -4.142  -1.581 -33.251  1.00  0.00     0.002 A 
ENDBRANCH   7   9
ENDBRANCH   6   7
ENDBRANCH   5   6
ENDBRANCH   1   5
BRANCH   2  19
HETATM   19  C   UNL     1      -5.267   4.127 -31.935  1.00  0.00     0.034 A 
HETATM   20  C   UNL     1      -4.396   3.084 -31.611  1.00  0.00     0.030 A 
HETATM   21  C   UNL     1      -3.030   3.331 -31.414  1.00  0.00     0.019 A 
HETATM   22  C   UNL     1      -2.519   4.626 -31.557  1.00  0.00     0.032 A 
HETATM   23  C   UNL     1      -3.390   5.672 -31.873  1.00  0.00     0.019 A 
HETATM   24  C   UNL     1      -4.751   5.422 -32.064  1.00  0.00     0.030 A 
BRANCH  22  25
HETATM   25  C   UNL     1      -1.078   4.945 -31.359  1.00  0.00     0.251 C 
HETATM   26  N   UNL     1      -0.565   4.724 -30.098  1.00  0.00    -0.361 N 
HETATM   27  C   UNL     1       0.813   5.004 -29.781  1.00  0.00     0.149 C 
HETATM   28  H   UNL     1      -1.148   4.329 -29.374  1.00  0.00     0.162 HD
HETATM   29  O   UNL     1      -0.408   5.354 -32.300  1.00  0.00    -0.268 OA
ENDBRANCH  22  25
ENDBRANCH   2  19
TORSDOF 6
ENDMDL
MODEL 10
REMARK VINA RESULT:      -6.8      4.035      7.646
REMARK  6 active torsions:
REMARK  status: ('A' for Active; 'I' for Inactive)
REMARK    1  A    between atoms: C_2  and  S_3 
REMARK    2  A    between atoms: C_2  and  C_18 
REMARK    3  A    between atoms: S_3  and  C_4 
REMARK    4  A    between atoms: C_4  and  C_5 
REMARK       I    between atoms: C_5  and  N_6 
REMARK    5  A    between atoms: N_6  and  C_7 
REMARK    6  A    between atoms: C_10  and  C_11 
REMARK       I    between atoms: C_11  and  N_12 
ROOT
HETATM    1  C   UNL     1      -5.483   3.144 -32.966  1.00  0.00     0.231 C 
HETATM    2  N   UNL     1      -4.623   4.122 -33.437  1.00  0.00    -0.327 N 
HETATM    3  O   UNL     1      -5.534   2.716 -31.815  1.00  0.00    -0.272 OA
HETATM    4  H   UNL     1      -4.827   4.506 -34.352  1.00  0.00     0.169 HD
ENDROOT
BRANCH   1   5
HETATM    5  C   UNL     1      -6.389   2.584 -34.057  1.00  0.00     0.177 C 
BRANCH   5   6
HETATM    6  S   UNL     1      -8.158   2.769 -33.660  1.00  0.00    -0.147 SA
BRANCH   6   7
HETATM    7  C   UNL     1      -8.557   1.143 -32.901  1.00  0.00     0.113 C 
HETATM    8  C   UNL     1      -8.817   1.267 -31.401  1.00  0.00     0.029 C 
BRANCH   7   9
HETATM    9  C   UNL     1      -7.536   0.097 -33.222  1.00  0.00     0.118 A 
HETATM   10  N   UNL     1      -7.519  -0.714 -34.263  1.00  0.00    -0.232 NA
HETATM   11  C   UNL     1      -6.370  -1.462 -34.133  1.00  0.00     0.085 A 
HETATM   12  C   UNL     1      -5.680  -1.114 -32.979  1.00  0.00     0.062 A 
HETATM   13  C   UNL     1      -5.854  -2.470 -34.959  1.00  0.00     0.034 A 
HETATM   14  N   UNL     1      -6.441  -0.125 -32.415  1.00  0.00    -0.342 N 
HETATM   15  C   UNL     1      -4.490  -1.724 -32.581  1.00  0.00     0.032 A 
HETATM   16  H   UNL     1      -6.262   0.334 -31.533  1.00  0.00     0.167 HD
HETATM   17  C   UNL     1      -3.992  -2.731 -33.415  1.00  0.00     0.002 A 
HETATM   18  C   UNL     1      -4.661  -3.102 -34.585  1.00  0.00     0.002 A 
ENDBRANCH   7   9
ENDBRANCH   6   7
ENDBRANCH   5   6
ENDBRANCH   1   5
BRANCH   2  19
HETATM   19  C   UNL     1      -3.608   4.796 -32.728  1.00  0.00     0.034 A 
HETATM   20  C   UNL     1      -3.842   5.715 -31.705  1.00  0.00     0.030 A 
HETATM   21  C   UNL     1      -2.772   6.349 -31.057  1.00  0.00     0.019 A 
HETATM   22  C   UNL     1      -1.453   6.053 -31.418  1.00  0.00     0.032 A 
HETATM   23  C   UNL     1      -1.216   5.140 -32.448  1.00  0.00     0.019 A 
HETATM   24  C   UNL     1      -2.286   4.514 -33.094  1.00  0.00     0.030 A 
BRANCH  22  25
HETATM   25  C   UNL     1      -0.280   6.697 -30.764  1.00  0.00     0.251 C 
HETATM   26  N   UNL     1      -0.443   7.089 -29.452  1.00  0.00    -0.361 N 
HETATM   27  C   UNL     1       0.617   7.732 -28.716  1.00  0.00     0.149 C 
HETATM   28  H   UNL     1      -1.311   6.904 -28.970  1.00  0.00     0.162 HD
HETATM   29  O   UNL     1       0.770   6.827 -31.384  1.00  0.00    -0.268 OA
ENDBRANCH  22  25
ENDBRANCH   2  19
TORSDOF 6
ENDMDL
