MODEL 1
REMARK VINA RESULT:      -9.0      0.000      0.000
REMARK  6 active torsions:
REMARK  status: ('A' for Active; 'I' for Inactive)
REMARK    1  A    between atoms: C_2  and  O_3 
REMARK    2  A    between atoms: C_2  and  C_4 
REMARK    3  A    between atoms: C_2  and  C_11 
REMARK    4  A    between atoms: C_11  and  N_12 
REMARK       I    between atoms: N_12  and  C_13 
REMARK    5  A    between atoms: C_13  and  C_14 
REMARK    6  A    between atoms: C_18  and  C_19 
ROOT
HETATM    1  N   UNL     1      -2.956   3.873 -31.672  1.00  0.00    -0.352 N 
HETATM    2  C   UNL     1      -4.030   3.131 -31.236  1.00  0.00     0.272 C 
HETATM    3  O   UNL     1      -4.937   3.590 -30.548  1.00  0.00    -0.266 OA
HETATM    4  H   UNL     1      -2.339   3.408 -32.334  1.00  0.00     0.162 HD
ENDROOT
BRANCH   2   5
HETATM    5  C   UNL     1      -3.996   1.730 -31.684  1.00  0.00     0.146 A 
HETATM    6  N   UNL     1      -3.027   0.875 -31.301  1.00  0.00    -0.169 NA
HETATM    7  N   UNL     1      -3.349  -0.275 -31.920  1.00  0.00    -0.277 N 
HETATM    8  H   UNL     1      -2.731  -1.069 -31.799  1.00  0.00     0.189 HD
HETATM    9  C   UNL     1      -4.495  -0.216 -32.672  1.00  0.00     0.063 A 
HETATM   10  C   UNL     1      -4.924   1.090 -32.543  1.00  0.00     0.071 A 
BRANCH   9  11
HETATM   11  C   UNL     1      -5.037  -1.344 -33.428  1.00  0.00    -0.008 A 
HETATM   12  C   UNL     1      -4.232  -2.441 -33.778  1.00  0.00     0.017 A 
HETATM   13  C   UNL     1      -4.766  -3.513 -34.499  1.00  0.00     0.043 A 
HETATM   14  C   UNL     1      -6.104  -3.495 -34.869  1.00  0.00     0.116 A 
HETATM   15  F   UNL     1      -6.613  -4.523 -35.558  1.00  0.00    -0.206 F 
HETATM   16  C   UNL     1      -6.921  -2.425 -34.529  1.00  0.00     0.043 A 
HETATM   17  C   UNL     1      -6.388  -1.353 -33.809  1.00  0.00     0.017 A 
ENDBRANCH   9  11
ENDBRANCH   2   5
BRANCH   1  18
HETATM   18  C   UNL     1      -2.835   5.303 -31.460  1.00  0.00     0.165 C 
BRANCH  18  19
HETATM   19  C   UNL     1      -1.399   5.850 -31.710  1.00  0.00     0.097 C 
HETATM   20  C   UNL     1      -1.429   7.045 -32.672  1.00  0.00     0.053 C 
BRANCH  19  21
HETATM   21  O   UNL     1      -0.661   4.793 -32.358  1.00  0.00    -0.384 OA
HETATM   22  H   UNL     1       0.262   5.093 -32.431  1.00  0.00     0.211 HD
ENDBRANCH  19  21
BRANCH  19  23
HETATM   23  C   UNL     1      -0.642   6.234 -30.431  1.00  0.00    -0.023 A 
HETATM   24  C   UNL     1      -0.627   7.542 -29.913  1.00  0.00     0.013 A 
HETATM   25  C   UNL     1       0.085   7.846 -28.748  1.00  0.00     0.043 A 
HETATM   26  C   UNL     1       0.797   6.850 -28.094  1.00  0.00     0.116 A 
HETATM   27  F   UNL     1       1.479   7.147 -26.982  1.00  0.00    -0.206 F 
HETATM   28  C   UNL     1       0.812   5.552 -28.582  1.00  0.00     0.043 A 
HETATM   29  C   UNL     1       0.099   5.247 -29.744  1.00  0.00     0.013 A 
ENDBRANCH  19  23
ENDBRANCH  18  19
ENDBRANCH   1  18
TORSDOF 6
ENDMDL
MODEL 2
REMARK VINA RESULT:      -8.7      1.880      2.256
REMARK  6 active torsions:
REMARK  status: ('A' for Active; 'I' for Inactive)
REMARK    1  A    between atoms: C_2  and  O_3 
REMARK    2  A    between atoms: C_2  and  C_4 
REMARK    3  A    between atoms: C_2  and  C_11 
REMARK    4  A    between atoms: C_11  and  N_12 
REMARK       I    between atoms: N_12  and  C_13 
REMARK    5  A    between atoms: C_13  and  C_14 
REMARK    6  A    between atoms: C_18  and  C_19 
ROOT
HETATM    1  N   UNL     1      -4.432   3.389 -32.166  1.00  0.00    -0.352 N 
HETATM    2  C   UNL     1      -5.710   3.285 -32.666  1.00  0.00     0.272 C 
HETATM    3  O   UNL     1      -6.555   4.169 -32.558  1.00  0.00    -0.266 OA
HETATM    4  H   UNL     1      -3.795   2.640 -32.428  1.00  0.00     0.162 HD
ENDROOT
BRANCH   2   5
HETATM    5  C   UNL     1      -5.968   2.012 -33.357  1.00  0.00     0.146 A 
HETATM    6  N   UNL     1      -6.861   1.906 -34.361  1.00  0.00    -0.169 NA
HETATM    7  N   UNL     1      -6.805   0.607 -34.706  1.00  0.00    -0.277 N 
HETATM    8  H   UNL     1      -7.425   0.282 -35.439  1.00  0.00     0.189 HD
HETATM    9  C   UNL     1      -5.901  -0.135 -33.989  1.00  0.00     0.063 A 
HETATM   10  C   UNL     1      -5.356   0.761 -33.091  1.00  0.00     0.071 A 
BRANCH   9  11
HETATM   11  C   UNL     1      -5.668  -1.564 -34.194  1.00  0.00    -0.008 A 
HETATM   12  C   UNL     1      -4.418  -2.145 -33.924  1.00  0.00     0.017 A 
HETATM   13  C   UNL     1      -4.213  -3.513 -34.122  1.00  0.00     0.043 A 
HETATM   14  C   UNL     1      -5.254  -4.305 -34.587  1.00  0.00     0.116 A 
HETATM   15  F   UNL     1      -5.055  -5.616 -34.774  1.00  0.00    -0.206 F 
HETATM   16  C   UNL     1      -6.501  -3.755 -34.855  1.00  0.00     0.043 A 
HETATM   17  C   UNL     1      -6.707  -2.388 -34.657  1.00  0.00     0.017 A 
ENDBRANCH   9  11
ENDBRANCH   2   5
BRANCH   1  18
HETATM   18  C   UNL     1      -3.909   4.597 -31.555  1.00  0.00     0.165 C 
BRANCH  18  19
HETATM   19  C   UNL     1      -2.760   5.259 -32.369  1.00  0.00     0.097 C 
HETATM   20  C   UNL     1      -3.322   6.243 -33.405  1.00  0.00     0.053 C 
BRANCH  19  21
HETATM   21  O   UNL     1      -2.102   4.199 -33.094  1.00  0.00    -0.384 OA
HETATM   22  H   UNL     1      -1.416   3.835 -32.508  1.00  0.00     0.211 HD
ENDBRANCH  19  21
BRANCH  19  23
HETATM   23  C   UNL     1      -1.704   5.962 -31.506  1.00  0.00    -0.023 A 
HETATM   24  C   UNL     1      -0.352   6.065 -31.882  1.00  0.00     0.013 A 
HETATM   25  C   UNL     1       0.577   6.708 -31.058  1.00  0.00     0.043 A 
HETATM   26  C   UNL     1       0.167   7.248 -29.847  1.00  0.00     0.116 A 
HETATM   27  F   UNL     1       1.061   7.861 -29.060  1.00  0.00    -0.206 F 
HETATM   28  C   UNL     1      -1.156   7.158 -29.441  1.00  0.00     0.043 A 
HETATM   29  C   UNL     1      -2.084   6.517 -30.264  1.00  0.00     0.013 A 
ENDBRANCH  19  23
ENDBRANCH  18  19
ENDBRANCH   1  18
TORSDOF 6
ENDMDL
MODEL 3
REMARK VINA RESULT:      -8.6      2.492      9.496
REMARK  6 active torsions:
REMARK  status: ('A' for Active; 'I' for Inactive)
REMARK    1  A    between atoms: C_2  and  O_3 
REMARK    2  A    between atoms: C_2  and  C_4 
REMARK    3  A    between atoms: C_2  and  C_11 
REMARK    4  A    between atoms: C_11  and  N_12 
REMARK       I    between atoms: N_12  and  C_13 
REMARK    5  A    between atoms: C_13  and  C_14 
REMARK    6  A    between atoms: C_18  and  C_19 
ROOT
HETATM    1  N   UNL     1      -5.991   2.906 -33.951  1.00  0.00    -0.352 N 
HETATM    2  C   UNL     1      -6.081   4.278 -34.001  1.00  0.00     0.272 C 
HETATM    3  O   UNL     1      -7.122   4.882 -34.244  1.00  0.00    -0.266 OA
HETATM    4  H   UNL     1      -5.103   2.535 -33.621  1.00  0.00     0.162 HD
ENDROOT
BRANCH   2   5
HETATM    5  C   UNL     1      -4.807   4.961 -33.725  1.00  0.00     0.146 A 
HETATM    6  N   UNL     1      -4.068   5.528 -34.699  1.00  0.00    -0.169 NA
HETATM    7  N   UNL     1      -3.003   6.026 -34.046  1.00  0.00    -0.277 N 
HETATM    8  H   UNL     1      -2.281   6.483 -34.592  1.00  0.00     0.189 HD
HETATM    9  C   UNL     1      -3.023   5.830 -32.689  1.00  0.00     0.063 A 
HETATM   10  C   UNL     1      -4.186   5.121 -32.461  1.00  0.00     0.071 A 
BRANCH   9  11
HETATM   11  C   UNL     1      -1.973   6.288 -31.780  1.00  0.00    -0.008 A 
HETATM   12  C   UNL     1      -0.628   6.330 -32.181  1.00  0.00     0.017 A 
HETATM   13  C   UNL     1       0.363   6.773 -31.301  1.00  0.00     0.043 A 
HETATM   14  C   UNL     1       0.014   7.178 -30.019  1.00  0.00     0.116 A 
HETATM   15  F   UNL     1       0.966   7.603 -29.179  1.00  0.00    -0.206 F 
HETATM   16  C   UNL     1      -1.309   7.151 -29.601  1.00  0.00     0.043 A 
HETATM   17  C   UNL     1      -2.301   6.709 -30.480  1.00  0.00     0.017 A 
ENDBRANCH   9  11
ENDBRANCH   2   5
BRANCH   1  18
HETATM   18  C   UNL     1      -7.138   2.026 -34.068  1.00  0.00     0.165 C 
BRANCH  18  19
HETATM   19  C   UNL     1      -7.136   0.859 -33.038  1.00  0.00     0.097 C 
HETATM   20  C   UNL     1      -8.569   0.418 -32.709  1.00  0.00     0.053 C 
BRANCH  19  21
HETATM   21  O   UNL     1      -6.556   1.381 -31.824  1.00  0.00    -0.384 OA
HETATM   22  H   UNL     1      -6.179   2.252 -32.039  1.00  0.00     0.211 HD
ENDBRANCH  19  21
BRANCH  19  23
HETATM   23  C   UNL     1      -6.305  -0.357 -33.469  1.00  0.00    -0.023 A 
HETATM   24  C   UNL     1      -4.956  -0.530 -33.110  1.00  0.00     0.013 A 
HETATM   25  C   UNL     1      -4.237  -1.652 -33.535  1.00  0.00     0.043 A 
HETATM   26  C   UNL     1      -4.855  -2.609 -34.327  1.00  0.00     0.116 A 
HETATM   27  F   UNL     1      -4.162  -3.680 -34.733  1.00  0.00    -0.206 F 
HETATM   28  C   UNL     1      -6.181  -2.466 -34.707  1.00  0.00     0.043 A 
HETATM   29  C   UNL     1      -6.901  -1.347 -34.282  1.00  0.00     0.013 A 
ENDBRANCH  19  23
ENDBRANCH  18  19
ENDBRANCH   1  18
TORSDOF 6
ENDMDL
MODEL 4
REMARK VINA RESULT:      -8.5      6.271      9.219
REMARK  6 active torsions:
REMARK  status: ('A' for Active; 'I' for Inactive)
REMARK    1  A    between atoms: C_2  and  O_3 
REMARK    2  A    between atoms: C_2  and  C_4 
REMARK    3  A    between atoms: C_2  and  C_11 
REMARK    4  A    between atoms: C_11  and  N_12 
REMARK       I    between atoms: N_12  and  C_13 
REMARK    5  A    between atoms: C_13  and  C_14 
REMARK    6  A    between atoms: C_18  and  C_19 
ROOT
HETATM    1  N   UNL     1      -6.632  -0.099 -32.020  1.00  0.00    -0.352 N 
HETATM    2  C   UNL     1      -6.976   1.157 -32.464  1.00  0.00     0.272 C 
HETATM    3  O   UNL     1      -6.262   2.146 -32.323  1.00  0.00    -0.266 OA
HETATM    4  H   UNL     1      -7.253  -0.853 -32.307  1.00  0.00     0.162 HD
ENDROOT
BRANCH   2   5
HETATM    5  C   UNL     1      -8.282   1.204 -33.138  1.00  0.00     0.146 A 
HETATM    6  N   UNL     1      -8.400   1.233 -34.481  1.00  0.00    -0.169 NA
HETATM    7  N   UNL     1      -9.728   1.280 -34.687  1.00  0.00    -0.277 N 
HETATM    8  H   UNL     1     -10.059   1.338 -35.644  1.00  0.00     0.189 HD
HETATM    9  C   UNL     1     -10.484   1.259 -33.543  1.00  0.00     0.063 A 
HETATM   10  C   UNL     1      -9.558   1.226 -32.520  1.00  0.00     0.071 A 
BRANCH   9  11
HETATM   11  C   UNL     1     -11.945   1.298 -33.527  1.00  0.00    -0.008 A 
HETATM   12  C   UNL     1     -12.708   0.134 -33.720  1.00  0.00     0.017 A 
HETATM   13  C   UNL     1     -14.104   0.187 -33.698  1.00  0.00     0.043 A 
HETATM   14  C   UNL     1     -14.743   1.400 -33.480  1.00  0.00     0.116 A 
HETATM   15  F   UNL     1     -16.081   1.448 -33.459  1.00  0.00    -0.206 F 
HETATM   16  C   UNL     1     -14.012   2.563 -33.281  1.00  0.00     0.043 A 
HETATM   17  C   UNL     1     -12.616   2.511 -33.302  1.00  0.00     0.017 A 
ENDBRANCH   9  11
ENDBRANCH   2   5
BRANCH   1  18
HETATM   18  C   UNL     1      -5.341  -0.414 -31.436  1.00  0.00     0.165 C 
BRANCH  18  19
HETATM   19  C   UNL     1      -4.277  -0.857 -32.482  1.00  0.00     0.097 C 
HETATM   20  C   UNL     1      -2.934  -1.155 -31.801  1.00  0.00     0.053 C 
BRANCH  19  21
HETATM   21  O   UNL     1      -4.073   0.265 -33.366  1.00  0.00    -0.384 OA
HETATM   22  H   UNL     1      -4.810   0.883 -33.217  1.00  0.00     0.211 HD
ENDBRANCH  19  21
BRANCH  19  23
HETATM   23  C   UNL     1      -4.701  -2.058 -33.339  1.00  0.00    -0.023 A 
HETATM   24  C   UNL     1      -3.974  -3.262 -33.383  1.00  0.00     0.013 A 
HETATM   25  C   UNL     1      -4.396  -4.327 -34.187  1.00  0.00     0.043 A 
HETATM   26  C   UNL     1      -5.541  -4.197 -34.960  1.00  0.00     0.116 A 
HETATM   27  F   UNL     1      -5.938  -5.218 -35.729  1.00  0.00    -0.206 F 
HETATM   28  C   UNL     1      -6.276  -3.021 -34.948  1.00  0.00     0.043 A 
HETATM   29  C   UNL     1      -5.858  -1.959 -34.144  1.00  0.00     0.013 A 
ENDBRANCH  19  23
ENDBRANCH  18  19
ENDBRANCH   1  18
TORSDOF 6
ENDMDL
MODEL 5
REMARK VINA RESULT:      -8.4      2.798      9.584
REMARK  6 active torsions:
REMARK  status: ('A' for Active; 'I' for Inactive)
REMARK    1  A    between atoms: C_2  and  O_3 
REMARK    2  A    between atoms: C_2  and  C_4 
REMARK    3  A    between atoms: C_2  and  C_11 
REMARK    4  A    between atoms: C_11  and  N_12 
REMARK       I    between atoms: N_12  and  C_13 
REMARK    5  A    between atoms: C_13  and  C_14 
REMARK    6  A    between atoms: C_18  and  C_19 
ROOT
HETATM    1  N   UNL     1      -6.219   1.554 -33.091  1.00  0.00    -0.352 N 
HETATM    2  C   UNL     1      -6.645   2.850 -33.277  1.00  0.00     0.272 C 
HETATM    3  O   UNL     1      -7.828   3.176 -33.316  1.00  0.00    -0.266 OA
HETATM    4  H   UNL     1      -5.218   1.436 -32.955  1.00  0.00     0.162 HD
ENDROOT
BRANCH   2   5
HETATM    5  C   UNL     1      -5.544   3.816 -33.413  1.00  0.00     0.146 A 
HETATM    6  N   UNL     1      -5.485   4.703 -34.427  1.00  0.00    -0.169 NA
HETATM    7  N   UNL     1      -4.347   5.381 -34.196  1.00  0.00    -0.277 N 
HETATM    8  H   UNL     1      -4.076   6.096 -34.861  1.00  0.00     0.189 HD
HETATM    9  C   UNL     1      -3.671   4.994 -33.067  1.00  0.00     0.063 A 
HETATM   10  C   UNL     1      -4.429   3.962 -32.550  1.00  0.00     0.071 A 
BRANCH   9  11
HETATM   11  C   UNL     1      -2.415   5.593 -32.618  1.00  0.00    -0.008 A 
HETATM   12  C   UNL     1      -1.435   4.827 -31.964  1.00  0.00     0.017 A 
HETATM   13  C   UNL     1      -0.238   5.414 -31.544  1.00  0.00     0.043 A 
HETATM   14  C   UNL     1      -0.015   6.764 -31.778  1.00  0.00     0.116 A 
HETATM   15  F   UNL     1       1.133   7.323 -31.375  1.00  0.00    -0.206 F 
HETATM   16  C   UNL     1      -0.966   7.540 -32.427  1.00  0.00     0.043 A 
HETATM   17  C   UNL     1      -2.162   6.955 -32.848  1.00  0.00     0.017 A 
ENDBRANCH   9  11
ENDBRANCH   2   5
BRANCH   1  18
HETATM   18  C   UNL     1      -7.118   0.451 -32.811  1.00  0.00     0.165 C 
BRANCH  18  19
HETATM   19  C   UNL     1      -7.322  -0.508 -34.020  1.00  0.00     0.097 C 
HETATM   20  C   UNL     1      -7.296   0.270 -35.344  1.00  0.00     0.053 C 
BRANCH  19  21
HETATM   21  O   UNL     1      -8.641  -1.076 -33.881  1.00  0.00    -0.384 OA
HETATM   22  H   UNL     1      -9.274  -0.338 -33.909  1.00  0.00     0.211 HD
ENDBRANCH  19  21
BRANCH  19  23
HETATM   23  C   UNL     1      -6.316  -1.665 -34.080  1.00  0.00    -0.023 A 
HETATM   24  C   UNL     1      -5.017  -1.580 -33.547  1.00  0.00     0.013 A 
HETATM   25  C   UNL     1      -4.131  -2.659 -33.634  1.00  0.00     0.043 A 
HETATM   26  C   UNL     1      -4.531  -3.832 -34.260  1.00  0.00     0.116 A 
HETATM   27  F   UNL     1      -3.680  -4.861 -34.342  1.00  0.00    -0.206 F 
HETATM   28  C   UNL     1      -5.802  -3.947 -34.804  1.00  0.00     0.043 A 
HETATM   29  C   UNL     1      -6.687  -2.871 -34.716  1.00  0.00     0.013 A 
ENDBRANCH  19  23
ENDBRANCH  18  19
ENDBRANCH   1  18
TORSDOF 6
ENDMDL
MODEL 6
REMARK VINA RESULT:      -8.3      2.524      3.479
REMARK  6 active torsions:
REMARK  status: ('A' for Active; 'I' for Inactive)
REMARK    1  A    between atoms: C_2  and  O_3 
REMARK    2  A    between atoms: C_2  and  C_4 
REMARK    3  A    between atoms: C_2  and  C_11 
REMARK    4  A    between atoms: C_11  and  N_12 
REMARK       I    between atoms: N_12  and  C_13 
REMARK    5  A    between atoms: C_13  and  C_14 
REMARK    6  A    between atoms: C_18  and  C_19 
ROOT
HETATM    1  N   UNL     1      -5.259   3.593 -33.505  1.00  0.00    -0.352 N 
HETATM    2  C   UNL     1      -6.569   3.177 -33.567  1.00  0.00     0.272 C 
HETATM    3  O   UNL     1      -7.524   3.897 -33.291  1.00  0.00    -0.266 OA
HETATM    4  H   UNL     1      -4.572   2.941 -33.876  1.00  0.00     0.162 HD
ENDROOT
BRANCH   2   5
HETATM    5  C   UNL     1      -6.721   1.782 -34.011  1.00  0.00     0.146 A 
HETATM    6  N   UNL     1      -7.742   1.383 -34.795  1.00  0.00    -0.169 NA
HETATM    7  N   UNL     1      -7.526   0.066 -34.961  1.00  0.00    -0.277 N 
HETATM    8  H   UNL     1      -8.199  -0.462 -35.505  1.00  0.00     0.189 HD
HETATM    9  C   UNL     1      -6.398  -0.409 -34.341  1.00  0.00     0.063 A 
HETATM   10  C   UNL     1      -5.867   0.693 -33.701  1.00  0.00     0.071 A 
BRANCH   9  11
HETATM   11  C   UNL     1      -5.964  -1.804 -34.388  1.00  0.00    -0.008 A 
HETATM   12  C   UNL     1      -6.840  -2.828 -34.783  1.00  0.00     0.017 A 
HETATM   13  C   UNL     1      -6.408  -4.156 -34.826  1.00  0.00     0.043 A 
HETATM   14  C   UNL     1      -5.101  -4.467 -34.477  1.00  0.00     0.116 A 
HETATM   15  F   UNL     1      -4.690  -5.740 -34.520  1.00  0.00    -0.206 F 
HETATM   16  C   UNL     1      -4.214  -3.471 -34.088  1.00  0.00     0.043 A 
HETATM   17  C   UNL     1      -4.644  -2.143 -34.046  1.00  0.00     0.017 A 
ENDBRANCH   9  11
ENDBRANCH   2   5
BRANCH   1  18
HETATM   18  C   UNL     1      -4.868   4.959 -33.212  1.00  0.00     0.165 C 
BRANCH  18  19
HETATM   19  C   UNL     1      -4.312   5.153 -31.772  1.00  0.00     0.097 C 
HETATM   20  C   UNL     1      -4.454   3.861 -30.954  1.00  0.00     0.053 C 
BRANCH  19  21
HETATM   21  O   UNL     1      -5.137   6.154 -31.140  1.00  0.00    -0.384 OA
HETATM   22  H   UNL     1      -6.060   5.953 -31.374  1.00  0.00     0.211 HD
ENDBRANCH  19  21
BRANCH  19  23
HETATM   23  C   UNL     1      -2.858   5.642 -31.720  1.00  0.00    -0.023 A 
HETATM   24  C   UNL     1      -1.761   4.771 -31.590  1.00  0.00     0.013 A 
HETATM   25  C   UNL     1      -0.454   5.264 -31.539  1.00  0.00     0.043 A 
HETATM   26  C   UNL     1      -0.229   6.632 -31.608  1.00  0.00     0.116 A 
HETATM   27  F   UNL     1       1.025   7.099 -31.556  1.00  0.00    -0.206 F 
HETATM   28  C   UNL     1      -1.287   7.520 -31.727  1.00  0.00     0.043 A 
HETATM   29  C   UNL     1      -2.593   7.028 -31.781  1.00  0.00     0.013 A 
ENDBRANCH  19  23
ENDBRANCH  18  19
ENDBRANCH   1  18
TORSDOF 6
ENDMDL
MODEL 7
REMARK VINA RESULT:      -8.3      6.462      9.395
REMARK  6 active torsions:
REMARK  status: ('A' for Active; 'I' for Inactive)
REMARK    1  A    between atoms: C_2  and  O_3 
REMARK    2  A    between atoms: C_2  and  C_4 
REMARK    3  A    between atoms: C_2  and  C_11 
REMARK    4  A    between atoms: C_11  and  N_12 
REMARK       I    between atoms: N_12  and  C_13 
REMARK    5  A    between atoms: C_13  and  C_14 
REMARK    6  A    between atoms: C_18  and  C_19 
ROOT
HETATM    1  N   UNL     1      -9.006   2.727 -33.846  1.00  0.00    -0.352 N 
HETATM    2  C   UNL     1      -7.851   2.845 -33.108  1.00  0.00     0.272 C 
HETATM    3  O   UNL     1      -7.604   3.803 -32.382  1.00  0.00    -0.266 OA
HETATM    4  H   UNL     1      -9.143   1.832 -34.309  1.00  0.00     0.162 HD
ENDROOT
BRANCH   2   5
HETATM    5  C   UNL     1      -6.937   1.703 -33.262  1.00  0.00     0.146 A 
HETATM    6  N   UNL     1      -5.623   1.787 -32.974  1.00  0.00    -0.169 NA
HETATM    7  N   UNL     1      -5.152   0.558 -33.251  1.00  0.00    -0.277 N 
HETATM    8  H   UNL     1      -4.159   0.392 -33.134  1.00  0.00     0.189 HD
HETATM    9  C   UNL     1      -6.101  -0.332 -33.684  1.00  0.00     0.063 A 
HETATM   10  C   UNL     1      -7.271   0.401 -33.714  1.00  0.00     0.071 A 
BRANCH   9  11
HETATM   11  C   UNL     1      -5.819  -1.722 -34.039  1.00  0.00    -0.008 A 
HETATM   12  C   UNL     1      -4.538  -2.272 -33.869  1.00  0.00     0.017 A 
HETATM   13  C   UNL     1      -4.286  -3.604 -34.210  1.00  0.00     0.043 A 
HETATM   14  C   UNL     1      -5.311  -4.390 -34.718  1.00  0.00     0.116 A 
HETATM   15  F   UNL     1      -5.066  -5.666 -35.043  1.00  0.00    -0.206 F 
HETATM   16  C   UNL     1      -6.587  -3.871 -34.890  1.00  0.00     0.043 A 
HETATM   17  C   UNL     1      -6.841  -2.540 -34.549  1.00  0.00     0.017 A 
ENDBRANCH   9  11
ENDBRANCH   2   5
BRANCH   1  18
HETATM   18  C   UNL     1     -10.107   3.668 -33.762  1.00  0.00     0.165 C 
BRANCH  18  19
HETATM   19  C   UNL     1     -11.162   3.295 -32.680  1.00  0.00     0.097 C 
HETATM   20  C   UNL     1     -11.682   4.552 -31.968  1.00  0.00     0.053 C 
BRANCH  19  21
HETATM   21  O   UNL     1     -10.479   2.492 -31.694  1.00  0.00    -0.384 OA
HETATM   22  H   UNL     1     -11.162   2.104 -31.120  1.00  0.00     0.211 HD
ENDBRANCH  19  21
BRANCH  19  23
HETATM   23  C   UNL     1     -12.346   2.476 -33.214  1.00  0.00    -0.023 A 
HETATM   24  C   UNL     1     -12.211   1.501 -34.220  1.00  0.00     0.013 A 
HETATM   25  C   UNL     1     -13.321   0.786 -34.680  1.00  0.00     0.043 A 
HETATM   26  C   UNL     1     -14.577   1.041 -34.147  1.00  0.00     0.116 A 
HETATM   27  F   UNL     1     -15.636   0.355 -34.594  1.00  0.00    -0.206 F 
HETATM   28  C   UNL     1     -14.747   2.001 -33.161  1.00  0.00     0.043 A 
HETATM   29  C   UNL     1     -13.639   2.714 -32.699  1.00  0.00     0.013 A 
ENDBRANCH  19  23
ENDBRANCH  18  19
ENDBRANCH   1  18
TORSDOF 6
ENDMDL
MODEL 8
REMARK VINA RESULT:      -8.2      4.084      5.676
REMARK  6 active torsions:
REMARK  status: ('A' for Active; 'I' for Inactive)
REMARK    1  A    between atoms: C_2  and  O_3 
REMARK    2  A    between atoms: C_2  and  C_4 
REMARK    3  A    between atoms: C_2  and  C_11 
REMARK    4  A    between atoms: C_11  and  N_12 
REMARK       I    between atoms: N_12  and  C_13 
REMARK    5  A    between atoms: C_13  and  C_14 
REMARK    6  A    between atoms: C_18  and  C_19 
ROOT
HETATM    1  N   UNL     1      -4.739   3.142 -31.613  1.00  0.00    -0.352 N 
HETATM    2  C   UNL     1      -3.528   2.489 -31.558  1.00  0.00     0.272 C 
HETATM    3  O   UNL     1      -2.482   3.027 -31.209  1.00  0.00    -0.266 OA
HETATM    4  H   UNL     1      -5.548   2.554 -31.799  1.00  0.00     0.162 HD
ENDROOT
BRANCH   2   5
HETATM    5  C   UNL     1      -3.607   1.072 -31.948  1.00  0.00     0.146 A 
HETATM    6  N   UNL     1      -2.723   0.154 -31.512  1.00  0.00    -0.169 NA
HETATM    7  N   UNL     1      -3.131  -0.989 -32.091  1.00  0.00    -0.277 N 
HETATM    8  H   UNL     1      -2.586  -1.827 -31.925  1.00  0.00     0.189 HD
HETATM    9  C   UNL     1      -4.255  -0.864 -32.867  1.00  0.00     0.063 A 
HETATM   10  C   UNL     1      -4.572   0.478 -32.801  1.00  0.00     0.071 A 
BRANCH   9  11
HETATM   11  C   UNL     1      -4.879  -1.972 -33.589  1.00  0.00    -0.008 A 
HETATM   12  C   UNL     1      -6.183  -1.867 -34.100  1.00  0.00     0.017 A 
HETATM   13  C   UNL     1      -6.764  -2.934 -34.790  1.00  0.00     0.043 A 
HETATM   14  C   UNL     1      -6.045  -4.108 -34.974  1.00  0.00     0.116 A 
HETATM   15  F   UNL     1      -6.604  -5.128 -35.637  1.00  0.00    -0.206 F 
HETATM   16  C   UNL     1      -4.753  -4.234 -34.484  1.00  0.00     0.043 A 
HETATM   17  C   UNL     1      -4.170  -3.167 -33.794  1.00  0.00     0.017 A 
ENDBRANCH   9  11
ENDBRANCH   2   5
BRANCH   1  18
HETATM   18  C   UNL     1      -4.931   4.506 -31.159  1.00  0.00     0.165 C 
BRANCH  18  19
HETATM   19  C   UNL     1      -5.763   4.614 -29.848  1.00  0.00     0.097 C 
HETATM   20  C   UNL     1      -5.435   5.913 -29.098  1.00  0.00     0.053 C 
BRANCH  19  21
HETATM   21  O   UNL     1      -5.353   3.516 -29.006  1.00  0.00    -0.384 OA
HETATM   22  H   UNL     1      -6.129   2.940 -28.891  1.00  0.00     0.211 HD
ENDBRANCH  19  21
BRANCH  19  23
HETATM   23  C   UNL     1      -7.279   4.505 -30.056  1.00  0.00    -0.023 A 
HETATM   24  C   UNL     1      -8.133   5.623 -30.073  1.00  0.00     0.013 A 
HETATM   25  C   UNL     1      -9.511   5.473 -30.258  1.00  0.00     0.043 A 
HETATM   26  C   UNL     1     -10.052   4.205 -30.418  1.00  0.00     0.116 A 
HETATM   27  F   UNL     1     -11.372   4.067 -30.592  1.00  0.00    -0.206 F 
HETATM   28  C   UNL     1      -9.242   3.080 -30.397  1.00  0.00     0.043 A 
HETATM   29  C   UNL     1      -7.865   3.229 -30.216  1.00  0.00     0.013 A 
ENDBRANCH  19  23
ENDBRANCH  18  19
ENDBRANCH   1  18
TORSDOF 6
ENDMDL
MODEL 9
REMARK VINA RESULT:      -8.1      2.684      3.454
REMARK  6 active torsions:
REMARK  status: ('A' for Active; 'I' for Inactive)
REMARK    1  A    between atoms: C_2  and  O_3 
REMARK    2  A    between atoms: C_2  and  C_4 
REMARK    3  A    between atoms: C_2  and  C_11 
REMARK    4  A    between atoms: C_11  and  N_12 
REMARK       I    between atoms: N_12  and  C_13 
REMARK    5  A    between atoms: C_13  and  C_14 
REMARK    6  A    between atoms: C_18  and  C_19 
ROOT
HETATM    1  N   UNL     1      -4.488   4.098 -30.625  1.00  0.00    -0.352 N 
HETATM    2  C   UNL     1      -5.448   3.113 -30.673  1.00  0.00     0.272 C 
HETATM    3  O   UNL     1      -6.561   3.225 -30.168  1.00  0.00    -0.266 OA
HETATM    4  H   UNL     1      -3.656   3.929 -31.184  1.00  0.00     0.162 HD
ENDROOT
BRANCH   2   5
HETATM    5  C   UNL     1      -5.017   1.909 -31.399  1.00  0.00     0.146 A 
HETATM    6  N   UNL     1      -3.723   1.540 -31.481  1.00  0.00    -0.169 NA
HETATM    7  N   UNL     1      -3.753   0.418 -32.220  1.00  0.00    -0.277 N 
HETATM    8  H   UNL     1      -2.871  -0.031 -32.440  1.00  0.00     0.189 HD
HETATM    9  C   UNL     1      -5.009   0.023 -32.607  1.00  0.00     0.063 A 
HETATM   10  C   UNL     1      -5.847   0.993 -32.094  1.00  0.00     0.071 A 
BRANCH   9  11
HETATM   11  C   UNL     1      -5.281  -1.167 -33.411  1.00  0.00    -0.008 A 
HETATM   12  C   UNL     1      -4.249  -2.036 -33.802  1.00  0.00     0.017 A 
HETATM   13  C   UNL     1      -4.526  -3.171 -34.568  1.00  0.00     0.043 A 
HETATM   14  C   UNL     1      -5.835  -3.444 -34.945  1.00  0.00     0.116 A 
HETATM   15  F   UNL     1      -6.098  -4.532 -35.678  1.00  0.00    -0.206 F 
HETATM   16  C   UNL     1      -6.873  -2.603 -34.566  1.00  0.00     0.043 A 
HETATM   17  C   UNL     1      -6.597  -1.469 -33.799  1.00  0.00     0.017 A 
ENDBRANCH   9  11
ENDBRANCH   2   5
BRANCH   1  18
HETATM   18  C   UNL     1      -4.725   5.418 -30.070  1.00  0.00     0.165 C 
BRANCH  18  19
HETATM   19  C   UNL     1      -3.832   6.526 -30.698  1.00  0.00     0.097 C 
HETATM   20  C   UNL     1      -2.773   7.007 -29.696  1.00  0.00     0.053 C 
BRANCH  19  21
HETATM   21  O   UNL     1      -4.697   7.646 -30.981  1.00  0.00    -0.384 OA
HETATM   22  H   UNL     1      -4.152   8.450 -30.922  1.00  0.00     0.211 HD
ENDBRANCH  19  21
BRANCH  19  23
HETATM   23  C   UNL     1      -3.152   6.116 -32.011  1.00  0.00    -0.023 A 
HETATM   24  C   UNL     1      -3.831   6.067 -33.243  1.00  0.00     0.013 A 
HETATM   25  C   UNL     1      -3.171   5.678 -34.413  1.00  0.00     0.043 A 
HETATM   26  C   UNL     1      -1.829   5.325 -34.364  1.00  0.00     0.116 A 
HETATM   27  F   UNL     1      -1.203   4.950 -35.486  1.00  0.00    -0.206 F 
HETATM   28  C   UNL     1      -1.132   5.352 -33.166  1.00  0.00     0.043 A 
HETATM   29  C   UNL     1      -1.789   5.743 -31.997  1.00  0.00     0.013 A 
ENDBRANCH  19  23
ENDBRANCH  18  19
ENDBRANCH   1  18
TORSDOF 6
ENDMDL
MODEL 10
REMARK VINA RESULT:      -8.1      6.082      8.248
REMARK  6 active torsions:
REMARK  status: ('A' for Active; 'I' for Inactive)
REMARK    1  A    between atoms: C_2  and  O_3 
REMARK    2  A    between atoms: C_2  and  C_4 
REMARK    3  A    between atoms: C_2  and  C_11 
REMARK    4  A    between atoms: C_11  and  N_12 
REMARK       I    between atoms: N_12  and  C_13 
REMARK    5  A    between atoms: C_13  and  C_14 
REMARK    6  A    between atoms: C_18  and  C_19 
ROOT
HETATM    1  N   UNL     1      -8.027   3.556 -32.027  1.00  0.00    -0.352 N 
HETATM    2  C   UNL     1      -7.349   2.682 -31.207  1.00  0.00     0.272 C 
HETATM    3  O   UNL     1      -7.392   2.730 -29.981  1.00  0.00    -0.266 OA
HETATM    4  H   UNL     1      -8.006   3.333 -33.019  1.00  0.00     0.162 HD
ENDROOT
BRANCH   2   5
HETATM    5  C   UNL     1      -6.573   1.670 -31.941  1.00  0.00     0.146 A 
HETATM    6  N   UNL     1      -5.287   1.866 -32.295  1.00  0.00    -0.169 NA
HETATM    7  N   UNL     1      -4.955   0.734 -32.940  1.00  0.00    -0.277 N 
HETATM    8  H   UNL     1      -4.021   0.665 -33.330  1.00  0.00     0.189 HD
HETATM    9  C   UNL     1      -5.956  -0.201 -33.004  1.00  0.00     0.063 A 
HETATM   10  C   UNL     1      -7.027   0.397 -32.371  1.00  0.00     0.071 A 
BRANCH   9  11
HETATM   11  C   UNL     1      -5.819  -1.505 -33.652  1.00  0.00    -0.008 A 
HETATM   12  C   UNL     1      -4.568  -2.132 -33.773  1.00  0.00     0.017 A 
HETATM   13  C   UNL     1      -4.454  -3.379 -34.392  1.00  0.00     0.043 A 
HETATM   14  C   UNL     1      -5.588  -4.005 -34.891  1.00  0.00     0.116 A 
HETATM   15  F   UNL     1      -5.477  -5.201 -35.483  1.00  0.00    -0.206 F 
HETATM   16  C   UNL     1      -6.837  -3.409 -34.779  1.00  0.00     0.043 A 
HETATM   17  C   UNL     1      -6.952  -2.162 -34.159  1.00  0.00     0.017 A 
ENDBRANCH   9  11
ENDBRANCH   2   5
BRANCH   1  18
HETATM   18  C   UNL     1      -8.952   4.558 -31.534  1.00  0.00     0.165 C 
BRANCH  18  19
HETATM   19  C   UNL     1     -10.415   4.044 -31.403  1.00  0.00     0.097 C 
HETATM   20  C   UNL     1     -11.367   5.192 -31.042  1.00  0.00     0.053 C 
BRANCH  19  21
HETATM   21  O   UNL     1     -10.428   3.111 -30.302  1.00  0.00    -0.384 OA
HETATM   22  H   UNL     1     -10.343   3.632 -29.485  1.00  0.00     0.211 HD
ENDBRANCH  19  21
BRANCH  19  23
HETATM   23  C   UNL     1     -10.936   3.310 -32.646  1.00  0.00    -0.023 A 
HETATM   24  C   UNL     1     -10.677   1.950 -32.898  1.00  0.00     0.013 A 
HETATM   25  C   UNL     1     -11.167   1.327 -34.051  1.00  0.00     0.043 A 
HETATM   26  C   UNL     1     -11.912   2.056 -34.967  1.00  0.00     0.116 A 
HETATM   27  F   UNL     1     -12.375   1.455 -36.069  1.00  0.00    -0.206 F 
HETATM   28  C   UNL     1     -12.178   3.401 -34.754  1.00  0.00     0.043 A 
HETATM   29  C   UNL     1     -11.692   4.023 -33.603  1.00  0.00     0.013 A 
ENDBRANCH  19  23
ENDBRANCH  18  19
ENDBRANCH   1  18
TORSDOF 6
ENDMDL
