MODEL 1
REMARK VINA RESULT:      -7.5      0.000      0.000
REMARK  5 active torsions:
REMARK  status: ('A' for Active; 'I' for Inactive)
REMARK    1  A    between atoms: C_2  and  C_3 
REMARK    2  A    between atoms: C_3  and  C_4 
REMARK    3  A    between atoms: C_10  and  C_11 
REMARK    4  A    between atoms: C_12  and  O_13 
REMARK    5  A    between atoms: C_22  and  N_23 
ROOT
HETATM    1  C   UNL     1     -12.232   1.705 -34.571  1.00  0.00     0.066 A 
HETATM    2  N   UNL     1     -12.707   1.793 -35.825  1.00  0.00    -0.177 NA
HETATM    3  N   UNL     1     -12.085   2.872 -36.344  1.00  0.00    -0.256 N 
HETATM    4  H   UNL     1     -12.300   3.152 -37.293  1.00  0.00     0.191 HD
HETATM    5  C   UNL     1     -11.249   3.469 -35.459  1.00  0.00     0.175 A 
HETATM    6  C   UNL     1     -11.291   2.728 -34.306  1.00  0.00     0.035 A 
HETATM    7  C   UNL     1     -10.487   3.143 -33.121  1.00  0.00     0.107 A 
HETATM    8  C   UNL     1      -9.842   4.503 -33.384  1.00  0.00     0.067 A 
HETATM    9  C   UNL     1      -9.202   5.195 -32.191  1.00  0.00     0.020 C 
HETATM   10  N   UNL     1      -8.670   5.768 -31.202  1.00  0.00    -0.096 N 
HETATM   11  C   UNL     1      -9.895   5.141 -34.585  1.00  0.00     0.139 A 
HETATM   12  O   UNL     1     -10.564   4.583 -35.691  1.00  0.00    -0.279 OA
ENDROOT
BRANCH   7  13
HETATM   13  C   UNL     1      -9.457   2.042 -32.903  1.00  0.00    -0.010 A 
HETATM   14  C   UNL     1      -9.146   1.599 -31.609  1.00  0.00     0.073 A 
HETATM   15  C   UNL     1      -8.187   0.608 -31.388  1.00  0.00     0.038 A 
HETATM   16  C   UNL     1      -7.510   0.042 -32.468  1.00  0.00     0.022 A 
HETATM   17  C   UNL     1      -7.795   0.474 -33.760  1.00  0.00     0.011 A 
HETATM   18 BR   UNL     1      -6.876  -0.284 -35.227  1.00  0.00    -0.051 Br
HETATM   19  C   UNL     1      -8.753   1.464 -33.981  1.00  0.00     0.030 A 
BRANCH  14  20
HETATM   20  O   UNL     1      -9.800   2.155 -30.547  1.00  0.00    -0.360 OA
HETATM   21  H   UNL     1      -9.930   3.104 -30.715  1.00  0.00     0.217 HD
ENDBRANCH  14  20
ENDBRANCH   7  13
BRANCH  11  22
HETATM   22  N   UNL     1      -9.336   6.367 -34.863  1.00  0.00    -0.282 NA
HETATM   23  H   UNL     1      -9.505   7.096 -34.174  1.00  0.00     0.126 HD
HETATM   24  H   UNL     1      -8.359   6.291 -35.134  1.00  0.00     0.126 HD
ENDBRANCH  11  22
BRANCH   1  25
HETATM   25  C   UNL     1     -12.734   0.639 -33.654  1.00  0.00     0.061 C 
BRANCH  25  26
HETATM   26  C   UNL     1     -14.240   0.413 -33.785  1.00  0.00     0.002 C 
HETATM   27  C   UNL     1     -15.028   1.521 -33.103  1.00  0.00     0.005 C 
ENDBRANCH  25  26
ENDBRANCH   1  25
TORSDOF 5
ENDMDL
MODEL 2
REMARK VINA RESULT:      -7.3     16.403     18.417
REMARK  5 active torsions:
REMARK  status: ('A' for Active; 'I' for Inactive)
REMARK    1  A    between atoms: C_2  and  C_3 
REMARK    2  A    between atoms: C_3  and  C_4 
REMARK    3  A    between atoms: C_10  and  C_11 
REMARK    4  A    between atoms: C_12  and  O_13 
REMARK    5  A    between atoms: C_22  and  N_23 
ROOT
HETATM    1  C   UNL     1      -8.210 -16.020 -37.684  1.00  0.00     0.066 A 
HETATM    2  N   UNL     1      -8.521 -17.326 -37.760  1.00  0.00    -0.177 NA
HETATM    3  N   UNL     1      -9.394 -17.403 -38.785  1.00  0.00    -0.256 N 
HETATM    4  H   UNL     1      -9.789 -18.305 -39.025  1.00  0.00     0.191 HD
HETATM    5  C   UNL     1      -9.649 -16.196 -39.347  1.00  0.00     0.175 A 
HETATM    6  C   UNL     1      -8.880 -15.275 -38.683  1.00  0.00     0.035 A 
HETATM    7  C   UNL     1      -8.952 -13.833 -39.056  1.00  0.00     0.107 A 
HETATM    8  C   UNL     1     -10.068 -13.618 -40.078  1.00  0.00     0.067 A 
HETATM    9  C   UNL     1     -10.452 -12.177 -40.373  1.00  0.00     0.020 C 
HETATM   10  N   UNL     1     -10.770 -10.982 -40.618  1.00  0.00    -0.096 N 
HETATM   11  C   UNL     1     -10.770 -14.634 -40.649  1.00  0.00     0.139 A 
HETATM   12  O   UNL     1     -10.517 -15.982 -40.329  1.00  0.00    -0.279 OA
ENDROOT
BRANCH   7  13
HETATM   13  C   UNL     1      -7.579 -13.471 -39.609  1.00  0.00    -0.010 A 
HETATM   14  C   UNL     1      -6.772 -12.527 -38.956  1.00  0.00     0.073 A 
HETATM   15  C   UNL     1      -5.521 -12.164 -39.460  1.00  0.00     0.038 A 
HETATM   16  C   UNL     1      -5.054 -12.740 -40.641  1.00  0.00     0.022 A 
HETATM   17  C   UNL     1      -5.842 -13.671 -41.310  1.00  0.00     0.011 A 
HETATM   18 BR   UNL     1      -5.217 -14.450 -42.915  1.00  0.00    -0.051 Br
HETATM   19  C   UNL     1      -7.092 -14.034 -40.808  1.00  0.00     0.030 A 
BRANCH  14  20
HETATM   20  O   UNL     1      -7.228 -11.955 -37.804  1.00  0.00    -0.360 OA
HETATM   21  H   UNL     1      -7.984 -11.379 -38.011  1.00  0.00     0.217 HD
ENDBRANCH  14  20
ENDBRANCH   7  13
BRANCH  11  22
HETATM   22  N   UNL     1     -11.786 -14.486 -41.565  1.00  0.00    -0.282 NA
HETATM   23  H   UNL     1     -12.726 -14.652 -41.213  1.00  0.00     0.126 HD
HETATM   24  H   UNL     1     -11.704 -13.621 -42.092  1.00  0.00     0.126 HD
ENDBRANCH  11  22
BRANCH   1  25
HETATM   25  C   UNL     1      -7.286 -15.532 -36.618  1.00  0.00     0.061 C 
BRANCH  25  26
HETATM   26  C   UNL     1      -5.820 -15.564 -37.050  1.00  0.00     0.002 C 
HETATM   27  C   UNL     1      -5.011 -14.486 -36.346  1.00  0.00     0.005 C 
ENDBRANCH  25  26
ENDBRANCH   1  25
TORSDOF 5
ENDMDL
MODEL 3
REMARK VINA RESULT:      -7.1      3.773      5.804
REMARK  5 active torsions:
REMARK  status: ('A' for Active; 'I' for Inactive)
REMARK    1  A    between atoms: C_2  and  C_3 
REMARK    2  A    between atoms: C_3  and  C_4 
REMARK    3  A    between atoms: C_10  and  C_11 
REMARK    4  A    between atoms: C_12  and  O_13 
REMARK    5  A    between atoms: C_22  and  N_23 
ROOT
HETATM    1  C   UNL     1      -6.001  -0.773 -33.215  1.00  0.00     0.066 A 
HETATM    2  N   UNL     1      -6.103  -1.424 -34.387  1.00  0.00    -0.177 NA
HETATM    3  N   UNL     1      -7.179  -0.873 -34.984  1.00  0.00    -0.256 N 
HETATM    4  H   UNL     1      -7.468  -1.221 -35.891  1.00  0.00     0.191 HD
HETATM    5  C   UNL     1      -7.761   0.091 -34.227  1.00  0.00     0.175 A 
HETATM    6  C   UNL     1      -7.012   0.208 -33.085  1.00  0.00     0.035 A 
HETATM    7  C   UNL     1      -7.410   1.181 -32.027  1.00  0.00     0.107 A 
HETATM    8  C   UNL     1      -8.766   1.796 -32.374  1.00  0.00     0.067 A 
HETATM    9  C   UNL     1      -9.442   2.611 -31.283  1.00  0.00     0.020 C 
HETATM   10  N   UNL     1     -10.003   3.287 -30.379  1.00  0.00    -0.096 N 
HETATM   11  C   UNL     1      -9.412   1.576 -33.551  1.00  0.00     0.139 A 
HETATM   12  O   UNL     1      -8.870   0.746 -34.550  1.00  0.00    -0.279 OA
ENDROOT
BRANCH   7  13
HETATM   13  C   UNL     1      -6.297   2.220 -31.968  1.00  0.00    -0.010 A 
HETATM   14  C   UNL     1      -5.625   2.480 -30.765  1.00  0.00     0.073 A 
HETATM   15  C   UNL     1      -4.619   3.446 -30.686  1.00  0.00     0.038 A 
HETATM   16  C   UNL     1      -4.269   4.179 -31.819  1.00  0.00     0.022 A 
HETATM   17  C   UNL     1      -4.929   3.944 -33.021  1.00  0.00     0.011 A 
HETATM   18 BR   UNL     1      -4.464   4.941 -34.559  1.00  0.00    -0.051 Br
HETATM   19  C   UNL     1      -5.935   2.980 -33.101  1.00  0.00     0.030 A 
BRANCH  14  20
HETATM   20  O   UNL     1      -5.970   1.771 -29.651  1.00  0.00    -0.360 OA
HETATM   21  H   UNL     1      -5.591   0.877 -29.712  1.00  0.00     0.217 HD
ENDBRANCH  14  20
ENDBRANCH   7  13
BRANCH  11  22
HETATM   22  N   UNL     1     -10.635   2.102 -33.901  1.00  0.00    -0.282 NA
HETATM   23  H   UNL     1     -11.445   1.649 -33.485  1.00  0.00     0.126 HD
HETATM   24  H   UNL     1     -10.655   3.115 -33.816  1.00  0.00     0.126 HD
ENDBRANCH  11  22
BRANCH   1  25
HETATM   25  C   UNL     1      -4.933  -1.148 -32.241  1.00  0.00     0.061 C 
BRANCH  25  26
HETATM   26  C   UNL     1      -3.621  -0.407 -32.494  1.00  0.00     0.002 C 
HETATM   27  C   UNL     1      -2.994   0.071 -31.193  1.00  0.00     0.005 C 
ENDBRANCH  25  26
ENDBRANCH   1  25
TORSDOF 5
ENDMDL
MODEL 4
REMARK VINA RESULT:      -7.0      3.693      5.434
REMARK  5 active torsions:
REMARK  status: ('A' for Active; 'I' for Inactive)
REMARK    1  A    between atoms: C_2  and  C_3 
REMARK    2  A    between atoms: C_3  and  C_4 
REMARK    3  A    between atoms: C_10  and  C_11 
REMARK    4  A    between atoms: C_12  and  O_13 
REMARK    5  A    between atoms: C_22  and  N_23 
ROOT
HETATM    1  C   UNL     1      -6.687  -0.294 -33.807  1.00  0.00     0.066 A 
HETATM    2  N   UNL     1      -7.162  -0.710 -34.993  1.00  0.00    -0.177 NA
HETATM    3  N   UNL     1      -8.062   0.231 -35.343  1.00  0.00    -0.256 N 
HETATM    4  H   UNL     1      -8.573   0.122 -36.211  1.00  0.00     0.191 HD
HETATM    5  C   UNL     1      -8.176   1.215 -34.416  1.00  0.00     0.175 A 
HETATM    6  C   UNL     1      -7.281   0.929 -33.418  1.00  0.00     0.035 A 
HETATM    7  C   UNL     1      -7.180   1.822 -32.228  1.00  0.00     0.107 A 
HETATM    8  C   UNL     1      -8.284   2.878 -32.277  1.00  0.00     0.067 A 
HETATM    9  C   UNL     1      -8.490   3.706 -31.019  1.00  0.00     0.020 C 
HETATM   10  N   UNL     1      -8.660   4.394 -29.976  1.00  0.00    -0.096 N 
HETATM   11  C   UNL     1      -9.122   3.040 -33.337  1.00  0.00     0.139 A 
HETATM   12  O   UNL     1      -9.033   2.227 -34.483  1.00  0.00    -0.279 OA
ENDROOT
BRANCH   7  13
HETATM   13  C   UNL     1      -5.786   2.435 -32.277  1.00  0.00    -0.010 A 
HETATM   14  C   UNL     1      -4.820   2.094 -31.318  1.00  0.00     0.073 A 
HETATM   15  C   UNL     1      -3.545   2.663 -31.332  1.00  0.00     0.038 A 
HETATM   16  C   UNL     1      -3.212   3.597 -32.313  1.00  0.00     0.022 A 
HETATM   17  C   UNL     1      -4.157   3.956 -33.269  1.00  0.00     0.011 A 
HETATM   18 BR   UNL     1      -3.713   5.228 -34.596  1.00  0.00    -0.051 Br
HETATM   19  C   UNL     1      -5.432   3.389 -33.254  1.00  0.00     0.030 A 
BRANCH  14  20
HETATM   20  O   UNL     1      -5.144   1.187 -30.351  1.00  0.00    -0.360 OA
HETATM   21  H   UNL     1      -5.757   1.600 -29.718  1.00  0.00     0.217 HD
ENDBRANCH  14  20
ENDBRANCH   7  13
BRANCH  11  22
HETATM   22  N   UNL     1     -10.133   3.970 -33.420  1.00  0.00    -0.282 NA
HETATM   23  H   UNL     1     -10.639   3.995 -34.302  1.00  0.00     0.126 HD
HETATM   24  H   UNL     1     -10.745   3.944 -32.609  1.00  0.00     0.126 HD
ENDBRANCH  11  22
BRANCH   1  25
HETATM   25  C   UNL     1      -5.684  -1.120 -33.071  1.00  0.00     0.061 C 
BRANCH  25  26
HETATM   26  C   UNL     1      -4.247  -0.807 -33.487  1.00  0.00     0.002 C 
HETATM   27  C   UNL     1      -3.269  -1.085 -32.356  1.00  0.00     0.005 C 
ENDBRANCH  25  26
ENDBRANCH   1  25
TORSDOF 5
ENDMDL
MODEL 5
REMARK VINA RESULT:      -6.8      4.384      6.633
REMARK  5 active torsions:
REMARK  status: ('A' for Active; 'I' for Inactive)
REMARK    1  A    between atoms: C_2  and  C_3 
REMARK    2  A    between atoms: C_3  and  C_4 
REMARK    3  A    between atoms: C_10  and  C_11 
REMARK    4  A    between atoms: C_12  and  O_13 
REMARK    5  A    between atoms: C_22  and  N_23 
ROOT
HETATM    1  C   UNL     1      -5.289  -1.004 -33.308  1.00  0.00     0.066 A 
HETATM    2  N   UNL     1      -4.646  -1.795 -32.432  1.00  0.00    -0.177 NA
HETATM    3  N   UNL     1      -4.043  -0.936 -31.585  1.00  0.00    -0.256 N 
HETATM    4  H   UNL     1      -3.473  -1.307 -30.834  1.00  0.00     0.191 HD
HETATM    5  C   UNL     1      -4.274   0.362 -31.904  1.00  0.00     0.175 A 
HETATM    6  C   UNL     1      -5.102   0.364 -32.997  1.00  0.00     0.035 A 
HETATM    7  C   UNL     1      -5.527   1.655 -33.610  1.00  0.00     0.107 A 
HETATM    8  C   UNL     1      -4.779   2.812 -32.950  1.00  0.00     0.067 A 
HETATM    9  C   UNL     1      -4.896   4.170 -33.623  1.00  0.00     0.020 C 
HETATM   10  N   UNL     1      -4.994   5.296 -34.181  1.00  0.00    -0.096 N 
HETATM   11  C   UNL     1      -3.965   2.663 -31.869  1.00  0.00     0.139 A 
HETATM   12  O   UNL     1      -3.747   1.406 -31.274  1.00  0.00    -0.279 OA
ENDROOT
BRANCH   7  13
HETATM   13  C   UNL     1      -7.034   1.743 -33.404  1.00  0.00    -0.010 A 
HETATM   14  C   UNL     1      -7.919   1.365 -34.426  1.00  0.00     0.073 A 
HETATM   15  C   UNL     1      -9.303   1.461 -34.265  1.00  0.00     0.038 A 
HETATM   16  C   UNL     1      -9.831   1.948 -33.069  1.00  0.00     0.022 A 
HETATM   17  C   UNL     1      -8.972   2.338 -32.047  1.00  0.00     0.011 A 
HETATM   18 BR   UNL     1      -9.683   3.006 -30.427  1.00  0.00    -0.051 Br
HETATM   19  C   UNL     1      -7.589   2.243 -32.207  1.00  0.00     0.030 A 
BRANCH  14  20
HETATM   20  O   UNL     1      -7.406   0.895 -35.601  1.00  0.00    -0.360 OA
HETATM   21  H   UNL     1      -6.476   1.169 -35.675  1.00  0.00     0.217 HD
ENDBRANCH  14  20
ENDBRANCH   7  13
BRANCH  11  22
HETATM   22  N   UNL     1      -3.268   3.674 -31.250  1.00  0.00    -0.282 NA
HETATM   23  H   UNL     1      -2.414   3.394 -30.773  1.00  0.00     0.126 HD
HETATM   24  H   UNL     1      -3.140   4.480 -31.856  1.00  0.00     0.126 HD
ENDBRANCH  11  22
BRANCH   1  25
HETATM   25  C   UNL     1      -6.047  -1.607 -34.444  1.00  0.00     0.061 C 
BRANCH  25  26
HETATM   26  C   UNL     1      -5.534  -2.997 -34.821  1.00  0.00     0.002 C 
HETATM   27  C   UNL     1      -6.671  -4.002 -34.910  1.00  0.00     0.005 C 
ENDBRANCH  25  26
ENDBRANCH   1  25
TORSDOF 5
ENDMDL
MODEL 6
REMARK VINA RESULT:      -6.8      9.510     11.699
REMARK  5 active torsions:
REMARK  status: ('A' for Active; 'I' for Inactive)
REMARK    1  A    between atoms: C_2  and  C_3 
REMARK    2  A    between atoms: C_3  and  C_4 
REMARK    3  A    between atoms: C_10  and  C_11 
REMARK    4  A    between atoms: C_12  and  O_13 
REMARK    5  A    between atoms: C_22  and  N_23 
ROOT
HETATM    1  C   UNL     1      -0.022   5.712 -30.999  1.00  0.00     0.066 A 
HETATM    2  N   UNL     1       0.608   4.579 -30.643  1.00  0.00    -0.177 NA
HETATM    3  N   UNL     1       0.773   4.692 -29.309  1.00  0.00    -0.256 N 
HETATM    4  H   UNL     1       1.250   3.950 -28.810  1.00  0.00     0.191 HD
HETATM    5  C   UNL     1       0.281   5.857 -28.818  1.00  0.00     0.175 A 
HETATM    6  C   UNL     1      -0.270   6.535 -29.874  1.00  0.00     0.035 A 
HETATM    7  C   UNL     1      -0.882   7.878 -29.662  1.00  0.00     0.107 A 
HETATM    8  C   UNL     1      -0.619   8.346 -28.231  1.00  0.00     0.067 A 
HETATM    9  C   UNL     1      -0.946   9.797 -27.919  1.00  0.00     0.020 C 
HETATM   10  N   UNL     1      -1.217  11.001 -27.660  1.00  0.00    -0.096 N 
HETATM   11  C   UNL     1      -0.040   7.565 -27.279  1.00  0.00     0.139 A 
HETATM   12  O   UNL     1       0.371   6.246 -27.551  1.00  0.00    -0.279 OA
ENDROOT
BRANCH   7  13
HETATM   13  C   UNL     1      -2.367   7.717 -29.959  1.00  0.00    -0.010 A 
HETATM   14  C   UNL     1      -2.937   8.305 -31.098  1.00  0.00     0.073 A 
HETATM   15  C   UNL     1      -4.301   8.189 -31.374  1.00  0.00     0.038 A 
HETATM   16  C   UNL     1      -5.129   7.480 -30.503  1.00  0.00     0.022 A 
HETATM   17  C   UNL     1      -4.586   6.896 -29.363  1.00  0.00     0.011 A 
HETATM   18 BR   UNL     1      -5.704   5.940 -28.176  1.00  0.00    -0.051 Br
HETATM   19  C   UNL     1      -3.223   7.013 -29.086  1.00  0.00     0.030 A 
BRANCH  14  20
HETATM   20  O   UNL     1      -2.133   9.008 -31.949  1.00  0.00    -0.360 OA
HETATM   21  H   UNL     1      -2.615   9.788 -32.273  1.00  0.00     0.217 HD
ENDBRANCH  14  20
ENDBRANCH   7  13
BRANCH  11  22
HETATM   22  N   UNL     1       0.222   7.947 -25.983  1.00  0.00    -0.282 NA
HETATM   23  H   UNL     1      -0.396   7.560 -25.274  1.00  0.00     0.126 HD
HETATM   24  H   UNL     1       1.207   7.856 -25.748  1.00  0.00     0.126 HD
ENDBRANCH  11  22
BRANCH   1  25
HETATM   25  C   UNL     1      -0.340   5.973 -32.434  1.00  0.00     0.061 C 
BRANCH  25  26
HETATM   26  C   UNL     1      -1.566   5.198 -32.914  1.00  0.00     0.002 C 
HETATM   27  C   UNL     1      -1.662   5.198 -34.432  1.00  0.00     0.005 C 
ENDBRANCH  25  26
ENDBRANCH   1  25
TORSDOF 5
ENDMDL
MODEL 7
REMARK VINA RESULT:      -6.7      8.692     10.908
REMARK  5 active torsions:
REMARK  status: ('A' for Active; 'I' for Inactive)
REMARK    1  A    between atoms: C_2  and  C_3 
REMARK    2  A    between atoms: C_3  and  C_4 
REMARK    3  A    between atoms: C_10  and  C_11 
REMARK    4  A    between atoms: C_12  and  O_13 
REMARK    5  A    between atoms: C_22  and  N_23 
ROOT
HETATM    1  C   UNL     1      -0.728   7.165 -28.465  1.00  0.00     0.066 A 
HETATM    2  N   UNL     1      -0.630   6.552 -27.273  1.00  0.00    -0.177 NA
HETATM    3  N   UNL     1      -1.902   6.475 -26.830  1.00  0.00    -0.256 N 
HETATM    4  H   UNL     1      -2.080   6.059 -25.923  1.00  0.00     0.191 HD
HETATM    5  C   UNL     1      -2.790   7.027 -27.693  1.00  0.00     0.175 A 
HETATM    6  C   UNL     1      -2.076   7.460 -28.780  1.00  0.00     0.035 A 
HETATM    7  C   UNL     1      -2.772   8.140 -29.909  1.00  0.00     0.107 A 
HETATM    8  C   UNL     1      -4.236   8.383 -29.543  1.00  0.00     0.067 A 
HETATM    9  C   UNL     1      -5.027   9.293 -30.469  1.00  0.00     0.020 C 
HETATM   10  N   UNL     1      -5.683  10.048 -31.237  1.00  0.00    -0.096 N 
HETATM   11  C   UNL     1      -4.817   7.905 -28.409  1.00  0.00     0.139 A 
HETATM   12  O   UNL     1      -4.095   7.141 -27.472  1.00  0.00    -0.279 OA
ENDROOT
BRANCH   7  13
HETATM   13  C   UNL     1      -2.618   7.222 -31.115  1.00  0.00    -0.010 A 
HETATM   14  C   UNL     1      -2.155   7.722 -32.341  1.00  0.00     0.073 A 
HETATM   15  C   UNL     1      -2.030   6.901 -33.464  1.00  0.00     0.038 A 
HETATM   16  C   UNL     1      -2.376   5.552 -33.380  1.00  0.00     0.022 A 
HETATM   17  C   UNL     1      -2.847   5.037 -32.177  1.00  0.00     0.011 A 
HETATM   18 BR   UNL     1      -3.325   3.212 -32.061  1.00  0.00    -0.051 Br
HETATM   19  C   UNL     1      -2.973   5.857 -31.055  1.00  0.00     0.030 A 
BRANCH  14  20
HETATM   20  O   UNL     1      -1.823   9.043 -32.430  1.00  0.00    -0.360 OA
HETATM   21  H   UNL     1      -1.911   9.454 -31.552  1.00  0.00     0.217 HD
ENDBRANCH  14  20
ENDBRANCH   7  13
BRANCH  11  22
HETATM   22  N   UNL     1      -6.126   8.106 -28.037  1.00  0.00    -0.282 NA
HETATM   23  H   UNL     1      -6.277   8.794 -27.304  1.00  0.00     0.126 HD
HETATM   24  H   UNL     1      -6.738   8.237 -28.839  1.00  0.00     0.126 HD
ENDBRANCH  11  22
BRANCH   1  25
HETATM   25  C   UNL     1       0.503   7.473 -29.252  1.00  0.00     0.061 C 
BRANCH  25  26
HETATM   26  C   UNL     1       0.627   6.612 -30.509  1.00  0.00     0.002 C 
HETATM   27  C   UNL     1       0.574   5.130 -30.173  1.00  0.00     0.005 C 
ENDBRANCH  25  26
ENDBRANCH   1  25
TORSDOF 5
ENDMDL
MODEL 8
REMARK VINA RESULT:      -6.6      4.868      6.636
REMARK  5 active torsions:
REMARK  status: ('A' for Active; 'I' for Inactive)
REMARK    1  A    between atoms: C_2  and  C_3 
REMARK    2  A    between atoms: C_3  and  C_4 
REMARK    3  A    between atoms: C_10  and  C_11 
REMARK    4  A    between atoms: C_12  and  O_13 
REMARK    5  A    between atoms: C_22  and  N_23 
ROOT
HETATM    1  C   UNL     1      -5.341  -0.215 -32.326  1.00  0.00     0.066 A 
HETATM    2  N   UNL     1      -4.550  -1.137 -31.751  1.00  0.00    -0.177 NA
HETATM    3  N   UNL     1      -3.542  -0.424 -31.209  1.00  0.00    -0.256 N 
HETATM    4  H   UNL     1      -2.798  -0.915 -30.727  1.00  0.00     0.191 HD
HETATM    5  C   UNL     1      -3.667   0.909 -31.431  1.00  0.00     0.175 A 
HETATM    6  C   UNL     1      -4.834   1.091 -32.126  1.00  0.00     0.035 A 
HETATM    7  C   UNL     1      -5.248   2.460 -32.546  1.00  0.00     0.107 A 
HETATM    8  C   UNL     1      -4.131   3.456 -32.235  1.00  0.00     0.067 A 
HETATM    9  C   UNL     1      -4.275   4.848 -32.828  1.00  0.00     0.020 C 
HETATM   10  N   UNL     1      -4.396   6.003 -33.320  1.00  0.00    -0.096 N 
HETATM   11  C   UNL     1      -3.005   3.131 -31.543  1.00  0.00     0.139 A 
HETATM   12  O   UNL     1      -2.782   1.828 -31.061  1.00  0.00    -0.279 OA
ENDROOT
BRANCH   7  13
HETATM   13  C   UNL     1      -6.530   2.766 -31.783  1.00  0.00    -0.010 A 
HETATM   14  C   UNL     1      -6.504   2.984 -30.397  1.00  0.00     0.073 A 
HETATM   15  C   UNL     1      -7.672   3.242 -29.677  1.00  0.00     0.038 A 
HETATM   16  C   UNL     1      -8.901   3.281 -30.336  1.00  0.00     0.022 A 
HETATM   17  C   UNL     1      -8.952   3.059 -31.708  1.00  0.00     0.011 A 
HETATM   18 BR   UNL     1     -10.615   3.103 -32.606  1.00  0.00    -0.051 Br
HETATM   19  C   UNL     1      -7.785   2.800 -32.429  1.00  0.00     0.030 A 
BRANCH  14  20
HETATM   20  O   UNL     1      -5.305   2.938 -29.747  1.00  0.00    -0.360 OA
HETATM   21  H   UNL     1      -5.435   2.548 -28.865  1.00  0.00     0.217 HD
ENDBRANCH  14  20
ENDBRANCH   7  13
BRANCH  11  22
HETATM   22  N   UNL     1      -1.973   3.992 -31.248  1.00  0.00    -0.282 NA
HETATM   23  H   UNL     1      -1.155   3.570 -30.815  1.00  0.00     0.126 HD
HETATM   24  H   UNL     1      -1.742   4.597 -32.032  1.00  0.00     0.126 HD
ENDBRANCH  11  22
BRANCH   1  25
HETATM   25  C   UNL     1      -6.558  -0.638 -33.081  1.00  0.00     0.061 C 
BRANCH  25  26
HETATM   26  C   UNL     1      -6.338  -0.644 -34.594  1.00  0.00     0.002 C 
HETATM   27  C   UNL     1      -7.165   0.432 -35.278  1.00  0.00     0.005 C 
ENDBRANCH  25  26
ENDBRANCH   1  25
TORSDOF 5
ENDMDL
MODEL 9
REMARK VINA RESULT:      -6.5      3.387      6.285
REMARK  5 active torsions:
REMARK  status: ('A' for Active; 'I' for Inactive)
REMARK    1  A    between atoms: C_2  and  C_3 
REMARK    2  A    between atoms: C_3  and  C_4 
REMARK    3  A    between atoms: C_10  and  C_11 
REMARK    4  A    between atoms: C_12  and  O_13 
REMARK    5  A    between atoms: C_22  and  N_23 
ROOT
HETATM    1  C   UNL     1      -5.759   4.566 -33.175  1.00  0.00     0.066 A 
HETATM    2  N   UNL     1      -5.409   5.492 -32.265  1.00  0.00    -0.177 NA
HETATM    3  N   UNL     1      -6.240   5.272 -31.226  1.00  0.00    -0.256 N 
HETATM    4  H   UNL     1      -6.175   5.871 -30.411  1.00  0.00     0.191 HD
HETATM    5  C   UNL     1      -7.104   4.251 -31.454  1.00  0.00     0.175 A 
HETATM    6  C   UNL     1      -6.807   3.746 -32.694  1.00  0.00     0.035 A 
HETATM    7  C   UNL     1      -7.604   2.615 -33.250  1.00  0.00     0.107 A 
HETATM    8  C   UNL     1      -8.788   2.315 -32.330  1.00  0.00     0.067 A 
HETATM    9  C   UNL     1      -9.847   1.368 -32.871  1.00  0.00     0.020 C 
HETATM   10  N   UNL     1     -10.725   0.583 -33.320  1.00  0.00    -0.096 N 
HETATM   11  C   UNL     1      -8.970   2.910 -31.120  1.00  0.00     0.139 A 
HETATM   12  O   UNL     1      -8.067   3.869 -30.623  1.00  0.00    -0.279 OA
ENDROOT
BRANCH   7  13
HETATM   13  C   UNL     1      -6.644   1.438 -33.366  1.00  0.00    -0.010 A 
HETATM   14  C   UNL     1      -6.762   0.520 -34.419  1.00  0.00     0.073 A 
HETATM   15  C   UNL     1      -5.906  -0.578 -34.529  1.00  0.00     0.038 A 
HETATM   16  C   UNL     1      -4.910  -0.782 -33.574  1.00  0.00     0.022 A 
HETATM   17  C   UNL     1      -4.781   0.111 -32.515  1.00  0.00     0.011 A 
HETATM   18 BR   UNL     1      -3.438  -0.164 -31.213  1.00  0.00    -0.051 Br
HETATM   19  C   UNL     1      -5.637   1.208 -32.404  1.00  0.00     0.030 A 
BRANCH  14  20
HETATM   20  O   UNL     1      -7.740   0.710 -35.353  1.00  0.00    -0.360 OA
HETATM   21  H   UNL     1      -7.685   1.620 -35.691  1.00  0.00     0.217 HD
ENDBRANCH  14  20
ENDBRANCH   7  13
BRANCH  11  22
HETATM   22  N   UNL     1     -10.022   2.676 -30.265  1.00  0.00    -0.282 NA
HETATM   23  H   UNL     1     -10.762   2.080 -30.628  1.00  0.00     0.126 HD
HETATM   24  H   UNL     1      -9.709   2.405 -29.337  1.00  0.00     0.126 HD
ENDBRANCH  11  22
BRANCH   1  25
HETATM   25  C   UNL     1      -5.078   4.526 -34.503  1.00  0.00     0.061 C 
BRANCH  25  26
HETATM   26  C   UNL     1      -3.780   5.333 -34.522  1.00  0.00     0.002 C 
HETATM   27  C   UNL     1      -2.630   4.548 -33.910  1.00  0.00     0.005 C 
ENDBRANCH  25  26
ENDBRANCH   1  25
TORSDOF 5
ENDMDL
MODEL 10
REMARK VINA RESULT:      -6.5      5.135      7.083
REMARK  5 active torsions:
REMARK  status: ('A' for Active; 'I' for Inactive)
REMARK    1  A    between atoms: C_2  and  C_3 
REMARK    2  A    between atoms: C_3  and  C_4 
REMARK    3  A    between atoms: C_10  and  C_11 
REMARK    4  A    between atoms: C_12  and  O_13 
REMARK    5  A    between atoms: C_22  and  N_23 
ROOT
HETATM    1  C   UNL     1      -5.631   1.750 -33.060  1.00  0.00     0.066 A 
HETATM    2  N   UNL     1      -5.268   0.547 -32.582  1.00  0.00    -0.177 NA
HETATM    3  N   UNL     1      -4.170   0.798 -31.841  1.00  0.00    -0.256 N 
HETATM    4  H   UNL     1      -3.699   0.025 -31.386  1.00  0.00     0.191 HD
HETATM    5  C   UNL     1      -3.824   2.110 -31.846  1.00  0.00     0.175 A 
HETATM    6  C   UNL     1      -4.762   2.767 -32.600  1.00  0.00     0.035 A 
HETATM    7  C   UNL     1      -4.648   4.238 -32.817  1.00  0.00     0.107 A 
HETATM    8  C   UNL     1      -3.324   4.744 -32.246  1.00  0.00     0.067 A 
HETATM    9  C   UNL     1      -2.926   6.166 -32.607  1.00  0.00     0.020 C 
HETATM   10  N   UNL     1      -2.597   7.346 -32.906  1.00  0.00    -0.096 N 
HETATM   11  C   UNL     1      -2.471   3.968 -31.524  1.00  0.00     0.139 A 
HETATM   12  O   UNL     1      -2.750   2.616 -31.251  1.00  0.00    -0.279 OA
ENDROOT
BRANCH   7  13
HETATM   13  C   UNL     1      -5.855   4.861 -32.129  1.00  0.00    -0.010 A 
HETATM   14  C   UNL     1      -6.902   5.414 -32.882  1.00  0.00     0.073 A 
HETATM   15  C   UNL     1      -8.006   6.011 -32.269  1.00  0.00     0.038 A 
HETATM   16  C   UNL     1      -8.079   6.072 -30.878  1.00  0.00     0.022 A 
HETATM   17  C   UNL     1      -7.048   5.539 -30.111  1.00  0.00     0.011 A 
HETATM   18 BR   UNL     1      -7.139   5.625 -28.225  1.00  0.00    -0.051 Br
HETATM   19  C   UNL     1      -5.944   4.943 -30.723  1.00  0.00     0.030 A 
BRANCH  14  20
HETATM   20  O   UNL     1      -6.831   5.364 -34.245  1.00  0.00    -0.360 OA
HETATM   21  H   UNL     1      -7.718   5.194 -34.605  1.00  0.00     0.217 HD
ENDBRANCH  14  20
ENDBRANCH   7  13
BRANCH  11  22
HETATM   22  N   UNL     1      -1.267   4.380 -30.999  1.00  0.00    -0.282 NA
HETATM   23  H   UNL     1      -0.534   4.577 -31.676  1.00  0.00     0.126 HD
HETATM   24  H   UNL     1      -1.382   5.117 -30.308  1.00  0.00     0.126 HD
ENDBRANCH  11  22
BRANCH   1  25
HETATM   25  C   UNL     1      -6.802   1.869 -33.979  1.00  0.00     0.061 C 
BRANCH  25  26
HETATM   26  C   UNL     1      -7.669   0.610 -33.990  1.00  0.00     0.002 C 
HETATM   27  C   UNL     1      -7.620  -0.085 -35.342  1.00  0.00     0.005 C 
ENDBRANCH  25  26
ENDBRANCH   1  25
TORSDOF 5
ENDMDL
