MODEL 1
REMARK VINA RESULT:      -8.7      0.000      0.000
REMARK  6 active torsions:
REMARK  status: ('A' for Active; 'I' for Inactive)
REMARK    1  A    between atoms: C_3  and  N_4 
REMARK    2  A    between atoms: N_4  and  C_5 
REMARK    3  A    between atoms: C_5  and  C_6 
REMARK    4  A    between atoms: N_8  and  C_10 
REMARK    5  A    between atoms: C_10  and  C_11 
REMARK    6  A    between atoms: C_12  and  C_13 
ROOT
HETATM    1  C   UNL     1      -3.805   4.412 -32.765  1.00  0.00     0.031 C 
HETATM    2  C   UNL     1      -4.373   2.995 -32.693  1.00  0.00     0.241 C 
HETATM    3  N   UNL     1      -5.654   3.048 -33.502  1.00  0.00    -0.067 N 
HETATM    4  H   UNL     1      -5.596   2.329 -34.237  1.00  0.00     0.280 HD
HETATM    5  C   UNL     1      -5.717   4.394 -34.186  1.00  0.00     0.235 C 
HETATM    6  C   UNL     1      -4.285   4.895 -34.132  1.00  0.00     0.035 C 
ENDROOT
BRANCH   3   7
HETATM    7  C   UNL     1      -6.920   2.717 -32.741  1.00  0.00     0.277 C 
BRANCH   7   8
HETATM    8  C   UNL     1      -6.709   1.902 -31.518  1.00  0.00     0.016 A 
HETATM    9  C   UNL     1      -6.389   0.503 -31.473  1.00  0.00     0.102 A 
HETATM   10  N   UNL     1      -6.294   0.086 -30.206  1.00  0.00    -0.174 NA
HETATM   11  N   UNL     1      -6.470   1.172 -29.454  1.00  0.00    -0.288 N 
HETATM   12  H   UNL     1      -6.391   1.072 -28.444  1.00  0.00     0.188 HD
HETATM   13  C   UNL     1      -6.739   2.291 -30.189  1.00  0.00     0.120 A 
BRANCH   9  14
HETATM   14  C   UNL     1      -6.148  -0.425 -32.572  1.00  0.00     0.072 A 
HETATM   15  C   UNL     1      -4.856  -0.879 -32.857  1.00  0.00     0.132 A 
HETATM   16  F   UNL     1      -3.807  -0.403 -32.169  1.00  0.00    -0.205 F 
HETATM   17  C   UNL     1      -4.616  -1.809 -33.869  1.00  0.00     0.043 A 
HETATM   18  C   UNL     1      -5.680  -2.303 -34.621  1.00  0.00     0.006 A 
HETATM   19  C   UNL     1      -6.973  -1.850 -34.365  1.00  0.00     0.043 A 
HETATM   20  C   UNL     1      -7.199  -0.919 -33.349  1.00  0.00     0.132 A 
HETATM   21  F   UNL     1      -8.451  -0.471 -33.171  1.00  0.00    -0.205 F 
ENDBRANCH   9  14
ENDBRANCH   7   8
ENDBRANCH   3   7
BRANCH   1  22
HETATM   22  C   UNL     1      -2.279   4.445 -32.596  1.00  0.00     0.127 C 
BRANCH  22  23
HETATM   23  N   UNL     1      -1.927   4.442 -31.170  1.00  0.00    -0.376 N 
HETATM   24  H   UNL     1      -1.762   3.509 -30.801  1.00  0.00     0.161 HD
BRANCH  23  25
HETATM   25  C   UNL     1      -1.096   5.435 -30.665  1.00  0.00     0.100 A 
HETATM   26  C   UNL     1      -0.025   6.004 -31.370  1.00  0.00     0.048 A 
HETATM   27  C   UNL     1       0.739   7.020 -30.795  1.00  0.00     0.005 A 
HETATM   28  C   UNL     1       0.427   7.478 -29.523  1.00  0.00     0.017 A 
HETATM   29  C   UNL     1      -0.652   6.915 -28.864  1.00  0.00     0.089 A 
HETATM   30  N   UNL     1      -1.367   5.941 -29.447  1.00  0.00    -0.353 N 
HETATM   31  H   UNL     1      -2.166   5.572 -28.940  1.00  0.00     0.166 HD
ENDBRANCH  23  25
ENDBRANCH  22  23
ENDBRANCH   1  22
TORSDOF 6
ENDMDL
MODEL 2
REMARK VINA RESULT:      -8.7      1.672      2.412
REMARK  6 active torsions:
REMARK  status: ('A' for Active; 'I' for Inactive)
REMARK    1  A    between atoms: C_3  and  N_4 
REMARK    2  A    between atoms: N_4  and  C_5 
REMARK    3  A    between atoms: C_5  and  C_6 
REMARK    4  A    between atoms: N_8  and  C_10 
REMARK    5  A    between atoms: C_10  and  C_11 
REMARK    6  A    between atoms: C_12  and  C_13 
ROOT
HETATM    1  C   UNL     1      -1.379   5.371 -31.982  1.00  0.00     0.031 C 
HETATM    2  C   UNL     1      -2.202   4.099 -31.784  1.00  0.00     0.241 C 
HETATM    3  N   UNL     1      -3.069   3.999 -33.023  1.00  0.00    -0.067 N 
HETATM    4  H   UNL     1      -2.893   3.084 -33.462  1.00  0.00     0.280 HD
HETATM    5  C   UNL     1      -2.616   5.064 -33.995  1.00  0.00     0.235 C 
HETATM    6  C   UNL     1      -1.230   5.440 -33.500  1.00  0.00     0.035 C 
ENDROOT
BRANCH   3   7
HETATM    7  C   UNL     1      -4.562   4.026 -32.777  1.00  0.00     0.277 C 
BRANCH   7   8
HETATM    8  C   UNL     1      -4.984   3.442 -31.478  1.00  0.00     0.016 A 
HETATM    9  C   UNL     1      -5.100   2.044 -31.171  1.00  0.00     0.102 A 
HETATM   10  N   UNL     1      -5.530   1.876 -29.917  1.00  0.00    -0.174 NA
HETATM   11  N   UNL     1      -5.621   3.100 -29.398  1.00  0.00    -0.288 N 
HETATM   12  H   UNL     1      -5.894   3.187 -28.421  1.00  0.00     0.188 HD
HETATM   13  C   UNL     1      -5.320   4.083 -30.298  1.00  0.00     0.120 A 
BRANCH   9  14
HETATM   14  C   UNL     1      -4.797   0.887 -32.007  1.00  0.00     0.072 A 
HETATM   15  C   UNL     1      -3.637   0.136 -31.795  1.00  0.00     0.132 A 
HETATM   16  F   UNL     1      -2.744   0.518 -30.869  1.00  0.00    -0.205 F 
HETATM   17  C   UNL     1      -3.359  -1.005 -32.548  1.00  0.00     0.043 A 
HETATM   18  C   UNL     1      -4.251  -1.415 -33.538  1.00  0.00     0.006 A 
HETATM   19  C   UNL     1      -5.405  -0.670 -33.776  1.00  0.00     0.043 A 
HETATM   20  C   UNL     1      -5.670   0.470 -33.015  1.00  0.00     0.132 A 
HETATM   21  F   UNL     1      -6.764   1.188 -33.312  1.00  0.00    -0.205 F 
ENDBRANCH   9  14
ENDBRANCH   7   8
ENDBRANCH   3   7
BRANCH   1  22
HETATM   22  C   UNL     1      -0.041   5.332 -31.230  1.00  0.00     0.127 C 
BRANCH  22  23
HETATM   23  N   UNL     1      -0.270   5.081 -29.801  1.00  0.00    -0.376 N 
HETATM   24  H   UNL     1      -0.101   4.114 -29.532  1.00  0.00     0.161 HD
BRANCH  23  25
HETATM   25  C   UNL     1       0.116   6.033 -28.864  1.00  0.00     0.100 A 
HETATM   26  C   UNL     1       0.709   7.262 -29.186  1.00  0.00     0.048 A 
HETATM   27  C   UNL     1       1.037   8.172 -28.181  1.00  0.00     0.005 A 
HETATM   28  C   UNL     1       0.762   7.863 -26.857  1.00  0.00     0.017 A 
HETATM   29  C   UNL     1       0.152   6.653 -26.574  1.00  0.00     0.089 A 
HETATM   30  N   UNL     1      -0.152   5.801 -27.565  1.00  0.00    -0.353 N 
HETATM   31  H   UNL     1      -0.621   4.935 -27.318  1.00  0.00     0.166 HD
ENDBRANCH  23  25
ENDBRANCH  22  23
ENDBRANCH   1  22
TORSDOF 6
ENDMDL
MODEL 3
REMARK VINA RESULT:      -8.6      0.169      1.599
REMARK  6 active torsions:
REMARK  status: ('A' for Active; 'I' for Inactive)
REMARK    1  A    between atoms: C_3  and  N_4 
REMARK    2  A    between atoms: N_4  and  C_5 
REMARK    3  A    between atoms: C_5  and  C_6 
REMARK    4  A    between atoms: N_8  and  C_10 
REMARK    5  A    between atoms: C_10  and  C_11 
REMARK    6  A    between atoms: C_12  and  C_13 
ROOT
HETATM    1  C   UNL     1      -3.982   4.431 -32.840  1.00  0.00     0.031 C 
HETATM    2  C   UNL     1      -4.509   3.000 -32.740  1.00  0.00     0.241 C 
HETATM    3  N   UNL     1      -5.817   3.013 -33.506  1.00  0.00    -0.067 N 
HETATM    4  H   UNL     1      -5.764   2.292 -34.239  1.00  0.00     0.280 HD
HETATM    5  C   UNL     1      -5.940   4.352 -34.195  1.00  0.00     0.235 C 
HETATM    6  C   UNL     1      -4.520   4.893 -34.192  1.00  0.00     0.035 C 
ENDROOT
BRANCH   3   7
HETATM    7  C   UNL     1      -7.047   2.653 -32.701  1.00  0.00     0.277 C 
BRANCH   7   8
HETATM    8  C   UNL     1      -6.770   1.875 -31.466  1.00  0.00     0.016 A 
HETATM    9  C   UNL     1      -6.401   0.489 -31.399  1.00  0.00     0.102 A 
HETATM   10  N   UNL     1      -6.253   0.106 -30.127  1.00  0.00    -0.174 NA
HETATM   11  N   UNL     1      -6.442   1.203 -29.395  1.00  0.00    -0.288 N 
HETATM   12  H   UNL     1      -6.328   1.131 -28.386  1.00  0.00     0.188 HD
HETATM   13  C   UNL     1      -6.772   2.295 -30.147  1.00  0.00     0.120 A 
BRANCH   9  14
HETATM   14  C   UNL     1      -6.163  -0.457 -32.485  1.00  0.00     0.072 A 
HETATM   15  C   UNL     1      -7.216  -0.908 -33.285  1.00  0.00     0.132 A 
HETATM   16  F   UNL     1      -8.477  -0.538 -33.014  1.00  0.00    -0.205 F 
HETATM   17  C   UNL     1      -6.998  -1.769 -34.361  1.00  0.00     0.043 A 
HETATM   18  C   UNL     1      -5.704  -2.196 -34.654  1.00  0.00     0.006 A 
HETATM   19  C   UNL     1      -4.642  -1.771 -33.857  1.00  0.00     0.043 A 
HETATM   20  C   UNL     1      -4.875  -0.910 -32.783  1.00  0.00     0.132 A 
HETATM   21  F   UNL     1      -3.833  -0.567 -32.011  1.00  0.00    -0.205 F 
ENDBRANCH   9  14
ENDBRANCH   7   8
ENDBRANCH   3   7
BRANCH   1  22
HETATM   22  C   UNL     1      -2.453   4.507 -32.722  1.00  0.00     0.127 C 
BRANCH  22  23
HETATM   23  N   UNL     1      -2.047   4.400 -31.315  1.00  0.00    -0.376 N 
HETATM   24  H   UNL     1      -1.856   3.444 -31.025  1.00  0.00     0.161 HD
BRANCH  23  25
HETATM   25  C   UNL     1      -1.209   5.365 -30.766  1.00  0.00     0.100 A 
HETATM   26  C   UNL     1      -0.012   5.799 -31.353  1.00  0.00     0.048 A 
HETATM   27  C   UNL     1       0.752   6.796 -30.746  1.00  0.00     0.005 A 
HETATM   28  C   UNL     1       0.316   7.370 -29.561  1.00  0.00     0.017 A 
HETATM   29  C   UNL     1      -0.883   6.939 -29.020  1.00  0.00     0.089 A 
HETATM   30  N   UNL     1      -1.595   5.979 -29.631  1.00  0.00    -0.353 N 
HETATM   31  H   UNL     1      -2.481   5.710 -29.215  1.00  0.00     0.166 HD
ENDBRANCH  23  25
ENDBRANCH  22  23
ENDBRANCH   1  22
TORSDOF 6
ENDMDL
MODEL 4
REMARK VINA RESULT:      -8.4      5.898      8.805
REMARK  6 active torsions:
REMARK  status: ('A' for Active; 'I' for Inactive)
REMARK    1  A    between atoms: C_3  and  N_4 
REMARK    2  A    between atoms: N_4  and  C_5 
REMARK    3  A    between atoms: C_5  and  C_6 
REMARK    4  A    between atoms: N_8  and  C_10 
REMARK    5  A    between atoms: C_10  and  C_11 
REMARK    6  A    between atoms: C_12  and  C_13 
ROOT
HETATM    1  C   UNL     1      -7.761   0.518 -33.245  1.00  0.00     0.031 C 
HETATM    2  C   UNL     1      -8.105   1.386 -32.036  1.00  0.00     0.241 C 
HETATM    3  N   UNL     1      -9.621   1.418 -31.997  1.00  0.00    -0.067 N 
HETATM    4  H   UNL     1      -9.922   1.081 -31.072  1.00  0.00     0.280 HD
HETATM    5  C   UNL     1     -10.132   0.436 -33.026  1.00  0.00     0.235 C 
HETATM    6  C   UNL     1      -8.935  -0.457 -33.302  1.00  0.00     0.035 C 
ENDROOT
BRANCH   3   7
HETATM    7  C   UNL     1     -10.247   2.788 -32.131  1.00  0.00     0.277 C 
BRANCH   7   8
HETATM    8  C   UNL     1     -10.589   3.176 -33.524  1.00  0.00     0.016 A 
HETATM    9  C   UNL     1     -11.897   3.157 -34.115  1.00  0.00     0.102 A 
HETATM   10  N   UNL     1     -11.838   3.544 -35.393  1.00  0.00    -0.174 NA
HETATM   11  N   UNL     1     -10.565   3.874 -35.612  1.00  0.00    -0.288 N 
HETATM   12  H   UNL     1     -10.316   4.241 -36.529  1.00  0.00     0.188 HD
HETATM   13  C   UNL     1      -9.765   3.657 -34.527  1.00  0.00     0.120 A 
BRANCH   9  14
HETATM   14  C   UNL     1     -13.180   2.815 -33.510  1.00  0.00     0.072 A 
HETATM   15  C   UNL     1     -13.816   1.608 -33.813  1.00  0.00     0.132 A 
HETATM   16  F   UNL     1     -13.293   0.780 -34.730  1.00  0.00    -0.205 F 
HETATM   17  C   UNL     1     -15.015   1.241 -33.200  1.00  0.00     0.043 A 
HETATM   18  C   UNL     1     -15.602   2.091 -32.264  1.00  0.00     0.006 A 
HETATM   19  C   UNL     1     -14.991   3.307 -31.960  1.00  0.00     0.043 A 
HETATM   20  C   UNL     1     -13.792   3.661 -32.581  1.00  0.00     0.132 A 
HETATM   21  F   UNL     1     -13.267   4.863 -32.299  1.00  0.00    -0.205 F 
ENDBRANCH   9  14
ENDBRANCH   7   8
ENDBRANCH   3   7
BRANCH   1  22
HETATM   22  C   UNL     1      -6.393  -0.166 -33.111  1.00  0.00     0.127 C 
BRANCH  22  23
HETATM   23  N   UNL     1      -6.022  -0.808 -34.379  1.00  0.00    -0.376 N 
HETATM   24  H   UNL     1      -5.393  -0.243 -34.945  1.00  0.00     0.161 HD
BRANCH  23  25
HETATM   25  C   UNL     1      -5.780  -2.177 -34.412  1.00  0.00     0.100 A 
HETATM   26  C   UNL     1      -6.733  -3.139 -34.778  1.00  0.00     0.048 A 
HETATM   27  C   UNL     1      -6.394  -4.491 -34.813  1.00  0.00     0.005 A 
HETATM   28  C   UNL     1      -5.102  -4.884 -34.496  1.00  0.00     0.017 A 
HETATM   29  C   UNL     1      -4.177  -3.909 -34.164  1.00  0.00     0.089 A 
HETATM   30  N   UNL     1      -4.536  -2.616 -34.143  1.00  0.00    -0.353 N 
HETATM   31  H   UNL     1      -3.822  -1.930 -33.919  1.00  0.00     0.166 HD
ENDBRANCH  23  25
ENDBRANCH  22  23
ENDBRANCH   1  22
TORSDOF 6
ENDMDL
MODEL 5
REMARK VINA RESULT:      -8.4      1.607      2.326
REMARK  6 active torsions:
REMARK  status: ('A' for Active; 'I' for Inactive)
REMARK    1  A    between atoms: C_3  and  N_4 
REMARK    2  A    between atoms: N_4  and  C_5 
REMARK    3  A    between atoms: C_5  and  C_6 
REMARK    4  A    between atoms: N_8  and  C_10 
REMARK    5  A    between atoms: C_10  and  C_11 
REMARK    6  A    between atoms: C_12  and  C_13 
ROOT
HETATM    1  C   UNL     1      -3.217   4.272 -32.310  1.00  0.00     0.031 C 
HETATM    2  C   UNL     1      -4.642   4.674 -31.934  1.00  0.00     0.241 C 
HETATM    3  N   UNL     1      -5.377   3.363 -31.734  1.00  0.00    -0.067 N 
HETATM    4  H   UNL     1      -5.779   3.365 -30.786  1.00  0.00     0.280 HD
HETATM    5  C   UNL     1      -4.360   2.247 -31.793  1.00  0.00     0.235 C 
HETATM    6  C   UNL     1      -3.034   2.951 -31.566  1.00  0.00     0.035 C 
ENDROOT
BRANCH   3   7
HETATM    7  C   UNL     1      -6.557   3.131 -32.652  1.00  0.00     0.277 C 
BRANCH   7   8
HETATM    8  C   UNL     1      -7.683   2.387 -32.032  1.00  0.00     0.016 A 
HETATM    9  C   UNL     1      -7.999   1.001 -32.231  1.00  0.00     0.102 A 
HETATM   10  N   UNL     1      -9.093   0.666 -31.540  1.00  0.00    -0.174 NA
HETATM   11  N   UNL     1      -9.439   1.759 -30.860  1.00  0.00    -0.288 N 
HETATM   12  H   UNL     1     -10.236   1.698 -30.229  1.00  0.00     0.188 HD
HETATM   13  C   UNL     1      -8.635   2.830 -31.129  1.00  0.00     0.120 A 
BRANCH   9  14
HETATM   14  C   UNL     1      -7.293  -0.003 -33.020  1.00  0.00     0.072 A 
HETATM   15  C   UNL     1      -7.634  -0.235 -34.356  1.00  0.00     0.132 A 
HETATM   16  F   UNL     1      -8.674   0.409 -34.908  1.00  0.00    -0.205 F 
HETATM   17  C   UNL     1      -6.933  -1.151 -35.140  1.00  0.00     0.043 A 
HETATM   18  C   UNL     1      -5.866  -1.858 -34.590  1.00  0.00     0.006 A 
HETATM   19  C   UNL     1      -5.519  -1.654 -33.255  1.00  0.00     0.043 A 
HETATM   20  C   UNL     1      -6.230  -0.734 -32.482  1.00  0.00     0.132 A 
HETATM   21  F   UNL     1      -5.899  -0.607 -31.188  1.00  0.00    -0.205 F 
ENDBRANCH   9  14
ENDBRANCH   7   8
ENDBRANCH   3   7
BRANCH   1  22
HETATM   22  C   UNL     1      -2.182   5.342 -31.936  1.00  0.00     0.127 C 
BRANCH  22  23
HETATM   23  N   UNL     1      -1.247   4.815 -30.933  1.00  0.00    -0.376 N 
HETATM   24  H   UNL     1      -0.695   4.032 -31.274  1.00  0.00     0.161 HD
BRANCH  23  25
HETATM   25  C   UNL     1      -0.575   5.694 -30.091  1.00  0.00     0.100 A 
HETATM   26  C   UNL     1      -0.564   7.088 -30.249  1.00  0.00     0.048 A 
HETATM   27  C   UNL     1       0.114   7.896 -29.337  1.00  0.00     0.005 A 
HETATM   28  C   UNL     1       0.769   7.317 -28.260  1.00  0.00     0.017 A 
HETATM   29  C   UNL     1       0.718   5.942 -28.116  1.00  0.00     0.089 A 
HETATM   30  N   UNL     1       0.054   5.193 -29.011  1.00  0.00    -0.353 N 
HETATM   31  H   UNL     1       0.019   4.190 -28.856  1.00  0.00     0.166 HD
ENDBRANCH  23  25
ENDBRANCH  22  23
ENDBRANCH   1  22
TORSDOF 6
ENDMDL
MODEL 6
REMARK VINA RESULT:      -8.4      3.998      7.615
REMARK  6 active torsions:
REMARK  status: ('A' for Active; 'I' for Inactive)
REMARK    1  A    between atoms: C_3  and  N_4 
REMARK    2  A    between atoms: N_4  and  C_5 
REMARK    3  A    between atoms: C_5  and  C_6 
REMARK    4  A    between atoms: N_8  and  C_10 
REMARK    5  A    between atoms: C_10  and  C_11 
REMARK    6  A    between atoms: C_12  and  C_13 
ROOT
HETATM    1  C   UNL     1      -9.402   3.843 -34.155  1.00  0.00     0.031 C 
HETATM    2  C   UNL     1      -8.905   3.179 -32.871  1.00  0.00     0.241 C 
HETATM    3  N   UNL     1      -7.514   3.742 -32.655  1.00  0.00    -0.067 N 
HETATM    4  H   UNL     1      -7.486   4.170 -31.718  1.00  0.00     0.280 HD
HETATM    5  C   UNL     1      -7.297   4.845 -33.665  1.00  0.00     0.235 C 
HETATM    6  C   UNL     1      -8.701   5.199 -34.123  1.00  0.00     0.035 C 
ENDROOT
BRANCH   3   7
HETATM    7  C   UNL     1      -6.393   2.726 -32.646  1.00  0.00     0.277 C 
BRANCH   7   8
HETATM    8  C   UNL     1      -6.368   1.846 -31.450  1.00  0.00     0.016 A 
HETATM    9  C   UNL     1      -6.249   0.415 -31.449  1.00  0.00     0.102 A 
HETATM   10  N   UNL     1      -6.286  -0.056 -30.199  1.00  0.00    -0.174 NA
HETATM   11  N   UNL     1      -6.352   1.016 -29.410  1.00  0.00    -0.288 N 
HETATM   12  H   UNL     1      -6.345   0.871 -28.403  1.00  0.00     0.188 HD
HETATM   13  C   UNL     1      -6.420   2.188 -30.109  1.00  0.00     0.120 A 
BRANCH   9  14
HETATM   14  C   UNL     1      -6.077  -0.498 -32.574  1.00  0.00     0.072 A 
HETATM   15  C   UNL     1      -4.837  -1.088 -32.835  1.00  0.00     0.132 A 
HETATM   16  F   UNL     1      -3.764  -0.758 -32.099  1.00  0.00    -0.205 F 
HETATM   17  C   UNL     1      -4.668  -2.005 -33.873  1.00  0.00     0.043 A 
HETATM   18  C   UNL     1      -5.755  -2.348 -34.675  1.00  0.00     0.006 A 
HETATM   19  C   UNL     1      -6.997  -1.759 -34.442  1.00  0.00     0.043 A 
HETATM   20  C   UNL     1      -7.150  -0.842 -33.400  1.00  0.00     0.132 A 
HETATM   21  F   UNL     1      -8.348  -0.259 -33.244  1.00  0.00    -0.205 F 
ENDBRANCH   9  14
ENDBRANCH   7   8
ENDBRANCH   3   7
BRANCH   1  22
HETATM   22  C   UNL     1     -10.933   3.937 -34.216  1.00  0.00     0.127 C 
BRANCH  22  23
HETATM   23  N   UNL     1     -11.467   2.926 -35.138  1.00  0.00    -0.376 N 
HETATM   24  H   UNL     1     -10.800   2.644 -35.852  1.00  0.00     0.161 HD
BRANCH  23  25
HETATM   25  C   UNL     1     -12.277   1.907 -34.648  1.00  0.00     0.100 A 
HETATM   26  C   UNL     1     -11.800   0.777 -33.967  1.00  0.00     0.048 A 
HETATM   27  C   UNL     1     -12.689  -0.182 -33.482  1.00  0.00     0.005 A 
HETATM   28  C   UNL     1     -14.053  -0.008 -33.664  1.00  0.00     0.017 A 
HETATM   29  C   UNL     1     -14.494   1.130 -34.316  1.00  0.00     0.089 A 
HETATM   30  N   UNL     1     -13.612   2.034 -34.768  1.00  0.00    -0.353 N 
HETATM   31  H   UNL     1     -13.977   2.868 -35.219  1.00  0.00     0.166 HD
ENDBRANCH  23  25
ENDBRANCH  22  23
ENDBRANCH   1  22
TORSDOF 6
ENDMDL
MODEL 7
REMARK VINA RESULT:      -8.3      1.911      2.698
REMARK  6 active torsions:
REMARK  status: ('A' for Active; 'I' for Inactive)
REMARK    1  A    between atoms: C_3  and  N_4 
REMARK    2  A    between atoms: N_4  and  C_5 
REMARK    3  A    between atoms: C_5  and  C_6 
REMARK    4  A    between atoms: N_8  and  C_10 
REMARK    5  A    between atoms: C_10  and  C_11 
REMARK    6  A    between atoms: C_12  and  C_13 
ROOT
HETATM    1  C   UNL     1      -4.737   2.643 -31.858  1.00  0.00     0.031 C 
HETATM    2  C   UNL     1      -5.222   3.426 -33.078  1.00  0.00     0.241 C 
HETATM    3  N   UNL     1      -6.696   3.672 -32.821  1.00  0.00    -0.067 N 
HETATM    4  H   UNL     1      -6.862   4.687 -32.868  1.00  0.00     0.280 HD
HETATM    5  C   UNL     1      -7.003   3.225 -31.411  1.00  0.00     0.235 C 
HETATM    6  C   UNL     1      -5.640   3.166 -30.744  1.00  0.00     0.035 C 
ENDROOT
BRANCH   3   7
HETATM    7  C   UNL     1      -7.642   3.081 -33.843  1.00  0.00     0.277 C 
BRANCH   7   8
HETATM    8  C   UNL     1      -8.676   2.178 -33.277  1.00  0.00     0.016 A 
HETATM    9  C   UNL     1      -8.553   0.760 -33.083  1.00  0.00     0.102 A 
HETATM   10  N   UNL     1      -9.684   0.259 -32.575  1.00  0.00    -0.174 NA
HETATM   11  N   UNL     1     -10.485   1.305 -32.374  1.00  0.00    -0.288 N 
HETATM   12  H   UNL     1     -11.393   1.137 -31.945  1.00  0.00     0.188 HD
HETATM   13  C   UNL     1      -9.937   2.484 -32.793  1.00  0.00     0.120 A 
BRANCH   9  14
HETATM   14  C   UNL     1      -7.410  -0.110 -33.334  1.00  0.00     0.072 A 
HETATM   15  C   UNL     1      -7.160  -0.613 -34.614  1.00  0.00     0.132 A 
HETATM   16  F   UNL     1      -8.017  -0.364 -35.617  1.00  0.00    -0.205 F 
HETATM   17  C   UNL     1      -6.041  -1.401 -34.884  1.00  0.00     0.043 A 
HETATM   18  C   UNL     1      -5.145  -1.703 -33.859  1.00  0.00     0.006 A 
HETATM   19  C   UNL     1      -5.386  -1.225 -32.571  1.00  0.00     0.043 A 
HETATM   20  C   UNL     1      -6.510  -0.438 -32.317  1.00  0.00     0.132 A 
HETATM   21  F   UNL     1      -6.731  -0.044 -31.054  1.00  0.00    -0.205 F 
ENDBRANCH   9  14
ENDBRANCH   7   8
ENDBRANCH   3   7
BRANCH   1  22
HETATM   22  C   UNL     1      -3.239   2.842 -31.587  1.00  0.00     0.127 C 
BRANCH  22  23
HETATM   23  N   UNL     1      -2.686   3.846 -32.505  1.00  0.00    -0.376 N 
HETATM   24  H   UNL     1      -3.368   4.195 -33.174  1.00  0.00     0.161 HD
BRANCH  23  25
HETATM   25  C   UNL     1      -1.785   4.791 -32.029  1.00  0.00     0.100 A 
HETATM   26  C   UNL     1      -1.272   5.850 -32.794  1.00  0.00     0.048 A 
HETATM   27  C   UNL     1      -0.394   6.772 -32.224  1.00  0.00     0.005 A 
HETATM   28  C   UNL     1      -0.038   6.648 -30.889  1.00  0.00     0.017 A 
HETATM   29  C   UNL     1      -0.581   5.609 -30.154  1.00  0.00     0.089 A 
HETATM   30  N   UNL     1      -1.425   4.740 -30.732  1.00  0.00    -0.353 N 
HETATM   31  H   UNL     1      -1.821   4.007 -30.152  1.00  0.00     0.166 HD
ENDBRANCH  23  25
ENDBRANCH  22  23
ENDBRANCH   1  22
TORSDOF 6
ENDMDL
MODEL 8
REMARK VINA RESULT:      -8.2      2.800      7.656
REMARK  6 active torsions:
REMARK  status: ('A' for Active; 'I' for Inactive)
REMARK    1  A    between atoms: C_3  and  N_4 
REMARK    2  A    between atoms: N_4  and  C_5 
REMARK    3  A    between atoms: C_5  and  C_6 
REMARK    4  A    between atoms: N_8  and  C_10 
REMARK    5  A    between atoms: C_10  and  C_11 
REMARK    6  A    between atoms: C_12  and  C_13 
ROOT
HETATM    1  C   UNL     1      -4.586   1.469 -32.353  1.00  0.00     0.031 C 
HETATM    2  C   UNL     1      -3.301   2.247 -32.070  1.00  0.00     0.241 C 
HETATM    3  N   UNL     1      -3.692   3.278 -31.029  1.00  0.00    -0.067 N 
HETATM    4  H   UNL     1      -3.074   3.158 -30.214  1.00  0.00     0.280 HD
HETATM    5  C   UNL     1      -5.102   2.973 -30.579  1.00  0.00     0.235 C 
HETATM    6  C   UNL     1      -5.319   1.534 -31.015  1.00  0.00     0.035 C 
ENDROOT
BRANCH   3   7
HETATM    7  C   UNL     1      -3.508   4.722 -31.441  1.00  0.00     0.277 C 
BRANCH   7   8
HETATM    8  C   UNL     1      -3.415   4.938 -32.907  1.00  0.00     0.016 A 
HETATM    9  C   UNL     1      -4.516   5.048 -33.823  1.00  0.00     0.102 A 
HETATM   10  N   UNL     1      -4.070   5.213 -35.072  1.00  0.00    -0.174 NA
HETATM   11  N   UNL     1      -2.743   5.284 -34.975  1.00  0.00    -0.288 N 
HETATM   12  H   UNL     1      -2.209   5.454 -35.826  1.00  0.00     0.188 HD
HETATM   13  C   UNL     1      -2.291   5.109 -33.698  1.00  0.00     0.120 A 
BRANCH   9  14
HETATM   14  C   UNL     1      -5.949   5.028 -33.550  1.00  0.00     0.072 A 
HETATM   15  C   UNL     1      -6.736   3.938 -33.933  1.00  0.00     0.132 A 
HETATM   16  F   UNL     1      -6.196   2.927 -34.631  1.00  0.00    -0.205 F 
HETATM   17  C   UNL     1      -8.097   3.878 -33.631  1.00  0.00     0.043 A 
HETATM   18  C   UNL     1      -8.696   4.924 -32.932  1.00  0.00     0.006 A 
HETATM   19  C   UNL     1      -7.932   6.028 -32.555  1.00  0.00     0.043 A 
HETATM   20  C   UNL     1      -6.572   6.074 -32.864  1.00  0.00     0.132 A 
HETATM   21  F   UNL     1      -5.886   7.178 -32.530  1.00  0.00    -0.205 F 
ENDBRANCH   9  14
ENDBRANCH   7   8
ENDBRANCH   3   7
BRANCH   1  22
HETATM   22  C   UNL     1      -4.315   0.040 -32.843  1.00  0.00     0.127 C 
BRANCH  22  23
HETATM   23  N   UNL     1      -5.339  -0.366 -33.814  1.00  0.00    -0.376 N 
HETATM   24  H   UNL     1      -5.412   0.265 -34.608  1.00  0.00     0.161 HD
BRANCH  23  25
HETATM   25  C   UNL     1      -5.510  -1.714 -34.111  1.00  0.00     0.100 A 
HETATM   26  C   UNL     1      -6.725  -2.286 -34.517  1.00  0.00     0.048 A 
HETATM   27  C   UNL     1      -6.797  -3.644 -34.825  1.00  0.00     0.005 A 
HETATM   28  C   UNL     1      -5.657  -4.430 -34.742  1.00  0.00     0.017 A 
HETATM   29  C   UNL     1      -4.467  -3.831 -34.364  1.00  0.00     0.089 A 
HETATM   30  N   UNL     1      -4.432  -2.520 -34.076  1.00  0.00    -0.353 N 
HETATM   31  H   UNL     1      -3.535  -2.114 -33.828  1.00  0.00     0.166 HD
ENDBRANCH  23  25
ENDBRANCH  22  23
ENDBRANCH   1  22
TORSDOF 6
ENDMDL
MODEL 9
REMARK VINA RESULT:      -8.2      1.471      1.599
REMARK  6 active torsions:
REMARK  status: ('A' for Active; 'I' for Inactive)
REMARK    1  A    between atoms: C_3  and  N_4 
REMARK    2  A    between atoms: N_4  and  C_5 
REMARK    3  A    between atoms: C_5  and  C_6 
REMARK    4  A    between atoms: N_8  and  C_10 
REMARK    5  A    between atoms: C_10  and  C_11 
REMARK    6  A    between atoms: C_12  and  C_13 
ROOT
HETATM    1  C   UNL     1      -5.139   5.193 -32.044  1.00  0.00     0.031 C 
HETATM    2  C   UNL     1      -5.729   3.785 -31.965  1.00  0.00     0.241 C 
HETATM    3  N   UNL     1      -6.012   3.401 -33.405  1.00  0.00    -0.067 N 
HETATM    4  H   UNL     1      -5.515   2.521 -33.603  1.00  0.00     0.280 HD
HETATM    5  C   UNL     1      -5.418   4.467 -34.296  1.00  0.00     0.235 C 
HETATM    6  C   UNL     1      -4.427   5.183 -33.395  1.00  0.00     0.035 C 
ENDROOT
BRANCH   3   7
HETATM    7  C   UNL     1      -7.460   3.106 -33.727  1.00  0.00     0.277 C 
BRANCH   7   8
HETATM    8  C   UNL     1      -8.169   2.299 -32.702  1.00  0.00     0.016 A 
HETATM    9  C   UNL     1      -7.962   0.906 -32.423  1.00  0.00     0.102 A 
HETATM   10  N   UNL     1      -8.787   0.495 -31.455  1.00  0.00    -0.174 NA
HETATM   11  N   UNL     1      -9.453   1.581 -31.063  1.00  0.00    -0.288 N 
HETATM   12  H   UNL     1     -10.111   1.486 -30.292  1.00  0.00     0.188 HD
HETATM   13  C   UNL     1      -9.134   2.693 -31.789  1.00  0.00     0.120 A 
BRANCH   9  14
HETATM   14  C   UNL     1      -7.005  -0.022 -33.017  1.00  0.00     0.072 A 
HETATM   15  C   UNL     1      -5.859  -0.413 -32.319  1.00  0.00     0.132 A 
HETATM   16  F   UNL     1      -5.581   0.124 -31.121  1.00  0.00    -0.205 F 
HETATM   17  C   UNL     1      -4.963  -1.342 -32.849  1.00  0.00     0.043 A 
HETATM   18  C   UNL     1      -5.206  -1.899 -34.104  1.00  0.00     0.006 A 
HETATM   19  C   UNL     1      -6.335  -1.510 -34.823  1.00  0.00     0.043 A 
HETATM   20  C   UNL     1      -7.223  -0.579 -34.280  1.00  0.00     0.132 A 
HETATM   21  F   UNL     1      -8.268  -0.193 -35.028  1.00  0.00    -0.205 F 
ENDBRANCH   9  14
ENDBRANCH   7   8
ENDBRANCH   3   7
BRANCH   1  22
HETATM   22  C   UNL     1      -4.217   5.514 -30.859  1.00  0.00     0.127 C 
BRANCH  22  23
HETATM   23  N   UNL     1      -2.889   4.925 -31.076  1.00  0.00    -0.376 N 
HETATM   24  H   UNL     1      -2.825   4.390 -31.939  1.00  0.00     0.161 HD
BRANCH  23  25
HETATM   25  C   UNL     1      -1.752   5.651 -30.742  1.00  0.00     0.100 A 
HETATM   26  C   UNL     1      -0.695   5.914 -31.626  1.00  0.00     0.048 A 
HETATM   27  C   UNL     1       0.396   6.679 -31.214  1.00  0.00     0.005 A 
HETATM   28  C   UNL     1       0.428   7.193 -29.925  1.00  0.00     0.017 A 
HETATM   29  C   UNL     1      -0.642   6.937 -29.085  1.00  0.00     0.089 A 
HETATM   30  N   UNL     1      -1.678   6.199 -29.515  1.00  0.00    -0.353 N 
HETATM   31  H   UNL     1      -2.454   6.056 -28.876  1.00  0.00     0.166 HD
ENDBRANCH  23  25
ENDBRANCH  22  23
ENDBRANCH   1  22
TORSDOF 6
ENDMDL
MODEL 10
REMARK VINA RESULT:      -8.2      3.159      8.082
REMARK  6 active torsions:
REMARK  status: ('A' for Active; 'I' for Inactive)
REMARK    1  A    between atoms: C_3  and  N_4 
REMARK    2  A    between atoms: N_4  and  C_5 
REMARK    3  A    between atoms: C_5  and  C_6 
REMARK    4  A    between atoms: N_8  and  C_10 
REMARK    5  A    between atoms: C_10  and  C_11 
REMARK    6  A    between atoms: C_12  and  C_13 
ROOT
HETATM    1  C   UNL     1      -5.491   0.534 -31.891  1.00  0.00     0.031 C 
HETATM    2  C   UNL     1      -4.952   1.580 -32.865  1.00  0.00     0.241 C 
HETATM    3  N   UNL     1      -3.603   1.981 -32.299  1.00  0.00    -0.067 N 
HETATM    4  H   UNL     1      -2.893   1.826 -33.028  1.00  0.00     0.280 HD
HETATM    5  C   UNL     1      -3.287   1.050 -31.151  1.00  0.00     0.235 C 
HETATM    6  C   UNL     1      -4.217  -0.129 -31.372  1.00  0.00     0.035 C 
ENDROOT
BRANCH   3   7
HETATM    7  C   UNL     1      -3.460   3.441 -31.927  1.00  0.00     0.277 C 
BRANCH   7   8
HETATM    8  C   UNL     1      -3.183   4.344 -33.073  1.00  0.00     0.016 A 
HETATM    9  C   UNL     1      -4.102   5.273 -33.666  1.00  0.00     0.102 A 
HETATM   10  N   UNL     1      -3.529   5.906 -34.694  1.00  0.00    -0.174 NA
HETATM   11  N   UNL     1      -2.270   5.471 -34.731  1.00  0.00    -0.288 N 
HETATM   12  H   UNL     1      -1.645   5.871 -35.428  1.00  0.00     0.188 HD
HETATM   13  C   UNL     1      -2.009   4.517 -33.788  1.00  0.00     0.120 A 
BRANCH   9  14
HETATM   14  C   UNL     1      -5.472   5.592 -33.278  1.00  0.00     0.072 A 
HETATM   15  C   UNL     1      -5.742   6.656 -32.412  1.00  0.00     0.132 A 
HETATM   16  F   UNL     1      -4.735   7.351 -31.862  1.00  0.00    -0.205 F 
HETATM   17  C   UNL     1      -7.049   7.009 -32.075  1.00  0.00     0.043 A 
HETATM   18  C   UNL     1      -8.118   6.290 -32.606  1.00  0.00     0.006 A 
HETATM   19  C   UNL     1      -7.870   5.214 -33.458  1.00  0.00     0.043 A 
HETATM   20  C   UNL     1      -6.557   4.872 -33.786  1.00  0.00     0.132 A 
HETATM   21  F   UNL     1      -6.361   3.799 -34.566  1.00  0.00    -0.205 F 
ENDBRANCH   9  14
ENDBRANCH   7   8
ENDBRANCH   3   7
BRANCH   1  22
HETATM   22  C   UNL     1      -6.471  -0.442 -32.557  1.00  0.00     0.127 C 
BRANCH  22  23
HETATM   23  N   UNL     1      -5.960  -0.858 -33.869  1.00  0.00    -0.376 N 
HETATM   24  H   UNL     1      -5.221  -0.254 -34.221  1.00  0.00     0.161 HD
BRANCH  23  25
HETATM   25  C   UNL     1      -5.802  -2.211 -34.149  1.00  0.00     0.100 A 
HETATM   26  C   UNL     1      -6.812  -3.032 -34.673  1.00  0.00     0.048 A 
HETATM   27  C   UNL     1      -6.556  -4.375 -34.952  1.00  0.00     0.005 A 
HETATM   28  C   UNL     1      -5.291  -4.895 -34.722  1.00  0.00     0.017 A 
HETATM   29  C   UNL     1      -4.309  -4.054 -34.230  1.00  0.00     0.089 A 
HETATM   30  N   UNL     1      -4.588  -2.766 -33.974  1.00  0.00    -0.353 N 
HETATM   31  H   UNL     1      -3.833  -2.176 -33.638  1.00  0.00     0.166 HD
ENDBRANCH  23  25
ENDBRANCH  22  23
ENDBRANCH   1  22
TORSDOF 6
ENDMDL
