MODEL 1
REMARK VINA RESULT:      -9.6      0.000      0.000
REMARK  6 active torsions:
REMARK  status: ('A' for Active; 'I' for Inactive)
REMARK    1  A    between atoms: C_2  and  O_3 
REMARK    2  A    between atoms: O_3  and  C_4 
REMARK    3  A    between atoms: C_4  and  C_5 
REMARK    4  A    between atoms: C_10  and  N_11 
REMARK       I    between atoms: N_11  and  C_12 
REMARK    5  A    between atoms: C_12  and  C_13 
REMARK    6  A    between atoms: C_13  and  N_14 
ROOT
HETATM    1  N   UNL     1      -4.755   0.206 -33.089  1.00  0.00    -0.322 N 
HETATM    2  C   UNL     1      -5.143   0.590 -31.823  1.00  0.00     0.253 C 
HETATM    3  O   UNL     1      -5.864  -0.053 -31.065  1.00  0.00    -0.271 OA
HETATM    4  H   UNL     1      -3.825   0.467 -33.418  1.00  0.00     0.169 HD
ENDROOT
BRANCH   2   5
HETATM    5  C   UNL     1      -4.517   1.928 -31.367  1.00  0.00     0.275 C 
HETATM    6  C   UNL     1      -3.472   2.392 -32.368  1.00  0.00     0.050 C 
BRANCH   5   7
HETATM    7  N   UNL     1      -5.574   3.029 -31.070  1.00  0.00    -0.058 N 
HETATM    8  H   UNL     1      -6.126   2.542 -30.346  1.00  0.00     0.281 HD
HETATM    9  C   UNL     1      -5.021   4.229 -30.329  1.00  0.00     0.246 C 
HETATM   10  C   UNL     1      -5.219   5.575 -31.038  1.00  0.00     0.062 C 
HETATM   11  C   UNL     1      -6.670   5.691 -31.477  1.00  0.00     0.020 C 
HETATM   12  C   UNL     1      -4.247   5.745 -32.192  1.00  0.00     0.020 A 
HETATM   13  C   UNL     1      -6.890   4.674 -32.581  1.00  0.00     0.031 C 
HETATM   14  C   UNL     1      -6.027   5.046 -33.785  1.00  0.00     0.138 C 
HETATM   15  C   UNL     1      -6.645   3.231 -32.134  1.00  0.00     0.242 C 
HETATM   16  N   UNL     1      -4.640   5.369 -33.477  1.00  0.00    -0.317 N 
HETATM   17  C   UNL     1      -3.787   5.478 -34.586  1.00  0.00     0.247 A 
HETATM   18  O   UNL     1      -4.104   5.164 -35.729  1.00  0.00    -0.268 OA
HETATM   19  C   UNL     1      -2.422   5.991 -34.320  1.00  0.00     0.074 A 
HETATM   20  C   UNL     1      -2.075   6.355 -33.081  1.00  0.00     0.007 A 
HETATM   21  C   UNL     1      -3.009   6.235 -31.992  1.00  0.00     0.026 A 
ENDBRANCH   5   7
ENDBRANCH   2   5
BRANCH   1  22
HETATM   22  C   UNL     1      -5.349  -0.810 -33.828  1.00  0.00     0.080 A 
HETATM   23  C   UNL     1      -6.518  -0.597 -34.541  1.00  0.00     0.137 A 
HETATM   24  N   UNL     1      -6.859  -1.793 -35.125  1.00  0.00    -0.349 N 
HETATM   25  H   UNL     1      -7.668  -1.930 -35.717  1.00  0.00     0.166 HD
HETATM   26  C   UNL     1      -5.971  -2.781 -34.768  1.00  0.00     0.045 A 
HETATM   27  C   UNL     1      -4.993  -2.189 -33.963  1.00  0.00     0.023 A 
HETATM   28  C   UNL     1      -5.977  -4.145 -35.090  1.00  0.00     0.033 A 
HETATM   29  C   UNL     1      -3.982  -3.019 -33.437  1.00  0.00     0.058 A 
HETATM   30  C   UNL     1      -3.983  -4.379 -33.748  1.00  0.00     0.117 A 
HETATM   31  C   UNL     1      -4.959  -4.939 -34.560  1.00  0.00     0.044 A 
HETATM   32  F   UNL     1      -3.025  -5.162 -33.239  1.00  0.00    -0.206 F 
BRANCH  23  33
HETATM   33  C   UNL     1      -7.243   0.639 -34.706  1.00  0.00     0.312 C 
HETATM   34  O   UNL     1      -6.714   1.700 -35.020  1.00  0.00    -0.258 OA
BRANCH  33  35
HETATM   35  O   UNL     1      -8.571   0.433 -34.500  1.00  0.00    -0.317 OA
BRANCH  35  36
HETATM   36  C   UNL     1      -8.976   0.289 -33.129  1.00  0.00     0.175 C 
HETATM   37  C   UNL     1     -10.491   0.265 -33.032  1.00  0.00     0.034 C 
ENDBRANCH  35  36
ENDBRANCH  33  35
ENDBRANCH  23  33
ENDBRANCH   1  22
TORSDOF 6
ENDMDL
MODEL 2
REMARK VINA RESULT:      -9.3      3.546      6.430
REMARK  6 active torsions:
REMARK  status: ('A' for Active; 'I' for Inactive)
REMARK    1  A    between atoms: C_2  and  O_3 
REMARK    2  A    between atoms: O_3  and  C_4 
REMARK    3  A    between atoms: C_4  and  C_5 
REMARK    4  A    between atoms: C_10  and  N_11 
REMARK       I    between atoms: N_11  and  C_12 
REMARK    5  A    between atoms: C_12  and  C_13 
REMARK    6  A    between atoms: C_13  and  N_14 
ROOT
HETATM    1  N   UNL     1      -8.026  -0.122 -33.085  1.00  0.00    -0.322 N 
HETATM    2  C   UNL     1      -8.692   0.482 -34.131  1.00  0.00     0.253 C 
HETATM    3  O   UNL     1      -8.398   0.390 -35.320  1.00  0.00    -0.271 OA
HETATM    4  H   UNL     1      -8.566  -0.439 -32.279  1.00  0.00     0.169 HD
ENDROOT
BRANCH   2   5
HETATM    5  C   UNL     1      -9.946   1.270 -33.690  1.00  0.00     0.275 C 
HETATM    6  C   UNL     1      -9.642   2.100 -32.453  1.00  0.00     0.050 C 
BRANCH   5   7
HETATM    7  N   UNL     1     -10.566   2.124 -34.832  1.00  0.00    -0.058 N 
HETATM    8  H   UNL     1     -10.064   1.719 -35.637  1.00  0.00     0.281 HD
HETATM    9  C   UNL     1     -12.015   1.795 -35.130  1.00  0.00     0.246 C 
HETATM   10  C   UNL     1     -12.984   2.979 -35.015  1.00  0.00     0.062 C 
HETATM   11  C   UNL     1     -12.412   4.159 -35.783  1.00  0.00     0.020 C 
HETATM   12  C   UNL     1     -13.281   3.317 -33.565  1.00  0.00     0.020 A 
HETATM   13  C   UNL     1     -11.183   4.634 -35.031  1.00  0.00     0.031 C 
HETATM   14  C   UNL     1     -11.606   5.155 -33.658  1.00  0.00     0.138 C 
HETATM   15  C   UNL     1     -10.090   3.569 -34.918  1.00  0.00     0.242 C 
HETATM   16  N   UNL     1     -12.516   4.289 -32.920  1.00  0.00    -0.317 N 
HETATM   17  C   UNL     1     -12.720   4.637 -31.576  1.00  0.00     0.247 A 
HETATM   18  O   UNL     1     -12.070   5.493 -30.982  1.00  0.00    -0.268 OA
HETATM   19  C   UNL     1     -13.781   3.895 -30.857  1.00  0.00     0.074 A 
HETATM   20  C   UNL     1     -14.508   2.976 -31.502  1.00  0.00     0.007 A 
HETATM   21  C   UNL     1     -14.257   2.682 -32.889  1.00  0.00     0.026 A 
ENDBRANCH   5   7
ENDBRANCH   2   5
BRANCH   1  22
HETATM   22  C   UNL     1      -6.754  -0.677 -33.166  1.00  0.00     0.080 A 
HETATM   23  C   UNL     1      -5.642  -0.007 -32.682  1.00  0.00     0.137 A 
HETATM   24  N   UNL     1      -4.549  -0.799 -32.943  1.00  0.00    -0.349 N 
HETATM   25  H   UNL     1      -3.599  -0.562 -32.688  1.00  0.00     0.166 HD
HETATM   26  C   UNL     1      -4.920  -1.933 -33.627  1.00  0.00     0.045 A 
HETATM   27  C   UNL     1      -6.311  -1.896 -33.769  1.00  0.00     0.023 A 
HETATM   28  C   UNL     1      -4.125  -2.969 -34.134  1.00  0.00     0.033 A 
HETATM   29  C   UNL     1      -6.929  -2.946 -34.477  1.00  0.00     0.058 A 
HETATM   30  C   UNL     1      -6.144  -3.979 -34.990  1.00  0.00     0.117 A 
HETATM   31  C   UNL     1      -4.767  -3.998 -34.825  1.00  0.00     0.044 A 
HETATM   32  F   UNL     1      -6.737  -4.969 -35.669  1.00  0.00    -0.206 F 
BRANCH  23  33
HETATM   33  C   UNL     1      -5.600   1.254 -31.985  1.00  0.00     0.312 C 
HETATM   34  O   UNL     1      -6.249   1.493 -30.972  1.00  0.00    -0.258 OA
BRANCH  33  35
HETATM   35  O   UNL     1      -4.723   2.096 -32.594  1.00  0.00    -0.317 OA
BRANCH  35  36
HETATM   36  C   UNL     1      -5.220   3.412 -32.886  1.00  0.00     0.175 C 
HETATM   37  C   UNL     1      -6.245   3.347 -34.004  1.00  0.00     0.034 C 
ENDBRANCH  35  36
ENDBRANCH  33  35
ENDBRANCH  23  33
ENDBRANCH   1  22
TORSDOF 6
ENDMDL
MODEL 3
REMARK VINA RESULT:      -8.9      2.558      4.052
REMARK  6 active torsions:
REMARK  status: ('A' for Active; 'I' for Inactive)
REMARK    1  A    between atoms: C_2  and  O_3 
REMARK    2  A    between atoms: O_3  and  C_4 
REMARK    3  A    between atoms: C_4  and  C_5 
REMARK    4  A    between atoms: C_10  and  N_11 
REMARK       I    between atoms: N_11  and  C_12 
REMARK    5  A    between atoms: C_12  and  C_13 
REMARK    6  A    between atoms: C_13  and  N_14 
ROOT
HETATM    1  N   UNL     1      -5.705   2.179 -32.109  1.00  0.00    -0.322 N 
HETATM    2  C   UNL     1      -5.367   3.318 -32.809  1.00  0.00     0.253 C 
HETATM    3  O   UNL     1      -5.908   3.718 -33.837  1.00  0.00    -0.271 OA
HETATM    4  H   UNL     1      -5.620   2.186 -31.092  1.00  0.00     0.169 HD
ENDROOT
BRANCH   2   5
HETATM    5  C   UNL     1      -4.245   4.143 -32.139  1.00  0.00     0.275 C 
HETATM    6  C   UNL     1      -3.102   3.235 -31.714  1.00  0.00     0.050 C 
BRANCH   5   7
HETATM    7  N   UNL     1      -3.755   5.332 -33.013  1.00  0.00    -0.058 N 
HETATM    8  H   UNL     1      -4.531   5.376 -33.691  1.00  0.00     0.281 HD
HETATM    9  C   UNL     1      -3.830   6.677 -32.319  1.00  0.00     0.246 C 
HETATM   10  C   UNL     1      -2.500   7.437 -32.233  1.00  0.00     0.062 C 
HETATM   11  C   UNL     1      -1.850   7.448 -33.607  1.00  0.00     0.020 C 
HETATM   12  C   UNL     1      -1.594   6.853 -31.164  1.00  0.00     0.020 A 
HETATM   13  C   UNL     1      -1.425   6.024 -33.916  1.00  0.00     0.031 C 
HETATM   14  C   UNL     1      -0.353   5.593 -32.915  1.00  0.00     0.138 C 
HETATM   15  C   UNL     1      -2.593   5.036 -33.952  1.00  0.00     0.242 C 
HETATM   16  N   UNL     1      -0.654   5.885 -31.520  1.00  0.00    -0.317 N 
HETATM   17  C   UNL     1       0.200   5.287 -30.582  1.00  0.00     0.247 A 
HETATM   18  O   UNL     1       1.043   4.439 -30.863  1.00  0.00    -0.268 OA
HETATM   19  C   UNL     1       0.039   5.717 -29.173  1.00  0.00     0.074 A 
HETATM   20  C   UNL     1      -0.862   6.655 -28.861  1.00  0.00     0.007 A 
HETATM   21  C   UNL     1      -1.694   7.242 -29.879  1.00  0.00     0.026 A 
ENDBRANCH   5   7
ENDBRANCH   2   5
BRANCH   1  22
HETATM   22  C   UNL     1      -6.496   1.148 -32.602  1.00  0.00     0.080 A 
HETATM   23  C   UNL     1      -7.871   1.147 -32.431  1.00  0.00     0.137 A 
HETATM   24  N   UNL     1      -8.347  -0.012 -32.995  1.00  0.00    -0.349 N 
HETATM   25  H   UNL     1      -9.325  -0.272 -33.026  1.00  0.00     0.166 HD
HETATM   26  C   UNL     1      -7.314  -0.780 -33.478  1.00  0.00     0.045 A 
HETATM   27  C   UNL     1      -6.131  -0.067 -33.262  1.00  0.00     0.023 A 
HETATM   28  C   UNL     1      -7.348  -2.048 -34.072  1.00  0.00     0.033 A 
HETATM   29  C   UNL     1      -4.917  -0.674 -33.644  1.00  0.00     0.058 A 
HETATM   30  C   UNL     1      -4.941  -1.939 -34.232  1.00  0.00     0.117 A 
HETATM   31  C   UNL     1      -6.130  -2.620 -34.446  1.00  0.00     0.044 A 
HETATM   32  F   UNL     1      -3.784  -2.513 -34.585  1.00  0.00    -0.206 F 
BRANCH  23  33
HETATM   33  C   UNL     1      -8.690   2.170 -31.829  1.00  0.00     0.312 C 
HETATM   34  O   UNL     1      -9.691   2.640 -32.360  1.00  0.00    -0.258 OA
BRANCH  33  35
HETATM   35  O   UNL     1      -8.207   2.492 -30.600  1.00  0.00    -0.317 OA
BRANCH  35  36
HETATM   36  C   UNL     1      -8.466   3.834 -30.158  1.00  0.00     0.175 C 
HETATM   37  C   UNL     1      -7.175   4.492 -29.705  1.00  0.00     0.034 C 
ENDBRANCH  35  36
ENDBRANCH  33  35
ENDBRANCH  23  33
ENDBRANCH   1  22
TORSDOF 6
ENDMDL
MODEL 4
REMARK VINA RESULT:      -8.9      2.865      5.215
REMARK  6 active torsions:
REMARK  status: ('A' for Active; 'I' for Inactive)
REMARK    1  A    between atoms: C_2  and  O_3 
REMARK    2  A    between atoms: O_3  and  C_4 
REMARK    3  A    between atoms: C_4  and  C_5 
REMARK    4  A    between atoms: C_10  and  N_11 
REMARK       I    between atoms: N_11  and  C_12 
REMARK    5  A    between atoms: C_12  and  C_13 
REMARK    6  A    between atoms: C_13  and  N_14 
ROOT
HETATM    1  N   UNL     1      -6.086   0.149 -33.309  1.00  0.00    -0.322 N 
HETATM    2  C   UNL     1      -7.047   0.442 -32.365  1.00  0.00     0.253 C 
HETATM    3  O   UNL     1      -7.108  -0.024 -31.231  1.00  0.00    -0.271 OA
HETATM    4  H   UNL     1      -5.786   0.886 -33.949  1.00  0.00     0.169 HD
ENDROOT
BRANCH   2   5
HETATM    5  C   UNL     1      -8.061   1.512 -32.830  1.00  0.00     0.275 C 
HETATM    6  C   UNL     1      -9.470   0.941 -32.833  1.00  0.00     0.050 C 
BRANCH   5   7
HETATM    7  N   UNL     1      -7.967   2.837 -32.022  1.00  0.00    -0.058 N 
HETATM    8  H   UNL     1      -7.035   2.711 -31.598  1.00  0.00     0.281 HD
HETATM    9  C   UNL     1      -7.787   4.071 -32.883  1.00  0.00     0.246 C 
HETATM   10  C   UNL     1      -8.860   5.152 -32.697  1.00  0.00     0.062 C 
HETATM   11  C   UNL     1      -9.043   5.414 -31.212  1.00  0.00     0.020 C 
HETATM   12  C   UNL     1     -10.159   4.771 -33.385  1.00  0.00     0.020 A 
HETATM   13  C   UNL     1      -9.680   4.176 -30.610  1.00  0.00     0.031 C 
HETATM   14  C   UNL     1     -11.074   3.989 -31.207  1.00  0.00     0.138 C 
HETATM   15  C   UNL     1      -8.826   2.916 -30.766  1.00  0.00     0.242 C 
HETATM   16  N   UNL     1     -11.149   4.110 -32.657  1.00  0.00    -0.317 N 
HETATM   17  C   UNL     1     -12.363   3.708 -33.233  1.00  0.00     0.247 A 
HETATM   18  O   UNL     1     -13.257   3.133 -32.619  1.00  0.00    -0.268 OA
HETATM   19  C   UNL     1     -12.537   3.998 -34.676  1.00  0.00     0.074 A 
HETATM   20  C   UNL     1     -11.578   4.643 -35.347  1.00  0.00     0.007 A 
HETATM   21  C   UNL     1     -10.362   5.044 -34.688  1.00  0.00     0.026 A 
ENDBRANCH   5   7
ENDBRANCH   2   5
BRANCH   1  22
HETATM   22  C   UNL     1      -5.215  -0.933 -33.248  1.00  0.00     0.080 A 
HETATM   23  C   UNL     1      -3.967  -0.823 -32.655  1.00  0.00     0.137 A 
HETATM   24  N   UNL     1      -3.348  -2.043 -32.789  1.00  0.00    -0.349 N 
HETATM   25  H   UNL     1      -2.424  -2.255 -32.436  1.00  0.00     0.166 HD
HETATM   26  C   UNL     1      -4.140  -2.917 -33.495  1.00  0.00     0.045 A 
HETATM   27  C   UNL     1      -5.336  -2.253 -33.785  1.00  0.00     0.023 A 
HETATM   28  C   UNL     1      -3.875  -4.231 -33.902  1.00  0.00     0.033 A 
HETATM   29  C   UNL     1      -6.305  -2.941 -34.543  1.00  0.00     0.058 A 
HETATM   30  C   UNL     1      -6.047  -4.248 -34.957  1.00  0.00     0.117 A 
HETATM   31  C   UNL     1      -4.856  -4.889 -34.646  1.00  0.00     0.044 A 
HETATM   32  F   UNL     1      -6.968  -4.893 -35.684  1.00  0.00    -0.206 F 
BRANCH  23  33
HETATM   33  C   UNL     1      -3.408   0.317 -31.972  1.00  0.00     0.312 C 
HETATM   34  O   UNL     1      -2.715   0.233 -30.963  1.00  0.00    -0.258 OA
BRANCH  33  35
HETATM   35  O   UNL     1      -3.732   1.461 -32.630  1.00  0.00    -0.317 OA
BRANCH  35  36
HETATM   36  C   UNL     1      -3.386   2.686 -31.963  1.00  0.00     0.175 C 
HETATM   37  C   UNL     1      -4.551   3.165 -31.114  1.00  0.00     0.034 C 
ENDBRANCH  35  36
ENDBRANCH  33  35
ENDBRANCH  23  33
ENDBRANCH   1  22
TORSDOF 6
ENDMDL
MODEL 5
REMARK VINA RESULT:      -8.5      2.602      4.395
REMARK  6 active torsions:
REMARK  status: ('A' for Active; 'I' for Inactive)
REMARK    1  A    between atoms: C_2  and  O_3 
REMARK    2  A    between atoms: O_3  and  C_4 
REMARK    3  A    between atoms: C_4  and  C_5 
REMARK    4  A    between atoms: C_10  and  N_11 
REMARK       I    between atoms: N_11  and  C_12 
REMARK    5  A    between atoms: C_12  and  C_13 
REMARK    6  A    between atoms: C_13  and  N_14 
ROOT
HETATM    1  N   UNL     1      -5.949   1.614 -32.203  1.00  0.00    -0.322 N 
HETATM    2  C   UNL     1      -5.666   1.883 -30.881  1.00  0.00     0.253 C 
HETATM    3  O   UNL     1      -6.251   1.411 -29.909  1.00  0.00    -0.271 OA
HETATM    4  H   UNL     1      -5.180   1.587 -32.873  1.00  0.00     0.169 HD
ENDROOT
BRANCH   2   5
HETATM    5  C   UNL     1      -4.449   2.816 -30.689  1.00  0.00     0.275 C 
HETATM    6  C   UNL     1      -3.484   2.673 -31.855  1.00  0.00     0.050 C 
BRANCH   5   7
HETATM    7  N   UNL     1      -4.847   4.297 -30.435  1.00  0.00    -0.058 N 
HETATM    8  H   UNL     1      -5.278   4.199 -29.503  1.00  0.00     0.281 HD
HETATM    9  C   UNL     1      -3.670   5.214 -30.173  1.00  0.00     0.246 C 
HETATM   10  C   UNL     1      -3.554   6.409 -31.129  1.00  0.00     0.062 C 
HETATM   11  C   UNL     1      -4.906   7.095 -31.225  1.00  0.00     0.020 C 
HETATM   12  C   UNL     1      -3.017   5.986 -32.485  1.00  0.00     0.020 A 
HETATM   13  C   UNL     1      -5.842   6.149 -31.953  1.00  0.00     0.031 C 
HETATM   14  C   UNL     1      -5.339   5.947 -33.382  1.00  0.00     0.138 C 
HETATM   15  C   UNL     1      -6.039   4.814 -31.231  1.00  0.00     0.242 C 
HETATM   16  N   UNL     1      -3.915   5.662 -33.504  1.00  0.00    -0.317 N 
HETATM   17  C   UNL     1      -3.491   5.244 -34.773  1.00  0.00     0.247 A 
HETATM   18  O   UNL     1      -4.254   4.960 -35.693  1.00  0.00    -0.268 OA
HETATM   19  C   UNL     1      -2.028   5.133 -34.977  1.00  0.00     0.074 A 
HETATM   20  C   UNL     1      -1.189   5.460 -33.988  1.00  0.00     0.007 A 
HETATM   21  C   UNL     1      -1.694   5.902 -32.714  1.00  0.00     0.026 A 
ENDBRANCH   5   7
ENDBRANCH   2   5
BRANCH   1  22
HETATM   22  C   UNL     1      -7.117   1.015 -32.660  1.00  0.00     0.080 A 
HETATM   23  C   UNL     1      -7.106  -0.248 -33.230  1.00  0.00     0.137 A 
HETATM   24  N   UNL     1      -8.397  -0.534 -33.604  1.00  0.00    -0.349 N 
HETATM   25  H   UNL     1      -8.687  -1.401 -34.040  1.00  0.00     0.166 HD
HETATM   26  C   UNL     1      -9.228   0.528 -33.338  1.00  0.00     0.045 A 
HETATM   27  C   UNL     1      -8.455   1.518 -32.724  1.00  0.00     0.023 A 
HETATM   28  C   UNL     1     -10.595   0.681 -33.610  1.00  0.00     0.033 A 
HETATM   29  C   UNL     1      -9.086   2.732 -32.386  1.00  0.00     0.058 A 
HETATM   30  C   UNL     1     -10.445   2.895 -32.657  1.00  0.00     0.117 A 
HETATM   31  C   UNL     1     -11.193   1.892 -33.257  1.00  0.00     0.044 A 
HETATM   32  F   UNL     1     -11.036   4.054 -32.342  1.00  0.00    -0.206 F 
BRANCH  23  33
HETATM   33  C   UNL     1      -5.986  -1.145 -33.375  1.00  0.00     0.312 C 
HETATM   34  O   UNL     1      -5.059  -1.211 -32.574  1.00  0.00    -0.258 OA
BRANCH  33  35
HETATM   35  O   UNL     1      -6.139  -1.907 -34.490  1.00  0.00    -0.317 OA
BRANCH  35  36
HETATM   36  C   UNL     1      -5.278  -3.053 -34.587  1.00  0.00     0.175 C 
HETATM   37  C   UNL     1      -6.079  -4.274 -35.005  1.00  0.00     0.034 C 
ENDBRANCH  35  36
ENDBRANCH  33  35
ENDBRANCH  23  33
ENDBRANCH   1  22
TORSDOF 6
ENDMDL
MODEL 6
REMARK VINA RESULT:      -8.4      3.244      5.588
REMARK  6 active torsions:
REMARK  status: ('A' for Active; 'I' for Inactive)
REMARK    1  A    between atoms: C_2  and  O_3 
REMARK    2  A    between atoms: O_3  and  C_4 
REMARK    3  A    between atoms: C_4  and  C_5 
REMARK    4  A    between atoms: C_10  and  N_11 
REMARK       I    between atoms: N_11  and  C_12 
REMARK    5  A    between atoms: C_12  and  C_13 
REMARK    6  A    between atoms: C_13  and  N_14 
ROOT
HETATM    1  N   UNL     1      -6.453   3.004 -31.633  1.00  0.00    -0.322 N 
HETATM    2  C   UNL     1      -5.528   3.437 -32.560  1.00  0.00     0.253 C 
HETATM    3  O   UNL     1      -5.596   3.272 -33.775  1.00  0.00    -0.271 OA
HETATM    4  H   UNL     1      -6.624   3.577 -30.806  1.00  0.00     0.169 HD
ENDROOT
BRANCH   2   5
HETATM    5  C   UNL     1      -4.371   4.252 -31.940  1.00  0.00     0.275 C 
HETATM    6  C   UNL     1      -3.257   3.324 -31.481  1.00  0.00     0.050 C 
BRANCH   5   7
HETATM    7  N   UNL     1      -3.847   5.379 -32.875  1.00  0.00    -0.058 N 
HETATM    8  H   UNL     1      -4.619   5.404 -33.558  1.00  0.00     0.281 HD
HETATM    9  C   UNL     1      -3.893   6.762 -32.256  1.00  0.00     0.246 C 
HETATM   10  C   UNL     1      -2.545   7.492 -32.203  1.00  0.00     0.062 C 
HETATM   11  C   UNL     1      -1.888   7.412 -33.572  1.00  0.00     0.020 C 
HETATM   12  C   UNL     1      -1.658   6.946 -31.099  1.00  0.00     0.020 A 
HETATM   13  C   UNL     1      -1.497   5.964 -33.800  1.00  0.00     0.031 C 
HETATM   14  C   UNL     1      -0.441   5.562 -32.772  1.00  0.00     0.138 C 
HETATM   15  C   UNL     1      -2.689   5.004 -33.790  1.00  0.00     0.242 C 
HETATM   16  N   UNL     1      -0.741   5.937 -31.396  1.00  0.00    -0.317 N 
HETATM   17  C   UNL     1       0.095   5.370 -30.422  1.00  0.00     0.247 A 
HETATM   18  O   UNL     1       0.917   4.488 -30.652  1.00  0.00    -0.268 OA
HETATM   19  C   UNL     1      -0.063   5.881 -29.040  1.00  0.00     0.074 A 
HETATM   20  C   UNL     1      -0.941   6.856 -28.785  1.00  0.00     0.007 A 
HETATM   21  C   UNL     1      -1.754   7.407 -29.838  1.00  0.00     0.026 A 
ENDBRANCH   5   7
ENDBRANCH   2   5
BRANCH   1  22
HETATM   22  C   UNL     1      -7.444   2.060 -31.879  1.00  0.00     0.080 A 
HETATM   23  C   UNL     1      -7.316   0.750 -31.448  1.00  0.00     0.137 A 
HETATM   24  N   UNL     1      -8.434   0.074 -31.875  1.00  0.00    -0.349 N 
HETATM   25  H   UNL     1      -8.614  -0.905 -31.691  1.00  0.00     0.166 HD
HETATM   26  C   UNL     1      -9.251   0.898 -32.612  1.00  0.00     0.045 A 
HETATM   27  C   UNL     1      -8.663   2.167 -32.619  1.00  0.00     0.023 A 
HETATM   28  C   UNL     1     -10.449   0.604 -33.275  1.00  0.00     0.033 A 
HETATM   29  C   UNL     1      -9.306   3.187 -33.350  1.00  0.00     0.058 A 
HETATM   30  C   UNL     1     -10.497   2.902 -34.018  1.00  0.00     0.117 A 
HETATM   31  C   UNL     1     -11.065   1.637 -33.986  1.00  0.00     0.044 A 
HETATM   32  F   UNL     1     -11.097   3.872 -34.718  1.00  0.00    -0.206 F 
BRANCH  23  33
HETATM   33  C   UNL     1      -6.256   0.176 -30.656  1.00  0.00     0.312 C 
HETATM   34  O   UNL     1      -6.058   0.458 -29.478  1.00  0.00    -0.258 OA
BRANCH  33  35
HETATM   35  O   UNL     1      -5.558  -0.727 -31.393  1.00  0.00    -0.317 OA
BRANCH  35  36
HETATM   36  C   UNL     1      -4.162  -0.442 -31.573  1.00  0.00     0.175 C 
HETATM   37  C   UNL     1      -3.801  -0.506 -33.047  1.00  0.00     0.034 C 
ENDBRANCH  35  36
ENDBRANCH  33  35
ENDBRANCH  23  33
ENDBRANCH   1  22
TORSDOF 6
ENDMDL
MODEL 7
REMARK VINA RESULT:      -8.4      3.832      8.885
REMARK  6 active torsions:
REMARK  status: ('A' for Active; 'I' for Inactive)
REMARK    1  A    between atoms: C_2  and  O_3 
REMARK    2  A    between atoms: O_3  and  C_4 
REMARK    3  A    between atoms: C_4  and  C_5 
REMARK    4  A    between atoms: C_10  and  N_11 
REMARK       I    between atoms: N_11  and  C_12 
REMARK    5  A    between atoms: C_12  and  C_13 
REMARK    6  A    between atoms: C_13  and  N_14 
ROOT
HETATM    1  N   UNL     1      -3.664   5.174 -30.865  1.00  0.00    -0.322 N 
HETATM    2  C   UNL     1      -4.620   5.277 -31.854  1.00  0.00     0.253 C 
HETATM    3  O   UNL     1      -4.683   6.160 -32.705  1.00  0.00    -0.271 OA
HETATM    4  H   UNL     1      -3.357   4.245 -30.574  1.00  0.00     0.169 HD
ENDROOT
BRANCH   2   5
HETATM    5  C   UNL     1      -5.622   4.100 -31.865  1.00  0.00     0.275 C 
HETATM    6  C   UNL     1      -6.229   3.935 -33.249  1.00  0.00     0.050 C 
BRANCH   5   7
HETATM    7  N   UNL     1      -5.014   2.773 -31.328  1.00  0.00    -0.058 N 
HETATM    8  H   UNL     1      -4.287   3.159 -30.708  1.00  0.00     0.281 HD
HETATM    9  C   UNL     1      -5.920   2.025 -30.371  1.00  0.00     0.246 C 
HETATM   10  C   UNL     1      -6.256   0.587 -30.787  1.00  0.00     0.062 C 
HETATM   11  C   UNL     1      -4.969  -0.129 -31.163  1.00  0.00     0.020 C 
HETATM   12  C   UNL     1      -7.286   0.557 -31.902  1.00  0.00     0.020 A 
HETATM   13  C   UNL     1      -4.460   0.500 -32.445  1.00  0.00     0.031 C 
HETATM   14  C   UNL     1      -5.464   0.236 -33.566  1.00  0.00     0.138 C 
HETATM   15  C   UNL     1      -4.147   1.992 -32.307  1.00  0.00     0.242 C 
HETATM   16  N   UNL     1      -6.856   0.504 -33.228  1.00  0.00    -0.317 N 
HETATM   17  C   UNL     1      -7.750   0.495 -34.308  1.00  0.00     0.247 A 
HETATM   18  O   UNL     1      -7.405   0.441 -35.485  1.00  0.00    -0.268 OA
HETATM   19  C   UNL     1      -9.191   0.573 -33.973  1.00  0.00     0.074 A 
HETATM   20  C   UNL     1      -9.577   0.611 -32.693  1.00  0.00     0.007 A 
HETATM   21  C   UNL     1      -8.604   0.597 -31.631  1.00  0.00     0.026 A 
ENDBRANCH   5   7
ENDBRANCH   2   5
BRANCH   1  22
HETATM   22  C   UNL     1      -2.806   6.198 -30.481  1.00  0.00     0.080 A 
HETATM   23  C   UNL     1      -1.447   6.139 -30.746  1.00  0.00     0.137 A 
HETATM   24  N   UNL     1      -0.882   7.273 -30.213  1.00  0.00    -0.349 N 
HETATM   25  H   UNL     1       0.103   7.500 -30.267  1.00  0.00     0.166 HD
HETATM   26  C   UNL     1      -1.829   8.033 -29.568  1.00  0.00     0.045 A 
HETATM   27  C   UNL     1      -3.060   7.391 -29.733  1.00  0.00     0.023 A 
HETATM   28  C   UNL     1      -1.677   9.224 -28.846  1.00  0.00     0.033 A 
HETATM   29  C   UNL     1      -4.192   7.968 -29.122  1.00  0.00     0.058 A 
HETATM   30  C   UNL     1      -4.048   9.151 -28.397  1.00  0.00     0.117 A 
HETATM   31  C   UNL     1      -2.817   9.775 -28.257  1.00  0.00     0.044 A 
HETATM   32  F   UNL     1      -5.126   9.689 -27.812  1.00  0.00    -0.206 F 
BRANCH  23  33
HETATM   33  C   UNL     1      -0.730   5.128 -31.483  1.00  0.00     0.312 C 
HETATM   34  O   UNL     1       0.333   4.641 -31.112  1.00  0.00    -0.258 OA
BRANCH  33  35
HETATM   35  O   UNL     1      -1.423   4.786 -32.602  1.00  0.00    -0.317 OA
BRANCH  35  36
HETATM   36  C   UNL     1      -1.277   5.673 -33.722  1.00  0.00     0.175 C 
HETATM   37  C   UNL     1      -1.855   5.034 -34.973  1.00  0.00     0.034 C 
ENDBRANCH  35  36
ENDBRANCH  33  35
ENDBRANCH  23  33
ENDBRANCH   1  22
TORSDOF 6
ENDMDL
MODEL 8
REMARK VINA RESULT:      -8.3      3.229      8.139
REMARK  6 active torsions:
REMARK  status: ('A' for Active; 'I' for Inactive)
REMARK    1  A    between atoms: C_2  and  O_3 
REMARK    2  A    between atoms: O_3  and  C_4 
REMARK    3  A    between atoms: C_4  and  C_5 
REMARK    4  A    between atoms: C_10  and  N_11 
REMARK       I    between atoms: N_11  and  C_12 
REMARK    5  A    between atoms: C_12  and  C_13 
REMARK    6  A    between atoms: C_13  and  N_14 
ROOT
HETATM    1  N   UNL     1      -5.408   4.312 -32.264  1.00  0.00    -0.322 N 
HETATM    2  C   UNL     1      -6.490   4.680 -33.036  1.00  0.00     0.253 C 
HETATM    3  O   UNL     1      -6.971   5.807 -33.110  1.00  0.00    -0.271 OA
HETATM    4  H   UNL     1      -4.775   3.594 -32.617  1.00  0.00     0.169 HD
ENDROOT
BRANCH   2   5
HETATM    5  C   UNL     1      -7.046   3.529 -33.905  1.00  0.00     0.275 C 
HETATM    6  C   UNL     1      -5.937   2.552 -34.261  1.00  0.00     0.050 C 
BRANCH   5   7
HETATM    7  N   UNL     1      -8.272   2.817 -33.267  1.00  0.00    -0.058 N 
HETATM    8  H   UNL     1      -8.943   3.601 -33.270  1.00  0.00     0.281 HD
HETATM    9  C   UNL     1      -8.932   1.797 -34.173  1.00  0.00     0.246 C 
HETATM   10  C   UNL     1      -9.015   0.378 -33.597  1.00  0.00     0.062 C 
HETATM   11  C   UNL     1      -9.571   0.452 -32.184  1.00  0.00     0.020 C 
HETATM   12  C   UNL     1      -7.672  -0.327 -33.657  1.00  0.00     0.020 A 
HETATM   13  C   UNL     1      -8.521   1.123 -31.320  1.00  0.00     0.031 C 
HETATM   14  C   UNL     1      -7.277   0.238 -31.266  1.00  0.00     0.138 C 
HETATM   15  C   UNL     1      -8.182   2.546 -31.770  1.00  0.00     0.242 C 
HETATM   16  N   UNL     1      -6.820  -0.270 -32.553  1.00  0.00    -0.317 N 
HETATM   17  C   UNL     1      -5.557  -0.879 -32.545  1.00  0.00     0.247 A 
HETATM   18  O   UNL     1      -4.788  -0.854 -31.589  1.00  0.00    -0.268 OA
HETATM   19  C   UNL     1      -5.151  -1.572 -33.791  1.00  0.00     0.074 A 
HETATM   20  C   UNL     1      -5.991  -1.622 -34.830  1.00  0.00     0.007 A 
HETATM   21  C   UNL     1      -7.284  -0.990 -34.762  1.00  0.00     0.026 A 
ENDBRANCH   5   7
ENDBRANCH   2   5
BRANCH   1  22
HETATM   22  C   UNL     1      -4.878   5.070 -31.226  1.00  0.00     0.080 A 
HETATM   23  C   UNL     1      -3.517   5.310 -31.129  1.00  0.00     0.137 A 
HETATM   24  N   UNL     1      -3.318   6.051 -29.988  1.00  0.00    -0.349 N 
HETATM   25  H   UNL     1      -2.415   6.381 -29.672  1.00  0.00     0.166 HD
HETATM   26  C   UNL     1      -4.504   6.249 -29.322  1.00  0.00     0.045 A 
HETATM   27  C   UNL     1      -5.514   5.657 -30.087  1.00  0.00     0.023 A 
HETATM   28  C   UNL     1      -4.745   6.894 -28.101  1.00  0.00     0.033 A 
HETATM   29  C   UNL     1      -6.831   5.699 -29.585  1.00  0.00     0.058 A 
HETATM   30  C   UNL     1      -7.078   6.334 -28.368  1.00  0.00     0.117 A 
HETATM   31  C   UNL     1      -6.060   6.924 -27.634  1.00  0.00     0.044 A 
HETATM   32  F   UNL     1      -8.330   6.362 -27.893  1.00  0.00    -0.206 F 
BRANCH  23  33
HETATM   33  C   UNL     1      -2.480   4.922 -32.053  1.00  0.00     0.312 C 
HETATM   34  O   UNL     1      -1.427   4.394 -31.711  1.00  0.00    -0.258 OA
BRANCH  33  35
HETATM   35  O   UNL     1      -2.866   5.194 -33.328  1.00  0.00    -0.317 OA
BRANCH  35  36
HETATM   36  C   UNL     1      -1.899   5.879 -34.141  1.00  0.00     0.175 C 
HETATM   37  C   UNL     1      -1.778   7.327 -33.699  1.00  0.00     0.034 C 
ENDBRANCH  35  36
ENDBRANCH  33  35
ENDBRANCH  23  33
ENDBRANCH   1  22
TORSDOF 6
ENDMDL
MODEL 9
REMARK VINA RESULT:      -8.2      3.104      4.859
REMARK  6 active torsions:
REMARK  status: ('A' for Active; 'I' for Inactive)
REMARK    1  A    between atoms: C_2  and  O_3 
REMARK    2  A    between atoms: O_3  and  C_4 
REMARK    3  A    between atoms: C_4  and  C_5 
REMARK    4  A    between atoms: C_10  and  N_11 
REMARK       I    between atoms: N_11  and  C_12 
REMARK    5  A    between atoms: C_12  and  C_13 
REMARK    6  A    between atoms: C_13  and  N_14 
ROOT
HETATM    1  N   UNL     1      -6.222   3.829 -32.751  1.00  0.00    -0.322 N 
HETATM    2  C   UNL     1      -5.348   4.748 -33.292  1.00  0.00     0.253 C 
HETATM    3  O   UNL     1      -5.289   5.075 -34.474  1.00  0.00    -0.271 OA
HETATM    4  H   UNL     1      -6.574   3.984 -31.805  1.00  0.00     0.169 HD
ENDROOT
BRANCH   2   5
HETATM    5  C   UNL     1      -4.443   5.430 -32.241  1.00  0.00     0.275 C 
HETATM    6  C   UNL     1      -4.559   4.719 -30.902  1.00  0.00     0.050 C 
BRANCH   5   7
HETATM    7  N   UNL     1      -2.965   5.570 -32.705  1.00  0.00    -0.058 N 
HETATM    8  H   UNL     1      -3.007   5.015 -33.573  1.00  0.00     0.281 HD
HETATM    9  C   UNL     1      -2.605   6.956 -33.201  1.00  0.00     0.246 C 
HETATM   10  C   UNL     1      -1.436   7.623 -32.466  1.00  0.00     0.062 C 
HETATM   11  C   UNL     1      -0.281   6.640 -32.383  1.00  0.00     0.020 C 
HETATM   12  C   UNL     1      -1.859   8.141 -31.102  1.00  0.00     0.020 A 
HETATM   13  C   UNL     1      -0.701   5.527 -31.442  1.00  0.00     0.031 C 
HETATM   14  C   UNL     1      -0.900   6.104 -30.041  1.00  0.00     0.138 C 
HETATM   15  C   UNL     1      -1.940   4.764 -31.918  1.00  0.00     0.242 C 
HETATM   16  N   UNL     1      -1.687   7.328 -29.980  1.00  0.00    -0.317 N 
HETATM   17  C   UNL     1      -2.074   7.732 -28.694  1.00  0.00     0.247 A 
HETATM   18  O   UNL     1      -1.930   7.046 -27.686  1.00  0.00    -0.268 OA
HETATM   19  C   UNL     1      -2.707   9.068 -28.584  1.00  0.00     0.074 A 
HETATM   20  C   UNL     1      -2.849   9.831 -29.673  1.00  0.00     0.007 A 
HETATM   21  C   UNL     1      -2.411   9.360 -30.962  1.00  0.00     0.026 A 
ENDBRANCH   5   7
ENDBRANCH   2   5
BRANCH   1  22
HETATM   22  C   UNL     1      -6.965   2.910 -33.484  1.00  0.00     0.080 A 
HETATM   23  C   UNL     1      -8.236   3.213 -33.946  1.00  0.00     0.137 A 
HETATM   24  N   UNL     1      -8.705   2.096 -34.595  1.00  0.00    -0.349 N 
HETATM   25  H   UNL     1      -9.611   2.035 -35.044  1.00  0.00     0.166 HD
HETATM   26  C   UNL     1      -7.795   1.068 -34.520  1.00  0.00     0.045 A 
HETATM   27  C   UNL     1      -6.675   1.555 -33.839  1.00  0.00     0.023 A 
HETATM   28  C   UNL     1      -7.894  -0.247 -34.991  1.00  0.00     0.033 A 
HETATM   29  C   UNL     1      -5.608   0.664 -33.603  1.00  0.00     0.058 A 
HETATM   30  C   UNL     1      -5.701  -0.649 -34.064  1.00  0.00     0.117 A 
HETATM   31  C   UNL     1      -6.819  -1.105 -34.747  1.00  0.00     0.044 A 
HETATM   32  F   UNL     1      -4.688  -1.493 -33.829  1.00  0.00    -0.206 F 
BRANCH  23  33
HETATM   33  C   UNL     1      -8.945   4.463 -33.835  1.00  0.00     0.312 C 
HETATM   34  O   UNL     1      -9.222   5.176 -34.794  1.00  0.00    -0.258 OA
BRANCH  33  35
HETATM   35  O   UNL     1      -9.279   4.696 -32.538  1.00  0.00    -0.317 OA
BRANCH  35  36
HETATM   36  C   UNL     1     -10.360   3.906 -32.019  1.00  0.00     0.175 C 
HETATM   37  C   UNL     1     -10.286   3.850 -30.503  1.00  0.00     0.034 C 
ENDBRANCH  35  36
ENDBRANCH  33  35
ENDBRANCH  23  33
ENDBRANCH   1  22
TORSDOF 6
ENDMDL
MODEL 10
REMARK VINA RESULT:      -8.0      3.497      8.869
REMARK  6 active torsions:
REMARK  status: ('A' for Active; 'I' for Inactive)
REMARK    1  A    between atoms: C_2  and  O_3 
REMARK    2  A    between atoms: O_3  and  C_4 
REMARK    3  A    between atoms: C_4  and  C_5 
REMARK    4  A    between atoms: C_10  and  N_11 
REMARK       I    between atoms: N_11  and  C_12 
REMARK    5  A    between atoms: C_12  and  C_13 
REMARK    6  A    between atoms: C_13  and  N_14 
ROOT
HETATM    1  N   UNL     1      -3.763   5.351 -31.938  1.00  0.00    -0.322 N 
HETATM    2  C   UNL     1      -4.675   4.847 -32.842  1.00  0.00     0.253 C 
HETATM    3  O   UNL     1      -5.330   5.504 -33.646  1.00  0.00    -0.271 OA
HETATM    4  H   UNL     1      -2.938   4.795 -31.713  1.00  0.00     0.169 HD
ENDROOT
BRANCH   2   5
HETATM    5  C   UNL     1      -4.772   3.304 -32.823  1.00  0.00     0.275 C 
HETATM    6  C   UNL     1      -3.407   2.692 -32.552  1.00  0.00     0.050 C 
BRANCH   5   7
HETATM    7  N   UNL     1      -5.858   2.771 -31.846  1.00  0.00    -0.058 N 
HETATM    8  H   UNL     1      -6.278   3.667 -31.556  1.00  0.00     0.281 HD
HETATM    9  C   UNL     1      -7.007   2.060 -32.533  1.00  0.00     0.246 C 
HETATM   10  C   UNL     1      -7.245   0.617 -32.070  1.00  0.00     0.062 C 
HETATM   11  C   UNL     1      -7.274   0.586 -30.551  1.00  0.00     0.020 C 
HETATM   12  C   UNL     1      -6.212  -0.332 -32.652  1.00  0.00     0.020 A 
HETATM   13  C   UNL     1      -5.868   0.886 -30.066  1.00  0.00     0.031 C 
HETATM   14  C   UNL     1      -4.932  -0.234 -30.520  1.00  0.00     0.138 C 
HETATM   15  C   UNL     1      -5.355   2.261 -30.502  1.00  0.00     0.242 C 
HETATM   16  N   UNL     1      -5.060  -0.621 -31.918  1.00  0.00    -0.317 N 
HETATM   17  C   UNL     1      -4.055  -1.471 -32.402  1.00  0.00     0.247 A 
HETATM   18  O   UNL     1      -3.036  -1.753 -31.779  1.00  0.00    -0.268 OA
HETATM   19  C   UNL     1      -4.262  -2.034 -33.757  1.00  0.00     0.074 A 
HETATM   20  C   UNL     1      -5.380  -1.749 -34.434  1.00  0.00     0.007 A 
HETATM   21  C   UNL     1      -6.382  -0.883 -33.868  1.00  0.00     0.026 A 
ENDBRANCH   5   7
ENDBRANCH   2   5
BRANCH   1  22
HETATM   22  C   UNL     1      -3.657   6.690 -31.580  1.00  0.00     0.080 A 
HETATM   23  C   UNL     1      -2.650   7.495 -32.087  1.00  0.00     0.137 A 
HETATM   24  N   UNL     1      -2.800   8.737 -31.518  1.00  0.00    -0.349 N 
HETATM   25  H   UNL     1      -2.206   9.532 -31.715  1.00  0.00     0.166 HD
HETATM   26  C   UNL     1      -3.842   8.739 -30.621  1.00  0.00     0.045 A 
HETATM   27  C   UNL     1      -4.417   7.465 -30.649  1.00  0.00     0.023 A 
HETATM   28  C   UNL     1      -4.299   9.768 -29.787  1.00  0.00     0.033 A 
HETATM   29  C   UNL     1      -5.494   7.208 -29.776  1.00  0.00     0.058 A 
HETATM   30  C   UNL     1      -5.952   8.226 -28.939  1.00  0.00     0.117 A 
HETATM   31  C   UNL     1      -5.371   9.485 -28.938  1.00  0.00     0.044 A 
HETATM   32  F   UNL     1      -6.970   7.972 -28.106  1.00  0.00    -0.206 F 
BRANCH  23  33
HETATM   33  C   UNL     1      -1.648   7.152 -33.066  1.00  0.00     0.312 C 
HETATM   34  O   UNL     1      -1.542   7.708 -34.155  1.00  0.00    -0.258 OA
BRANCH  33  35
HETATM   35  O   UNL     1      -0.843   6.168 -32.586  1.00  0.00    -0.317 OA
BRANCH  35  36
HETATM   36  C   UNL     1      -0.018   6.526 -31.466  1.00  0.00     0.175 C 
HETATM   37  C   UNL     1       0.055   5.374 -30.480  1.00  0.00     0.034 C 
ENDBRANCH  35  36
ENDBRANCH  33  35
ENDBRANCH  23  33
ENDBRANCH   1  22
TORSDOF 6
ENDMDL
