MODEL 1
REMARK VINA RESULT:     -10.5      0.000      0.000
REMARK  6 active torsions:
REMARK  status: ('A' for Active; 'I' for Inactive)
REMARK    1  A    between atoms: C_5  and  N_6 
REMARK    2  A    between atoms: N_6  and  N_7 
REMARK       I    between atoms: N_7  and  C_8 
REMARK    3  A    between atoms: C_8  and  C_9 
REMARK    4  A    between atoms: C_9  and  N_10 
REMARK    5  A    between atoms: N_10  and  C_11 
REMARK    6  A    between atoms: C_13  and  C_14 
ROOT
HETATM    1  C   UNL     1      -4.405   0.837 -32.584  1.00  0.00     0.203 A 
HETATM    2  N   UNL     1      -5.697   1.102 -32.773  1.00  0.00    -0.217 NA
HETATM    3  C   UNL     1      -6.459   0.129 -33.327  1.00  0.00     0.083 A 
HETATM    4  C   UNL     1      -5.935  -1.109 -33.735  1.00  0.00     0.023 A 
HETATM    5  C   UNL     1      -4.573  -1.270 -33.470  1.00  0.00     0.072 A 
HETATM    6  N   UNL     1      -3.822  -0.321 -32.904  1.00  0.00    -0.218 NA
HETATM    7  C   UNL     1      -6.646  -2.155 -34.387  1.00  0.00     0.023 A 
HETATM    8  C   UNL     1      -6.013  -3.349 -34.749  1.00  0.00    -0.061 A 
HETATM    9  C   UNL     1      -6.772  -4.458 -35.416  1.00  0.00     0.048 C 
HETATM   10  C   UNL     1      -4.664  -3.504 -34.445  1.00  0.00     0.009 A 
HETATM   11  C   UNL     1      -3.963  -2.469 -33.820  1.00  0.00     0.033 A 
ENDROOT
BRANCH   1  12
HETATM   12  N   UNL     1      -3.548   1.804 -32.078  1.00  0.00    -0.252 NA
HETATM   13  H   UNL     1      -3.559   1.647 -31.073  1.00  0.00     0.131 HD
BRANCH  12  14
HETATM   14  C   UNL     1      -3.852   3.176 -32.466  1.00  0.00     0.199 C 
BRANCH  14  15
HETATM   15  C   UNL     1      -2.591   3.978 -32.805  1.00  0.00     0.245 C 
HETATM   16  N   UNL     1      -1.912   4.428 -31.678  1.00  0.00    -0.286 N 
HETATM   17  H   UNL     1      -2.042   4.004 -30.765  1.00  0.00     0.184 HD
HETATM   18  O   UNL     1      -2.220   4.243 -33.949  1.00  0.00    -0.271 OA
BRANCH  16  19
HETATM   19  N   UNL     1      -0.657   5.035 -31.883  1.00  0.00    -0.203 NA
HETATM   20  H   UNL     1      -0.747   5.770 -32.603  1.00  0.00     0.153 HD
BRANCH  19  21
HETATM   21  C   UNL     1      -0.115   5.645 -30.718  1.00  0.00     0.027 A 
HETATM   22  C   UNL     1      -0.227   7.037 -30.602  1.00  0.00     0.026 A 
HETATM   23  C   UNL     1       0.217   7.705 -29.456  1.00  0.00     0.008 A 
HETATM   24  C   UNL     1       0.774   6.991 -28.393  1.00  0.00    -0.062 A 
HETATM   25  C   UNL     1       1.210   7.694 -27.142  1.00  0.00     0.048 C 
HETATM   26  C   UNL     1       0.856   5.597 -28.485  1.00  0.00     0.008 A 
HETATM   27  C   UNL     1       0.415   4.932 -29.635  1.00  0.00     0.026 A 
ENDBRANCH  19  21
ENDBRANCH  16  19
ENDBRANCH  14  15
ENDBRANCH  12  14
ENDBRANCH   1  12
BRANCH   3  28
HETATM   28  C   UNL     1      -7.878   0.506 -33.467  1.00  0.00    -0.006 A 
HETATM   29  C   UNL     1      -8.872  -0.186 -32.754  1.00  0.00     0.014 A 
HETATM   30  C   UNL     1     -10.221   0.159 -32.876  1.00  0.00     0.001 A 
HETATM   31  C   UNL     1     -10.600   1.200 -33.719  1.00  0.00     0.000 A 
HETATM   32  C   UNL     1      -9.634   1.888 -34.449  1.00  0.00     0.001 A 
HETATM   33  C   UNL     1      -8.287   1.538 -34.331  1.00  0.00     0.014 A 
ENDBRANCH   3  28
TORSDOF 6
ENDMDL
MODEL 2
REMARK VINA RESULT:     -10.4      0.344      1.285
REMARK  6 active torsions:
REMARK  status: ('A' for Active; 'I' for Inactive)
REMARK    1  A    between atoms: C_5  and  N_6 
REMARK    2  A    between atoms: N_6  and  N_7 
REMARK       I    between atoms: N_7  and  C_8 
REMARK    3  A    between atoms: C_8  and  C_9 
REMARK    4  A    between atoms: C_9  and  N_10 
REMARK    5  A    between atoms: N_10  and  C_11 
REMARK    6  A    between atoms: C_13  and  C_14 
ROOT
HETATM    1  C   UNL     1      -4.757   0.996 -32.321  1.00  0.00     0.203 A 
HETATM    2  N   UNL     1      -6.048   1.213 -32.573  1.00  0.00    -0.217 NA
HETATM    3  C   UNL     1      -6.736   0.227 -33.195  1.00  0.00     0.083 A 
HETATM    4  C   UNL     1      -6.138  -0.976 -33.608  1.00  0.00     0.023 A 
HETATM    5  C   UNL     1      -4.787  -1.088 -33.274  1.00  0.00     0.072 A 
HETATM    6  N   UNL     1      -4.109  -0.126 -32.642  1.00  0.00    -0.218 NA
HETATM    7  C   UNL     1      -6.767  -2.030 -34.327  1.00  0.00     0.023 A 
HETATM    8  C   UNL     1      -6.066  -3.184 -34.688  1.00  0.00    -0.061 A 
HETATM    9  C   UNL     1      -6.739  -4.303 -35.426  1.00  0.00     0.048 C 
HETATM   10  C   UNL     1      -4.730  -3.293 -34.315  1.00  0.00     0.009 A 
HETATM   11  C   UNL     1      -4.108  -2.249 -33.624  1.00  0.00     0.033 A 
ENDROOT
BRANCH   1  12
HETATM   12  N   UNL     1      -3.971   1.983 -31.742  1.00  0.00    -0.252 NA
HETATM   13  H   UNL     1      -4.223   1.956 -30.757  1.00  0.00     0.131 HD
BRANCH  12  14
HETATM   14  C   UNL     1      -4.078   3.305 -32.346  1.00  0.00     0.199 C 
BRANCH  14  15
HETATM   15  C   UNL     1      -2.709   3.950 -32.580  1.00  0.00     0.245 C 
HETATM   16  N   UNL     1      -2.042   4.258 -31.399  1.00  0.00    -0.286 N 
HETATM   17  H   UNL     1      -2.276   3.813 -30.516  1.00  0.00     0.184 HD
HETATM   18  O   UNL     1      -2.243   4.216 -33.689  1.00  0.00    -0.271 OA
BRANCH  16  19
HETATM   19  N   UNL     1      -0.710   4.705 -31.509  1.00  0.00    -0.203 NA
HETATM   20  H   UNL     1      -0.585   5.185 -32.415  1.00  0.00     0.153 HD
BRANCH  19  21
HETATM   21  C   UNL     1      -0.321   5.615 -30.488  1.00  0.00     0.027 A 
HETATM   22  C   UNL     1       0.412   5.105 -29.408  1.00  0.00     0.026 A 
HETATM   23  C   UNL     1       0.892   5.946 -28.398  1.00  0.00     0.008 A 
HETATM   24  C   UNL     1       0.657   7.322 -28.454  1.00  0.00    -0.062 A 
HETATM   25  C   UNL     1       1.208   8.236 -27.400  1.00  0.00     0.048 C 
HETATM   26  C   UNL     1      -0.042   7.844 -29.547  1.00  0.00     0.008 A 
HETATM   27  C   UNL     1      -0.525   6.999 -30.554  1.00  0.00     0.026 A 
ENDBRANCH  19  21
ENDBRANCH  16  19
ENDBRANCH  14  15
ENDBRANCH  12  14
ENDBRANCH   1  12
BRANCH   3  28
HETATM   28  C   UNL     1      -8.161   0.549 -33.402  1.00  0.00    -0.006 A 
HETATM   29  C   UNL     1      -8.535   1.618 -34.235  1.00  0.00     0.014 A 
HETATM   30  C   UNL     1      -9.880   1.934 -34.443  1.00  0.00     0.001 A 
HETATM   31  C   UNL     1     -10.876   1.190 -33.816  1.00  0.00     0.000 A 
HETATM   32  C   UNL     1     -10.528   0.138 -32.973  1.00  0.00     0.001 A 
HETATM   33  C   UNL     1      -9.183  -0.175 -32.761  1.00  0.00     0.014 A 
ENDBRANCH   3  28
TORSDOF 6
ENDMDL
MODEL 3
REMARK VINA RESULT:     -10.1      3.727      7.732
REMARK  6 active torsions:
REMARK  status: ('A' for Active; 'I' for Inactive)
REMARK    1  A    between atoms: C_5  and  N_6 
REMARK    2  A    between atoms: N_6  and  N_7 
REMARK       I    between atoms: N_7  and  C_8 
REMARK    3  A    between atoms: C_8  and  C_9 
REMARK    4  A    between atoms: C_9  and  N_10 
REMARK    5  A    between atoms: N_10  and  C_11 
REMARK    6  A    between atoms: C_13  and  C_14 
ROOT
HETATM    1  C   UNL     1      -6.443   3.520 -30.124  1.00  0.00     0.203 A 
HETATM    2  N   UNL     1      -5.649   4.080 -31.036  1.00  0.00    -0.217 NA
HETATM    3  C   UNL     1      -4.987   3.253 -31.880  1.00  0.00     0.083 A 
HETATM    4  C   UNL     1      -5.079   1.853 -31.801  1.00  0.00     0.023 A 
HETATM    5  C   UNL     1      -5.953   1.390 -30.815  1.00  0.00     0.072 A 
HETATM    6  N   UNL     1      -6.624   2.204 -29.995  1.00  0.00    -0.218 NA
HETATM    7  C   UNL     1      -4.367   0.912 -32.597  1.00  0.00     0.023 A 
HETATM    8  C   UNL     1      -4.540  -0.464 -32.426  1.00  0.00    -0.061 A 
HETATM    9  C   UNL     1      -3.805  -1.452 -33.282  1.00  0.00     0.048 C 
HETATM   10  C   UNL     1      -5.443  -0.905 -31.462  1.00  0.00     0.009 A 
HETATM   11  C   UNL     1      -6.128   0.020 -30.669  1.00  0.00     0.033 A 
ENDROOT
BRANCH   1  12
HETATM   12  N   UNL     1      -7.106   4.299 -29.186  1.00  0.00    -0.252 NA
HETATM   13  H   UNL     1      -7.421   3.632 -28.486  1.00  0.00     0.131 HD
BRANCH  12  14
HETATM   14  C   UNL     1      -8.166   5.150 -29.713  1.00  0.00     0.199 C 
BRANCH  14  15
HETATM   15  C   UNL     1      -9.185   4.363 -30.543  1.00  0.00     0.245 C 
HETATM   16  N   UNL     1      -8.774   4.149 -31.853  1.00  0.00    -0.286 N 
HETATM   17  H   UNL     1      -7.798   4.210 -32.129  1.00  0.00     0.184 HD
HETATM   18  O   UNL     1     -10.280   3.983 -30.125  1.00  0.00    -0.271 OA
BRANCH  16  19
HETATM   19  N   UNL     1      -9.569   3.298 -32.648  1.00  0.00    -0.203 NA
HETATM   20  H   UNL     1      -9.946   3.832 -33.447  1.00  0.00     0.153 HD
BRANCH  19  21
HETATM   21  C   UNL     1      -8.866   2.181 -33.177  1.00  0.00     0.027 A 
HETATM   22  C   UNL     1      -9.271   0.905 -32.764  1.00  0.00     0.026 A 
HETATM   23  C   UNL     1      -8.678  -0.248 -33.291  1.00  0.00     0.008 A 
HETATM   24  C   UNL     1      -7.671  -0.147 -34.254  1.00  0.00    -0.062 A 
HETATM   25  C   UNL     1      -7.063  -1.377 -34.859  1.00  0.00     0.048 C 
HETATM   26  C   UNL     1      -7.287   1.123 -34.698  1.00  0.00     0.008 A 
HETATM   27  C   UNL     1      -7.879   2.274 -34.166  1.00  0.00     0.026 A 
ENDBRANCH  19  21
ENDBRANCH  16  19
ENDBRANCH  14  15
ENDBRANCH  12  14
ENDBRANCH   1  12
BRANCH   3  28
HETATM   28  C   UNL     1      -4.158   3.967 -32.869  1.00  0.00    -0.006 A 
HETATM   29  C   UNL     1      -4.741   4.510 -34.027  1.00  0.00     0.014 A 
HETATM   30  C   UNL     1      -3.970   5.189 -34.974  1.00  0.00     0.001 A 
HETATM   31  C   UNL     1      -2.599   5.332 -34.782  1.00  0.00     0.000 A 
HETATM   32  C   UNL     1      -1.996   4.787 -33.651  1.00  0.00     0.001 A 
HETATM   33  C   UNL     1      -2.767   4.103 -32.708  1.00  0.00     0.014 A 
ENDBRANCH   3  28
TORSDOF 6
ENDMDL
MODEL 4
REMARK VINA RESULT:     -10.0      3.380      5.445
REMARK  6 active torsions:
REMARK  status: ('A' for Active; 'I' for Inactive)
REMARK    1  A    between atoms: C_5  and  N_6 
REMARK    2  A    between atoms: N_6  and  N_7 
REMARK       I    between atoms: N_7  and  C_8 
REMARK    3  A    between atoms: C_8  and  C_9 
REMARK    4  A    between atoms: C_9  and  N_10 
REMARK    5  A    between atoms: N_10  and  C_11 
REMARK    6  A    between atoms: C_13  and  C_14 
ROOT
HETATM    1  C   UNL     1      -4.857   1.072 -32.389  1.00  0.00     0.203 A 
HETATM    2  N   UNL     1      -6.155   1.239 -32.642  1.00  0.00    -0.217 NA
HETATM    3  C   UNL     1      -6.808   0.219 -33.248  1.00  0.00     0.083 A 
HETATM    4  C   UNL     1      -6.168  -0.968 -33.644  1.00  0.00     0.023 A 
HETATM    5  C   UNL     1      -4.813  -1.027 -33.310  1.00  0.00     0.072 A 
HETATM    6  N   UNL     1      -4.169  -0.031 -32.694  1.00  0.00    -0.218 NA
HETATM    7  C   UNL     1      -6.760  -2.055 -34.345  1.00  0.00     0.023 A 
HETATM    8  C   UNL     1      -6.018  -3.189 -34.690  1.00  0.00    -0.061 A 
HETATM    9  C   UNL     1      -6.651  -4.343 -35.409  1.00  0.00     0.048 C 
HETATM   10  C   UNL     1      -4.678  -3.244 -34.316  1.00  0.00     0.009 A 
HETATM   11  C   UNL     1      -4.094  -2.168 -33.643  1.00  0.00     0.033 A 
ENDROOT
BRANCH   1  12
HETATM   12  N   UNL     1      -4.106   2.095 -31.827  1.00  0.00    -0.252 NA
HETATM   13  H   UNL     1      -4.742   2.538 -31.169  1.00  0.00     0.131 HD
BRANCH  12  14
HETATM   14  C   UNL     1      -3.495   3.018 -32.775  1.00  0.00     0.199 C 
BRANCH  14  15
HETATM   15  C   UNL     1      -4.350   4.270 -33.000  1.00  0.00     0.245 C 
HETATM   16  N   UNL     1      -5.424   4.050 -33.856  1.00  0.00    -0.286 N 
HETATM   17  H   UNL     1      -5.787   3.119 -34.037  1.00  0.00     0.184 HD
HETATM   18  O   UNL     1      -4.107   5.376 -32.517  1.00  0.00    -0.271 OA
BRANCH  16  19
HETATM   19  N   UNL     1      -6.358   5.096 -33.998  1.00  0.00    -0.203 NA
HETATM   20  H   UNL     1      -6.470   5.319 -34.999  1.00  0.00     0.153 HD
BRANCH  19  21
HETATM   21  C   UNL     1      -7.648   4.789 -33.483  1.00  0.00     0.027 A 
HETATM   22  C   UNL     1      -7.715   4.136 -32.245  1.00  0.00     0.026 A 
HETATM   23  C   UNL     1      -8.945   3.862 -31.638  1.00  0.00     0.008 A 
HETATM   24  C   UNL     1     -10.138   4.248 -32.253  1.00  0.00    -0.062 A 
HETATM   25  C   UNL     1     -11.459   4.000 -31.587  1.00  0.00     0.048 C 
HETATM   26  C   UNL     1     -10.079   4.933 -33.471  1.00  0.00     0.008 A 
HETATM   27  C   UNL     1      -8.847   5.202 -34.079  1.00  0.00     0.026 A 
ENDBRANCH  19  21
ENDBRANCH  16  19
ENDBRANCH  14  15
ENDBRANCH  12  14
ENDBRANCH   1  12
BRANCH   3  28
HETATM   28  C   UNL     1      -8.243   0.486 -33.458  1.00  0.00    -0.006 A 
HETATM   29  C   UNL     1      -9.208  -0.108 -32.625  1.00  0.00     0.014 A 
HETATM   30  C   UNL     1     -10.571   0.136 -32.810  1.00  0.00     0.001 A 
HETATM   31  C   UNL     1     -10.995   0.974 -33.837  1.00  0.00     0.000 A 
HETATM   32  C   UNL     1     -10.059   1.560 -34.686  1.00  0.00     0.001 A 
HETATM   33  C   UNL     1      -8.696   1.311 -34.504  1.00  0.00     0.014 A 
ENDBRANCH   3  28
TORSDOF 6
ENDMDL
MODEL 5
REMARK VINA RESULT:      -9.6      2.127      4.681
REMARK  6 active torsions:
REMARK  status: ('A' for Active; 'I' for Inactive)
REMARK    1  A    between atoms: C_5  and  N_6 
REMARK    2  A    between atoms: N_6  and  N_7 
REMARK       I    between atoms: N_7  and  C_8 
REMARK    3  A    between atoms: C_8  and  C_9 
REMARK    4  A    between atoms: C_9  and  N_10 
REMARK    5  A    between atoms: N_10  and  C_11 
REMARK    6  A    between atoms: C_13  and  C_14 
ROOT
HETATM    1  C   UNL     1      -6.110   4.261 -33.992  1.00  0.00     0.203 A 
HETATM    2  N   UNL     1      -5.825   2.959 -34.007  1.00  0.00    -0.217 NA
HETATM    3  C   UNL     1      -6.865   2.093 -34.015  1.00  0.00     0.083 A 
HETATM    4  C   UNL     1      -8.206   2.512 -33.969  1.00  0.00     0.023 A 
HETATM    5  C   UNL     1      -8.373   3.899 -33.971  1.00  0.00     0.072 A 
HETATM    6  N   UNL     1      -7.349   4.757 -33.985  1.00  0.00    -0.218 NA
HETATM    7  C   UNL     1      -9.353   1.673 -33.903  1.00  0.00     0.023 A 
HETATM    8  C   UNL     1     -10.644   2.208 -33.859  1.00  0.00    -0.061 A 
HETATM    9  C   UNL     1     -11.851   1.319 -33.812  1.00  0.00     0.048 C 
HETATM   10  C   UNL     1     -10.791   3.591 -33.898  1.00  0.00     0.009 A 
HETATM   11  C   UNL     1      -9.663   4.414 -33.946  1.00  0.00     0.033 A 
ENDROOT
BRANCH   1  12
HETATM   12  N   UNL     1      -5.098   5.209 -33.922  1.00  0.00    -0.252 NA
HETATM   13  H   UNL     1      -5.592   6.095 -33.844  1.00  0.00     0.131 HD
BRANCH  12  14
HETATM   14  C   UNL     1      -4.122   5.166 -35.004  1.00  0.00     0.199 C 
BRANCH  14  15
HETATM   15  C   UNL     1      -2.689   5.373 -34.503  1.00  0.00     0.245 C 
HETATM   16  N   UNL     1      -2.286   6.703 -34.536  1.00  0.00    -0.286 N 
HETATM   17  H   UNL     1      -2.954   7.468 -34.566  1.00  0.00     0.184 HD
HETATM   18  O   UNL     1      -1.939   4.465 -34.143  1.00  0.00    -0.271 OA
BRANCH  16  19
HETATM   19  N   UNL     1      -1.045   7.014 -33.945  1.00  0.00    -0.203 NA
HETATM   20  H   UNL     1      -0.632   7.828 -34.429  1.00  0.00     0.153 HD
BRANCH  19  21
HETATM   21  C   UNL     1      -1.129   7.340 -32.564  1.00  0.00     0.027 A 
HETATM   22  C   UNL     1      -0.178   6.774 -31.704  1.00  0.00     0.026 A 
HETATM   23  C   UNL     1      -0.149   7.098 -30.344  1.00  0.00     0.008 A 
HETATM   24  C   UNL     1      -1.068   8.008 -29.814  1.00  0.00    -0.062 A 
HETATM   25  C   UNL     1      -1.014   8.397 -28.367  1.00  0.00     0.048 C 
HETATM   26  C   UNL     1      -1.997   8.605 -30.673  1.00  0.00     0.008 A 
HETATM   27  C   UNL     1      -2.026   8.276 -32.033  1.00  0.00     0.026 A 
ENDBRANCH  19  21
ENDBRANCH  16  19
ENDBRANCH  14  15
ENDBRANCH  12  14
ENDBRANCH   1  12
BRANCH   3  28
HETATM   28  C   UNL     1      -6.449   0.679 -34.062  1.00  0.00    -0.006 A 
HETATM   29  C   UNL     1      -5.509   0.182 -33.142  1.00  0.00     0.014 A 
HETATM   30  C   UNL     1      -5.106  -1.156 -33.172  1.00  0.00     0.001 A 
HETATM   31  C   UNL     1      -5.631  -2.020 -34.129  1.00  0.00     0.000 A 
HETATM   32  C   UNL     1      -6.551  -1.546 -35.062  1.00  0.00     0.001 A 
HETATM   33  C   UNL     1      -6.949  -0.207 -35.034  1.00  0.00     0.014 A 
ENDBRANCH   3  28
TORSDOF 6
ENDMDL
MODEL 6
REMARK VINA RESULT:      -9.4      2.749      8.634
REMARK  6 active torsions:
REMARK  status: ('A' for Active; 'I' for Inactive)
REMARK    1  A    between atoms: C_5  and  N_6 
REMARK    2  A    between atoms: N_6  and  N_7 
REMARK       I    between atoms: N_7  and  C_8 
REMARK    3  A    between atoms: C_8  and  C_9 
REMARK    4  A    between atoms: C_9  and  N_10 
REMARK    5  A    between atoms: N_10  and  C_11 
REMARK    6  A    between atoms: C_13  and  C_14 
ROOT
HETATM    1  C   UNL     1      -5.669   5.419 -33.269  1.00  0.00     0.203 A 
HETATM    2  N   UNL     1      -5.478   4.161 -32.872  1.00  0.00    -0.217 NA
HETATM    3  C   UNL     1      -4.280   3.858 -32.318  1.00  0.00     0.083 A 
HETATM    4  C   UNL     1      -3.242   4.796 -32.186  1.00  0.00     0.023 A 
HETATM    5  C   UNL     1      -3.571   6.080 -32.626  1.00  0.00     0.072 A 
HETATM    6  N   UNL     1      -4.759   6.389 -33.154  1.00  0.00    -0.218 NA
HETATM    7  C   UNL     1      -1.935   4.546 -31.683  1.00  0.00     0.023 A 
HETATM    8  C   UNL     1      -0.979   5.564 -31.602  1.00  0.00    -0.061 A 
HETATM    9  C   UNL     1       0.390   5.301 -31.050  1.00  0.00     0.048 C 
HETATM   10  C   UNL     1      -1.338   6.845 -32.011  1.00  0.00     0.009 A 
HETATM   11  C   UNL     1      -2.617   7.085 -32.522  1.00  0.00     0.033 A 
ENDROOT
BRANCH   1  12
HETATM   12  N   UNL     1      -6.847   5.792 -33.902  1.00  0.00    -0.252 NA
HETATM   13  H   UNL     1      -6.700   6.769 -34.145  1.00  0.00     0.131 HD
BRANCH  12  14
HETATM   14  C   UNL     1      -8.069   5.545 -33.148  1.00  0.00     0.199 C 
BRANCH  14  15
HETATM   15  C   UNL     1      -8.728   4.214 -33.529  1.00  0.00     0.245 C 
HETATM   16  N   UNL     1      -8.281   3.146 -32.760  1.00  0.00    -0.286 N 
HETATM   17  H   UNL     1      -7.838   3.279 -31.856  1.00  0.00     0.184 HD
HETATM   18  O   UNL     1      -9.540   4.075 -34.444  1.00  0.00    -0.271 OA
BRANCH  16  19
HETATM   19  N   UNL     1      -8.944   1.912 -32.925  1.00  0.00    -0.203 NA
HETATM   20  H   UNL     1      -9.741   2.037 -33.570  1.00  0.00     0.153 HD
BRANCH  19  21
HETATM   21  C   UNL     1      -8.122   0.883 -33.460  1.00  0.00     0.027 A 
HETATM   22  C   UNL     1      -7.516  -0.000 -32.555  1.00  0.00     0.026 A 
HETATM   23  C   UNL     1      -6.750  -1.081 -33.003  1.00  0.00     0.008 A 
HETATM   24  C   UNL     1      -6.581  -1.309 -34.371  1.00  0.00    -0.062 A 
HETATM   25  C   UNL     1      -5.800  -2.492 -34.861  1.00  0.00     0.048 C 
HETATM   26  C   UNL     1      -7.212  -0.453 -35.281  1.00  0.00     0.008 A 
HETATM   27  C   UNL     1      -7.975   0.630 -34.830  1.00  0.00     0.026 A 
ENDBRANCH  19  21
ENDBRANCH  16  19
ENDBRANCH  14  15
ENDBRANCH  12  14
ENDBRANCH   1  12
BRANCH   3  28
HETATM   28  C   UNL     1      -4.175   2.452 -31.883  1.00  0.00    -0.006 A 
HETATM   29  C   UNL     1      -3.491   1.512 -32.673  1.00  0.00     0.014 A 
HETATM   30  C   UNL     1      -3.382   0.177 -32.275  1.00  0.00     0.001 A 
HETATM   31  C   UNL     1      -3.962  -0.243 -31.081  1.00  0.00     0.000 A 
HETATM   32  C   UNL     1      -4.660   0.667 -30.291  1.00  0.00     0.001 A 
HETATM   33  C   UNL     1      -4.773   2.000 -30.693  1.00  0.00     0.014 A 
ENDBRANCH   3  28
TORSDOF 6
ENDMDL
MODEL 7
REMARK VINA RESULT:      -9.4      2.646      3.691
REMARK  6 active torsions:
REMARK  status: ('A' for Active; 'I' for Inactive)
REMARK    1  A    between atoms: C_5  and  N_6 
REMARK    2  A    between atoms: N_6  and  N_7 
REMARK       I    between atoms: N_7  and  C_8 
REMARK    3  A    between atoms: C_8  and  C_9 
REMARK    4  A    between atoms: C_9  and  N_10 
REMARK    5  A    between atoms: N_10  and  C_11 
REMARK    6  A    between atoms: C_13  and  C_14 
ROOT
HETATM    1  C   UNL     1      -6.400   1.409 -30.509  1.00  0.00     0.203 A 
HETATM    2  N   UNL     1      -7.549   1.489 -31.181  1.00  0.00    -0.217 NA
HETATM    3  C   UNL     1      -7.721   0.643 -32.224  1.00  0.00     0.083 A 
HETATM    4  C   UNL     1      -6.734  -0.268 -32.637  1.00  0.00     0.023 A 
HETATM    5  C   UNL     1      -5.583  -0.265 -31.845  1.00  0.00     0.072 A 
HETATM    6  N   UNL     1      -5.418   0.553 -30.801  1.00  0.00    -0.218 NA
HETATM    7  C   UNL     1      -6.803  -1.139 -33.760  1.00  0.00     0.023 A 
HETATM    8  C   UNL     1      -5.752  -2.005 -34.075  1.00  0.00    -0.061 A 
HETATM    9  C   UNL     1      -5.838  -2.938 -35.246  1.00  0.00     0.048 C 
HETATM   10  C   UNL     1      -4.629  -2.013 -33.252  1.00  0.00     0.009 A 
HETATM   11  C   UNL     1      -4.555  -1.144 -32.160  1.00  0.00     0.033 A 
ENDROOT
BRANCH   1  12
HETATM   12  N   UNL     1      -6.125   2.284 -29.467  1.00  0.00    -0.252 NA
HETATM   13  H   UNL     1      -6.161   1.699 -28.635  1.00  0.00     0.131 HD
BRANCH  12  14
HETATM   14  C   UNL     1      -6.976   3.465 -29.399  1.00  0.00     0.199 C 
BRANCH  14  15
HETATM   15  C   UNL     1      -6.198   4.758 -29.667  1.00  0.00     0.245 C 
HETATM   16  N   UNL     1      -4.823   4.604 -29.536  1.00  0.00    -0.286 N 
HETATM   17  H   UNL     1      -4.374   3.694 -29.588  1.00  0.00     0.184 HD
HETATM   18  O   UNL     1      -6.719   5.842 -29.932  1.00  0.00    -0.271 OA
BRANCH  16  19
HETATM   19  N   UNL     1      -4.014   5.693 -29.919  1.00  0.00    -0.203 NA
HETATM   20  H   UNL     1      -3.307   5.867 -29.187  1.00  0.00     0.153 HD
BRANCH  19  21
HETATM   21  C   UNL     1      -3.317   5.491 -31.143  1.00  0.00     0.027 A 
HETATM   22  C   UNL     1      -4.025   5.700 -32.335  1.00  0.00     0.026 A 
HETATM   23  C   UNL     1      -3.394   5.592 -33.578  1.00  0.00     0.008 A 
HETATM   24  C   UNL     1      -2.034   5.280 -33.656  1.00  0.00    -0.062 A 
HETATM   25  C   UNL     1      -1.340   5.207 -34.983  1.00  0.00     0.048 C 
HETATM   26  C   UNL     1      -1.313   5.106 -32.470  1.00  0.00     0.008 A 
HETATM   27  C   UNL     1      -1.948   5.212 -31.227  1.00  0.00     0.026 A 
ENDBRANCH  19  21
ENDBRANCH  16  19
ENDBRANCH  14  15
ENDBRANCH  12  14
ENDBRANCH   1  12
BRANCH   3  28
HETATM   28  C   UNL     1      -9.032   0.786 -32.883  1.00  0.00    -0.006 A 
HETATM   29  C   UNL     1      -9.271   1.851 -33.770  1.00  0.00     0.014 A 
HETATM   30  C   UNL     1     -10.508   2.000 -34.404  1.00  0.00     0.001 A 
HETATM   31  C   UNL     1     -11.531   1.089 -34.156  1.00  0.00     0.000 A 
HETATM   32  C   UNL     1     -11.323   0.036 -33.268  1.00  0.00     0.001 A 
HETATM   33  C   UNL     1     -10.088  -0.108 -32.631  1.00  0.00     0.014 A 
ENDBRANCH   3  28
TORSDOF 6
ENDMDL
MODEL 8
REMARK VINA RESULT:      -9.3      1.817      2.285
REMARK  6 active torsions:
REMARK  status: ('A' for Active; 'I' for Inactive)
REMARK    1  A    between atoms: C_5  and  N_6 
REMARK    2  A    between atoms: N_6  and  N_7 
REMARK       I    between atoms: N_7  and  C_8 
REMARK    3  A    between atoms: C_8  and  C_9 
REMARK    4  A    between atoms: C_9  and  N_10 
REMARK    5  A    between atoms: N_10  and  C_11 
REMARK    6  A    between atoms: C_13  and  C_14 
ROOT
HETATM    1  C   UNL     1      -5.499   2.062 -32.501  1.00  0.00     0.203 A 
HETATM    2  N   UNL     1      -6.809   1.999 -32.740  1.00  0.00    -0.217 NA
HETATM    3  C   UNL     1      -7.296   0.838 -33.239  1.00  0.00     0.083 A 
HETATM    4  C   UNL     1      -6.478  -0.263 -33.543  1.00  0.00     0.023 A 
HETATM    5  C   UNL     1      -5.128  -0.077 -33.235  1.00  0.00     0.072 A 
HETATM    6  N   UNL     1      -4.647   1.059 -32.723  1.00  0.00    -0.218 NA
HETATM    7  C   UNL     1      -6.895  -1.489 -34.133  1.00  0.00     0.023 A 
HETATM    8  C   UNL     1      -5.984  -2.518 -34.393  1.00  0.00    -0.061 A 
HETATM    9  C   UNL     1      -6.432  -3.817 -34.994  1.00  0.00     0.048 C 
HETATM   10  C   UNL     1      -4.650  -2.327 -34.046  1.00  0.00     0.009 A 
HETATM   11  C   UNL     1      -4.240  -1.116 -33.482  1.00  0.00     0.033 A 
ENDROOT
BRANCH   1  12
HETATM   12  N   UNL     1      -4.916   3.238 -32.048  1.00  0.00    -0.252 NA
HETATM   13  H   UNL     1      -3.937   3.146 -32.306  1.00  0.00     0.131 HD
BRANCH  12  14
HETATM   14  C   UNL     1      -5.132   3.542 -30.639  1.00  0.00     0.199 C 
BRANCH  14  15
HETATM   15  C   UNL     1      -4.960   5.033 -30.333  1.00  0.00     0.245 C 
HETATM   16  N   UNL     1      -3.653   5.477 -30.498  1.00  0.00    -0.286 N 
HETATM   17  H   UNL     1      -2.979   4.970 -31.064  1.00  0.00     0.184 HD
HETATM   18  O   UNL     1      -5.863   5.773 -29.940  1.00  0.00    -0.271 OA
BRANCH  16  19
HETATM   19  N   UNL     1      -3.426   6.864 -30.397  1.00  0.00    -0.203 NA
HETATM   20  H   UNL     1      -4.213   7.303 -29.892  1.00  0.00     0.153 HD
BRANCH  19  21
HETATM   21  C   UNL     1      -2.233   7.204 -29.703  1.00  0.00     0.027 A 
HETATM   22  C   UNL     1      -1.014   6.974 -30.355  1.00  0.00     0.026 A 
HETATM   23  C   UNL     1       0.201   7.345 -29.770  1.00  0.00     0.008 A 
HETATM   24  C   UNL     1       0.222   7.966 -28.518  1.00  0.00    -0.062 A 
HETATM   25  C   UNL     1       1.516   8.410 -27.904  1.00  0.00     0.048 C 
HETATM   26  C   UNL     1      -0.993   8.233 -27.877  1.00  0.00     0.008 A 
HETATM   27  C   UNL     1      -2.207   7.856 -28.464  1.00  0.00     0.026 A 
ENDBRANCH  19  21
ENDBRANCH  16  19
ENDBRANCH  14  15
ENDBRANCH  12  14
ENDBRANCH   1  12
BRANCH   3  28
HETATM   28  C   UNL     1      -8.757   0.855 -33.440  1.00  0.00    -0.006 A 
HETATM   29  C   UNL     1      -9.353   1.840 -34.247  1.00  0.00     0.014 A 
HETATM   30  C   UNL     1     -10.736   1.869 -34.449  1.00  0.00     0.001 A 
HETATM   31  C   UNL     1     -11.548   0.916 -33.841  1.00  0.00     0.000 A 
HETATM   32  C   UNL     1     -10.982  -0.058 -33.023  1.00  0.00     0.001 A 
HETATM   33  C   UNL     1      -9.600  -0.083 -32.818  1.00  0.00     0.014 A 
ENDBRANCH   3  28
TORSDOF 6
ENDMDL
MODEL 9
REMARK VINA RESULT:      -9.2      4.213      6.468
REMARK  6 active torsions:
REMARK  status: ('A' for Active; 'I' for Inactive)
REMARK    1  A    between atoms: C_5  and  N_6 
REMARK    2  A    between atoms: N_6  and  N_7 
REMARK       I    between atoms: N_7  and  C_8 
REMARK    3  A    between atoms: C_8  and  C_9 
REMARK    4  A    between atoms: C_9  and  N_10 
REMARK    5  A    between atoms: N_10  and  C_11 
REMARK    6  A    between atoms: C_13  and  C_14 
ROOT
HETATM    1  C   UNL     1      -9.396   4.442 -34.315  1.00  0.00     0.203 A 
HETATM    2  N   UNL     1      -8.613   3.370 -34.196  1.00  0.00    -0.217 NA
HETATM    3  C   UNL     1      -9.219   2.165 -34.076  1.00  0.00     0.083 A 
HETATM    4  C   UNL     1     -10.616   2.017 -34.034  1.00  0.00     0.023 A 
HETATM    5  C   UNL     1     -11.324   3.211 -34.182  1.00  0.00     0.072 A 
HETATM    6  N   UNL     1     -10.730   4.399 -34.322  1.00  0.00    -0.218 NA
HETATM    7  C   UNL     1     -11.332   0.802 -33.839  1.00  0.00     0.023 A 
HETATM    8  C   UNL     1     -12.730   0.778 -33.813  1.00  0.00    -0.061 A 
HETATM    9  C   UNL     1     -13.481  -0.507 -33.630  1.00  0.00     0.048 C 
HETATM   10  C   UNL     1     -13.418   1.973 -33.999  1.00  0.00     0.009 A 
HETATM   11  C   UNL     1     -12.713   3.168 -34.172  1.00  0.00     0.033 A 
ENDROOT
BRANCH   1  12
HETATM   12  N   UNL     1      -8.849   5.716 -34.381  1.00  0.00    -0.252 NA
HETATM   13  H   UNL     1      -7.900   5.563 -34.714  1.00  0.00     0.131 HD
BRANCH  12  14
HETATM   14  C   UNL     1      -8.928   6.497 -33.153  1.00  0.00     0.199 C 
BRANCH  14  15
HETATM   15  C   UNL     1      -7.609   6.489 -32.372  1.00  0.00     0.245 C 
HETATM   16  N   UNL     1      -7.043   5.223 -32.272  1.00  0.00    -0.286 N 
HETATM   17  H   UNL     1      -7.289   4.470 -32.908  1.00  0.00     0.184 HD
HETATM   18  O   UNL     1      -7.105   7.481 -31.845  1.00  0.00    -0.271 OA
BRANCH  16  19
HETATM   19  N   UNL     1      -5.752   5.137 -31.713  1.00  0.00    -0.203 NA
HETATM   20  H   UNL     1      -5.753   5.585 -30.782  1.00  0.00     0.153 HD
BRANCH  19  21
HETATM   21  C   UNL     1      -5.285   3.805 -31.544  1.00  0.00     0.027 A 
HETATM   22  C   UNL     1      -4.411   3.295 -32.514  1.00  0.00     0.026 A 
HETATM   23  C   UNL     1      -3.851   2.020 -32.384  1.00  0.00     0.008 A 
HETATM   24  C   UNL     1      -4.146   1.229 -31.271  1.00  0.00    -0.062 A 
HETATM   25  C   UNL     1      -3.514  -0.121 -31.101  1.00  0.00     0.048 C 
HETATM   26  C   UNL     1      -4.989   1.744 -30.280  1.00  0.00     0.008 A 
HETATM   27  C   UNL     1      -5.551   3.019 -30.415  1.00  0.00     0.026 A 
ENDBRANCH  19  21
ENDBRANCH  16  19
ENDBRANCH  14  15
ENDBRANCH  12  14
ENDBRANCH   1  12
BRANCH   3  28
HETATM   28  C   UNL     1      -8.271   1.039 -33.981  1.00  0.00    -0.006 A 
HETATM   29  C   UNL     1      -7.790   0.617 -32.729  1.00  0.00     0.014 A 
HETATM   30  C   UNL     1      -6.893  -0.449 -32.622  1.00  0.00     0.001 A 
HETATM   31  C   UNL     1      -6.454  -1.108 -33.768  1.00  0.00     0.000 A 
HETATM   32  C   UNL     1      -6.903  -0.695 -35.020  1.00  0.00     0.001 A 
HETATM   33  C   UNL     1      -7.797   0.374 -35.126  1.00  0.00     0.014 A 
ENDBRANCH   3  28
TORSDOF 6
ENDMDL
MODEL 10
REMARK VINA RESULT:      -9.2      3.951      5.329
REMARK  6 active torsions:
REMARK  status: ('A' for Active; 'I' for Inactive)
REMARK    1  A    between atoms: C_5  and  N_6 
REMARK    2  A    between atoms: N_6  and  N_7 
REMARK       I    between atoms: N_7  and  C_8 
REMARK    3  A    between atoms: C_8  and  C_9 
REMARK    4  A    between atoms: C_9  and  N_10 
REMARK    5  A    between atoms: N_10  and  C_11 
REMARK    6  A    between atoms: C_13  and  C_14 
ROOT
HETATM    1  C   UNL     1      -8.165   4.119 -33.958  1.00  0.00     0.203 A 
HETATM    2  N   UNL     1      -9.380   3.584 -34.072  1.00  0.00    -0.217 NA
HETATM    3  C   UNL     1      -9.464   2.235 -34.147  1.00  0.00     0.083 A 
HETATM    4  C   UNL     1      -8.332   1.401 -34.148  1.00  0.00     0.023 A 
HETATM    5  C   UNL     1      -7.120   2.080 -34.009  1.00  0.00     0.072 A 
HETATM    6  N   UNL     1      -7.035   3.410 -33.914  1.00  0.00    -0.218 NA
HETATM    7  C   UNL     1      -8.325  -0.014 -34.293  1.00  0.00     0.023 A 
HETATM    8  C   UNL     1      -7.131  -0.741 -34.281  1.00  0.00    -0.061 A 
HETATM    9  C   UNL     1      -7.129  -2.235 -34.412  1.00  0.00     0.048 C 
HETATM   10  C   UNL     1      -5.936  -0.050 -34.106  1.00  0.00     0.009 A 
HETATM   11  C   UNL     1      -5.943   1.342 -33.981  1.00  0.00     0.033 A 
ENDROOT
BRANCH   1  12
HETATM   12  N   UNL     1      -7.994   5.496 -33.938  1.00  0.00    -0.252 NA
HETATM   13  H   UNL     1      -7.095   5.643 -34.391  1.00  0.00     0.131 HD
BRANCH  12  14
HETATM   14  C   UNL     1      -8.107   6.123 -32.627  1.00  0.00     0.199 C 
BRANCH  14  15
HETATM   15  C   UNL     1      -7.729   5.167 -31.491  1.00  0.00     0.245 C 
HETATM   16  N   UNL     1      -6.355   5.031 -31.327  1.00  0.00    -0.286 N 
HETATM   17  H   UNL     1      -5.698   5.720 -31.682  1.00  0.00     0.184 HD
HETATM   18  O   UNL     1      -8.540   4.542 -30.807  1.00  0.00    -0.271 OA
BRANCH  16  19
HETATM   19  N   UNL     1      -5.909   4.301 -30.207  1.00  0.00    -0.203 NA
HETATM   20  H   UNL     1      -6.709   4.111 -29.583  1.00  0.00     0.153 HD
BRANCH  19  21
HETATM   21  C   UNL     1      -5.316   3.051 -30.533  1.00  0.00     0.027 A 
HETATM   22  C   UNL     1      -4.066   3.070 -31.165  1.00  0.00     0.026 A 
HETATM   23  C   UNL     1      -3.384   1.884 -31.455  1.00  0.00     0.008 A 
HETATM   24  C   UNL     1      -3.936   0.648 -31.108  1.00  0.00    -0.062 A 
HETATM   25  C   UNL     1      -3.190  -0.626 -31.373  1.00  0.00     0.048 C 
HETATM   26  C   UNL     1      -5.166   0.622 -30.443  1.00  0.00     0.008 A 
HETATM   27  C   UNL     1      -5.848   1.811 -30.158  1.00  0.00     0.026 A 
ENDBRANCH  19  21
ENDBRANCH  16  19
ENDBRANCH  14  15
ENDBRANCH  12  14
ENDBRANCH   1  12
BRANCH   3  28
HETATM   28  C   UNL     1     -10.849   1.739 -34.241  1.00  0.00    -0.006 A 
HETATM   29  C   UNL     1     -11.771   2.357 -35.104  1.00  0.00     0.014 A 
HETATM   30  C   UNL     1     -13.087   1.898 -35.204  1.00  0.00     0.001 A 
HETATM   31  C   UNL     1     -13.507   0.814 -34.438  1.00  0.00     0.000 A 
HETATM   32  C   UNL     1     -12.616   0.197 -33.562  1.00  0.00     0.001 A 
HETATM   33  C   UNL     1     -11.302   0.660 -33.458  1.00  0.00     0.014 A 
ENDBRANCH   3  28
TORSDOF 6
ENDMDL
