MODEL 1
REMARK VINA RESULT:      -9.0      0.000      0.000
REMARK  6 active torsions:
REMARK  status: ('A' for Active; 'I' for Inactive)
REMARK    1  A    between atoms: C_2  and  O_3 
REMARK    2  A    between atoms: C_2  and  C_4 
REMARK    3  A    between atoms: C_7  and  N_8 
REMARK       I    between atoms: N_8  and  C_9 
REMARK    4  A    between atoms: C_9  and  C_10 
REMARK    5  A    between atoms: C_13  and  C_14 
REMARK    6  A    between atoms: C_19  and  C_20 
ROOT
HETATM    1  C   UNL     1      -9.266   2.144 -33.094  1.00  0.00     0.096 C 
HETATM    2  C   UNL     1     -10.278   2.393 -34.002  1.00  0.00     0.138 C 
HETATM    3  N   UNL     1     -10.600   3.723 -33.851  1.00  0.00    -0.240 N 
HETATM    4  C   UNL     1     -11.649   4.408 -34.588  1.00  0.00     0.221 C 
HETATM    5  C   UNL     1     -12.128   3.547 -35.773  1.00  0.00     0.068 C 
HETATM    6  C   UNL     1     -12.267   2.072 -35.372  1.00  0.00     0.143 C 
HETATM    7  N   UNL     1     -10.952   1.605 -34.887  1.00  0.00    -0.363 N 
HETATM    8  N   UNL     1      -9.997   4.300 -32.800  1.00  0.00    -0.181 NA
HETATM    9  C   UNL     1      -9.167   3.350 -32.360  1.00  0.00     0.160 C 
HETATM   10  H   UNL     1     -10.957   0.596 -34.718  1.00  0.00     0.162 HD
ENDROOT
BRANCH   1  11
HETATM   11  C   UNL     1      -8.494   0.934 -32.870  1.00  0.00     0.261 C 
HETATM   12  N   UNL     1      -7.701   0.582 -33.946  1.00  0.00    -0.323 N 
HETATM   13  H   UNL     1      -7.680   1.251 -34.709  1.00  0.00     0.169 HD
HETATM   14  O   UNL     1      -8.545   0.359 -31.789  1.00  0.00    -0.267 OA
BRANCH  12  15
HETATM   15  C   UNL     1      -6.803  -0.501 -34.029  1.00  0.00     0.035 A 
HETATM   16  C   UNL     1      -7.113  -1.724 -34.622  1.00  0.00     0.030 A 
HETATM   17  C   UNL     1      -6.177  -2.766 -34.638  1.00  0.00     0.012 A 
HETATM   18  C   UNL     1      -4.911  -2.606 -34.061  1.00  0.00    -0.030 A 
HETATM   19  C   UNL     1      -4.598  -1.371 -33.480  1.00  0.00     0.012 A 
HETATM   20  C   UNL     1      -5.531  -0.326 -33.473  1.00  0.00     0.030 A 
BRANCH  18  21
HETATM   21  C   UNL     1      -3.944  -3.770 -34.039  1.00  0.00     0.147 C 
HETATM   22  C   UNL     1      -4.666  -5.093 -34.270  1.00  0.00     0.044 C 
BRANCH  21  23
HETATM   23  O   UNL     1      -3.257  -3.826 -32.790  1.00  0.00    -0.391 OA
HETATM   24  H   UNL     1      -3.913  -3.636 -32.098  1.00  0.00     0.210 HD
ENDBRANCH  21  23
ENDBRANCH  18  21
ENDBRANCH  12  15
ENDBRANCH   1  11
BRANCH   4  25
HETATM   25  C   UNL     1     -11.178   5.752 -35.099  1.00  0.00     0.409 C 
HETATM   26  F   UNL     1      -9.970   5.677 -35.703  1.00  0.00    -0.169 F 
HETATM   27  F   UNL     1     -12.049   6.215 -36.037  1.00  0.00    -0.169 F 
HETATM   28  F   UNL     1     -11.115   6.704 -34.147  1.00  0.00    -0.169 F 
ENDBRANCH   4  25
BRANCH   6  29
HETATM   29  C   UNL     1     -13.408   1.865 -34.418  1.00  0.00     0.075 A 
HETATM   30  O   UNL     1     -14.433   1.080 -34.865  1.00  0.00    -0.325 OA
HETATM   31  C   UNL     1     -15.365   1.041 -33.878  1.00  0.00     0.142 A 
HETATM   32  C   UNL     1     -14.954   1.785 -32.799  1.00  0.00     0.027 A 
HETATM   33  C   UNL     1     -13.689   2.316 -33.144  1.00  0.00     0.037 A 
ENDBRANCH   6  29
TORSDOF 6
ENDMDL
MODEL 2
REMARK VINA RESULT:      -8.9      5.432      7.878
REMARK  6 active torsions:
REMARK  status: ('A' for Active; 'I' for Inactive)
REMARK    1  A    between atoms: C_2  and  O_3 
REMARK    2  A    between atoms: C_2  and  C_4 
REMARK    3  A    between atoms: C_7  and  N_8 
REMARK       I    between atoms: N_8  and  C_9 
REMARK    4  A    between atoms: C_9  and  C_10 
REMARK    5  A    between atoms: C_13  and  C_14 
REMARK    6  A    between atoms: C_19  and  C_20 
ROOT
HETATM    1  C   UNL     1      -5.582   3.167 -31.449  1.00  0.00     0.096 C 
HETATM    2  C   UNL     1      -4.412   3.858 -31.198  1.00  0.00     0.138 C 
HETATM    3  N   UNL     1      -4.784   5.169 -31.000  1.00  0.00    -0.240 N 
HETATM    4  C   UNL     1      -3.860   6.261 -30.740  1.00  0.00     0.221 C 
HETATM    5  C   UNL     1      -2.460   5.714 -30.398  1.00  0.00     0.068 C 
HETATM    6  C   UNL     1      -2.077   4.545 -31.316  1.00  0.00     0.143 C 
HETATM    7  N   UNL     1      -3.099   3.490 -31.162  1.00  0.00    -0.363 N 
HETATM    8  N   UNL     1      -6.077   5.401 -31.277  1.00  0.00    -0.181 NA
HETATM    9  C   UNL     1      -6.565   4.183 -31.521  1.00  0.00     0.160 C 
HETATM   10  H   UNL     1      -2.830   2.638 -31.661  1.00  0.00     0.162 HD
ENDROOT
BRANCH   1  11
HETATM   11  C   UNL     1      -5.796   1.745 -31.652  1.00  0.00     0.261 C 
HETATM   12  N   UNL     1      -5.271   1.275 -32.841  1.00  0.00    -0.323 N 
HETATM   13  H   UNL     1      -4.725   1.946 -33.372  1.00  0.00     0.169 HD
HETATM   14  O   UNL     1      -6.349   1.073 -30.789  1.00  0.00    -0.267 OA
BRANCH  12  15
HETATM   15  C   UNL     1      -5.266  -0.055 -33.308  1.00  0.00     0.035 A 
HETATM   16  C   UNL     1      -4.211  -0.944 -33.110  1.00  0.00     0.030 A 
HETATM   17  C   UNL     1      -4.267  -2.242 -33.634  1.00  0.00     0.012 A 
HETATM   18  C   UNL     1      -5.379  -2.678 -34.365  1.00  0.00    -0.030 A 
HETATM   19  C   UNL     1      -6.442  -1.786 -34.548  1.00  0.00     0.012 A 
HETATM   20  C   UNL     1      -6.391  -0.492 -34.017  1.00  0.00     0.030 A 
BRANCH  18  21
HETATM   21  C   UNL     1      -5.382  -4.066 -34.970  1.00  0.00     0.147 C 
HETATM   22  C   UNL     1      -6.802  -4.542 -35.255  1.00  0.00     0.044 C 
BRANCH  21  23
HETATM   23  O   UNL     1      -4.747  -4.995 -34.092  1.00  0.00    -0.391 OA
HETATM   24  H   UNL     1      -5.063  -5.880 -34.340  1.00  0.00     0.210 HD
ENDBRANCH  21  23
ENDBRANCH  18  21
ENDBRANCH  12  15
ENDBRANCH   1  11
BRANCH   4  25
HETATM   25  C   UNL     1      -4.348   7.141 -29.611  1.00  0.00     0.409 C 
HETATM   26  F   UNL     1      -4.940   6.429 -28.625  1.00  0.00    -0.169 F 
HETATM   27  F   UNL     1      -3.291   7.781 -29.041  1.00  0.00    -0.169 F 
HETATM   28  F   UNL     1      -5.202   8.108 -30.004  1.00  0.00    -0.169 F 
ENDBRANCH   4  25
BRANCH   6  29
HETATM   29  C   UNL     1      -1.842   5.005 -32.726  1.00  0.00     0.075 A 
HETATM   30  O   UNL     1      -1.153   6.176 -32.872  1.00  0.00    -0.325 OA
HETATM   31  C   UNL     1      -1.070   6.426 -34.204  1.00  0.00     0.142 A 
HETATM   32  C   UNL     1      -1.692   5.432 -34.920  1.00  0.00     0.027 A 
HETATM   33  C   UNL     1      -2.189   4.511 -33.967  1.00  0.00     0.037 A 
ENDBRANCH   6  29
TORSDOF 6
ENDMDL
MODEL 3
REMARK VINA RESULT:      -8.7      4.487      7.015
REMARK  6 active torsions:
REMARK  status: ('A' for Active; 'I' for Inactive)
REMARK    1  A    between atoms: C_2  and  O_3 
REMARK    2  A    between atoms: C_2  and  C_4 
REMARK    3  A    between atoms: C_7  and  N_8 
REMARK       I    between atoms: N_8  and  C_9 
REMARK    4  A    between atoms: C_9  and  C_10 
REMARK    5  A    between atoms: C_13  and  C_14 
REMARK    6  A    between atoms: C_19  and  C_20 
ROOT
HETATM    1  C   UNL     1      -6.463   3.243 -32.670  1.00  0.00     0.096 C 
HETATM    2  C   UNL     1      -5.536   4.114 -32.131  1.00  0.00     0.138 C 
HETATM    3  N   UNL     1      -5.986   5.380 -32.436  1.00  0.00    -0.240 N 
HETATM    4  C   UNL     1      -5.293   6.610 -32.090  1.00  0.00     0.221 C 
HETATM    5  C   UNL     1      -4.171   6.329 -31.071  1.00  0.00     0.068 C 
HETATM    6  C   UNL     1      -3.400   5.050 -31.426  1.00  0.00     0.143 C 
HETATM    7  N   UNL     1      -4.363   3.931 -31.460  1.00  0.00    -0.363 N 
HETATM    8  N   UNL     1      -7.033   5.382 -33.276  1.00  0.00    -0.181 NA
HETATM    9  C   UNL     1      -7.339   4.088 -33.394  1.00  0.00     0.160 C 
HETATM   10  H   UNL     1      -3.884   3.034 -31.575  1.00  0.00     0.162 HD
ENDROOT
BRANCH   1  11
HETATM   11  C   UNL     1      -6.536   1.795 -32.589  1.00  0.00     0.261 C 
HETATM   12  N   UNL     1      -6.129   1.159 -33.747  1.00  0.00    -0.323 N 
HETATM   13  H   UNL     1      -5.745   1.764 -34.465  1.00  0.00     0.169 HD
HETATM   14  O   UNL     1      -6.880   1.251 -31.546  1.00  0.00    -0.267 OA
BRANCH  12  15
HETATM   15  C   UNL     1      -6.035  -0.229 -33.972  1.00  0.00     0.035 A 
HETATM   16  C   UNL     1      -7.072  -1.005 -34.487  1.00  0.00     0.030 A 
HETATM   17  C   UNL     1      -6.913  -2.387 -34.654  1.00  0.00     0.012 A 
HETATM   18  C   UNL     1      -5.713  -3.021 -34.310  1.00  0.00    -0.030 A 
HETATM   19  C   UNL     1      -4.668  -2.235 -33.807  1.00  0.00     0.012 A 
HETATM   20  C   UNL     1      -4.824  -0.853 -33.649  1.00  0.00     0.030 A 
BRANCH  18  21
HETATM   21  C   UNL     1      -5.593  -4.524 -34.443  1.00  0.00     0.147 C 
HETATM   22  C   UNL     1      -4.157  -4.986 -34.227  1.00  0.00     0.044 C 
BRANCH  21  23
HETATM   23  O   UNL     1      -6.030  -4.947 -35.734  1.00  0.00    -0.391 OA
HETATM   24  H   UNL     1      -5.724  -4.278 -36.369  1.00  0.00     0.210 HD
ENDBRANCH  21  23
ENDBRANCH  18  21
ENDBRANCH  12  15
ENDBRANCH   1  11
BRANCH   4  25
HETATM   25  C   UNL     1      -6.244   7.640 -31.522  1.00  0.00     0.409 C 
HETATM   26  F   UNL     1      -7.094   7.108 -30.615  1.00  0.00    -0.169 F 
HETATM   27  F   UNL     1      -5.538   8.602 -30.869  1.00  0.00    -0.169 F 
HETATM   28  F   UNL     1      -6.973   8.281 -32.458  1.00  0.00    -0.169 F 
ENDBRANCH   4  25
BRANCH   6  29
HETATM   29  C   UNL     1      -2.583   5.228 -32.674  1.00  0.00     0.075 A 
HETATM   30  O   UNL     1      -1.936   6.424 -32.807  1.00  0.00    -0.325 OA
HETATM   31  C   UNL     1      -1.284   6.394 -33.998  1.00  0.00     0.142 A 
HETATM   32  C   UNL     1      -1.497   5.195 -34.633  1.00  0.00     0.027 A 
HETATM   33  C   UNL     1      -2.334   4.439 -33.778  1.00  0.00     0.037 A 
ENDBRANCH   6  29
TORSDOF 6
ENDMDL
MODEL 4
REMARK VINA RESULT:      -8.4      3.714      8.336
REMARK  6 active torsions:
REMARK  status: ('A' for Active; 'I' for Inactive)
REMARK    1  A    between atoms: C_2  and  O_3 
REMARK    2  A    between atoms: C_2  and  C_4 
REMARK    3  A    between atoms: C_7  and  N_8 
REMARK       I    between atoms: N_8  and  C_9 
REMARK    4  A    between atoms: C_9  and  C_10 
REMARK    5  A    between atoms: C_13  and  C_14 
REMARK    6  A    between atoms: C_19  and  C_20 
ROOT
HETATM    1  C   UNL     1      -7.021   3.487 -33.205  1.00  0.00     0.096 C 
HETATM    2  C   UNL     1      -6.062   2.886 -32.412  1.00  0.00     0.138 C 
HETATM    3  N   UNL     1      -4.848   3.329 -32.889  1.00  0.00    -0.240 N 
HETATM    4  C   UNL     1      -3.555   2.917 -32.368  1.00  0.00     0.221 C 
HETATM    5  C   UNL     1      -3.724   2.184 -31.022  1.00  0.00     0.068 C 
HETATM    6  C   UNL     1      -4.915   1.217 -31.058  1.00  0.00     0.143 C 
HETATM    7  N   UNL     1      -6.127   1.998 -31.379  1.00  0.00    -0.363 N 
HETATM    8  N   UNL     1      -4.949   4.025 -34.033  1.00  0.00    -0.181 NA
HETATM    9  C   UNL     1      -6.268   4.144 -34.207  1.00  0.00     0.160 C 
HETATM   10  H   UNL     1      -6.970   1.423 -31.299  1.00  0.00     0.162 HD
ENDROOT
BRANCH   1  11
HETATM   11  C   UNL     1      -8.470   3.441 -33.108  1.00  0.00     0.261 C 
HETATM   12  N   UNL     1      -9.051   2.550 -33.990  1.00  0.00    -0.323 N 
HETATM   13  H   UNL     1      -8.403   1.976 -34.520  1.00  0.00     0.169 HD
HETATM   14  O   UNL     1      -9.055   4.113 -32.267  1.00  0.00    -0.267 OA
BRANCH  12  15
HETATM   15  C   UNL     1     -10.419   2.236 -34.112  1.00  0.00     0.035 A 
HETATM   16  C   UNL     1     -11.350   3.052 -34.754  1.00  0.00     0.030 A 
HETATM   17  C   UNL     1     -12.701   2.687 -34.807  1.00  0.00     0.012 A 
HETATM   18  C   UNL     1     -13.150   1.497 -34.219  1.00  0.00    -0.030 A 
HETATM   19  C   UNL     1     -12.210   0.674 -33.588  1.00  0.00     0.012 A 
HETATM   20  C   UNL     1     -10.858   1.034 -33.544  1.00  0.00     0.030 A 
BRANCH  18  21
HETATM   21  C   UNL     1     -14.626   1.161 -34.239  1.00  0.00     0.147 C 
HETATM   22  C   UNL     1     -15.334   1.706 -33.004  1.00  0.00     0.044 C 
BRANCH  21  23
HETATM   23  O   UNL     1     -14.815  -0.252 -34.300  1.00  0.00    -0.391 OA
HETATM   24  H   UNL     1     -13.933  -0.657 -34.253  1.00  0.00     0.210 HD
ENDBRANCH  21  23
ENDBRANCH  18  21
ENDBRANCH  12  15
ENDBRANCH   1  11
BRANCH   4  25
HETATM   25  C   UNL     1      -2.630   4.099 -32.186  1.00  0.00     0.409 C 
HETATM   26  F   UNL     1      -1.907   4.361 -33.299  1.00  0.00    -0.169 F 
HETATM   27  F   UNL     1      -3.363   5.218 -31.933  1.00  0.00    -0.169 F 
HETATM   28  F   UNL     1      -1.777   3.969 -31.150  1.00  0.00    -0.169 F 
ENDBRANCH   4  25
BRANCH   6  29
HETATM   29  C   UNL     1      -4.650   0.048 -31.962  1.00  0.00     0.075 A 
HETATM   30  O   UNL     1      -3.617  -0.771 -31.603  1.00  0.00    -0.325 OA
HETATM   31  C   UNL     1      -3.527  -1.738 -32.552  1.00  0.00     0.142 A 
HETATM   32  C   UNL     1      -4.490  -1.558 -33.515  1.00  0.00     0.027 A 
HETATM   33  C   UNL     1      -5.218  -0.407 -33.135  1.00  0.00     0.037 A 
ENDBRANCH   6  29
TORSDOF 6
ENDMDL
MODEL 5
REMARK VINA RESULT:      -8.3      9.503     11.532
REMARK  6 active torsions:
REMARK  status: ('A' for Active; 'I' for Inactive)
REMARK    1  A    between atoms: C_2  and  O_3 
REMARK    2  A    between atoms: C_2  and  C_4 
REMARK    3  A    between atoms: C_7  and  N_8 
REMARK       I    between atoms: N_8  and  C_9 
REMARK    4  A    between atoms: C_9  and  C_10 
REMARK    5  A    between atoms: C_13  and  C_14 
REMARK    6  A    between atoms: C_19  and  C_20 
ROOT
HETATM    1  C   UNL     1      -2.414   6.965 -30.460  1.00  0.00     0.096 C 
HETATM    2  C   UNL     1      -2.499   5.760 -31.131  1.00  0.00     0.138 C 
HETATM    3  N   UNL     1      -3.008   6.058 -32.376  1.00  0.00    -0.240 N 
HETATM    4  C   UNL     1      -3.299   5.075 -33.406  1.00  0.00     0.221 C 
HETATM    5  C   UNL     1      -2.669   3.714 -33.049  1.00  0.00     0.068 C 
HETATM    6  C   UNL     1      -2.851   3.388 -31.560  1.00  0.00     0.143 C 
HETATM    7  N   UNL     1      -2.226   4.472 -30.775  1.00  0.00    -0.363 N 
HETATM    8  N   UNL     1      -3.419   7.330 -32.491  1.00  0.00    -0.181 NA
HETATM    9  C   UNL     1      -3.032   7.886 -31.340  1.00  0.00     0.160 C 
HETATM   10  H   UNL     1      -2.213   4.247 -29.777  1.00  0.00     0.162 HD
ENDROOT
BRANCH   1  11
HETATM   11  C   UNL     1      -1.877   7.260 -29.143  1.00  0.00     0.261 C 
HETATM   12  N   UNL     1      -0.589   7.759 -29.174  1.00  0.00    -0.323 N 
HETATM   13  H   UNL     1      -0.216   7.946 -30.100  1.00  0.00     0.169 HD
HETATM   14  O   UNL     1      -2.572   7.111 -28.145  1.00  0.00    -0.267 OA
BRANCH  12  15
HETATM   15  C   UNL     1       0.190   8.187 -28.080  1.00  0.00     0.035 A 
HETATM   16  C   UNL     1       1.149   7.393 -27.452  1.00  0.00     0.030 A 
HETATM   17  C   UNL     1       1.862   7.878 -26.348  1.00  0.00     0.012 A 
HETATM   18  C   UNL     1       1.631   9.167 -25.850  1.00  0.00    -0.030 A 
HETATM   19  C   UNL     1       0.678   9.964 -26.493  1.00  0.00     0.012 A 
HETATM   20  C   UNL     1      -0.028   9.484 -27.602  1.00  0.00     0.030 A 
BRANCH  18  21
HETATM   21  C   UNL     1       2.373   9.638 -24.618  1.00  0.00     0.147 C 
HETATM   22  C   UNL     1       1.882  11.009 -24.167  1.00  0.00     0.044 C 
BRANCH  21  23
HETATM   23  O   UNL     1       3.775   9.707 -24.875  1.00  0.00    -0.391 OA
HETATM   24  H   UNL     1       4.131   8.812 -24.745  1.00  0.00     0.210 HD
ENDBRANCH  21  23
ENDBRANCH  18  21
ENDBRANCH  12  15
ENDBRANCH   1  11
BRANCH   4  25
HETATM   25  C   UNL     1      -2.793   5.525 -34.759  1.00  0.00     0.409 C 
HETATM   26  F   UNL     1      -1.854   4.690 -35.259  1.00  0.00    -0.169 F 
HETATM   27  F   UNL     1      -3.819   5.529 -35.652  1.00  0.00    -0.169 F 
HETATM   28  F   UNL     1      -2.290   6.776 -34.762  1.00  0.00    -0.169 F 
ENDBRANCH   4  25
BRANCH   6  29
HETATM   29  C   UNL     1      -4.288   3.107 -31.229  1.00  0.00     0.075 A 
HETATM   30  O   UNL     1      -4.912   2.167 -32.000  1.00  0.00    -0.325 OA
HETATM   31  C   UNL     1      -6.195   2.080 -31.562  1.00  0.00     0.142 A 
HETATM   32  C   UNL     1      -6.406   2.946 -30.517  1.00  0.00     0.027 A 
HETATM   33  C   UNL     1      -5.175   3.608 -30.298  1.00  0.00     0.037 A 
ENDBRANCH   6  29
TORSDOF 6
ENDMDL
MODEL 6
REMARK VINA RESULT:      -8.2     15.618     17.512
REMARK  6 active torsions:
REMARK  status: ('A' for Active; 'I' for Inactive)
REMARK    1  A    between atoms: C_2  and  O_3 
REMARK    2  A    between atoms: C_2  and  C_4 
REMARK    3  A    between atoms: C_7  and  N_8 
REMARK       I    between atoms: N_8  and  C_9 
REMARK    4  A    between atoms: C_9  and  C_10 
REMARK    5  A    between atoms: C_13  and  C_14 
REMARK    6  A    between atoms: C_19  and  C_20 
ROOT
HETATM    1  C   UNL     1      -6.855 -14.249 -36.193  1.00  0.00     0.096 C 
HETATM    2  C   UNL     1      -6.024 -13.521 -37.022  1.00  0.00     0.138 C 
HETATM    3  N   UNL     1      -6.503 -13.713 -38.299  1.00  0.00    -0.240 N 
HETATM    4  C   UNL     1      -5.904 -13.155 -39.500  1.00  0.00     0.221 C 
HETATM    5  C   UNL     1      -4.869 -12.073 -39.134  1.00  0.00     0.068 C 
HETATM    6  C   UNL     1      -4.009 -12.503 -37.938  1.00  0.00     0.143 C 
HETATM    7  N   UNL     1      -4.910 -12.765 -36.798  1.00  0.00    -0.363 N 
HETATM    8  N   UNL     1      -7.467 -14.645 -38.369  1.00  0.00    -0.181 NA
HETATM    9  C   UNL     1      -7.699 -14.947 -37.090  1.00  0.00     0.160 C 
HETATM   10  H   UNL     1      -4.381 -12.941 -35.940  1.00  0.00     0.162 HD
ENDROOT
BRANCH   1  11
HETATM   11  C   UNL     1      -6.867 -14.351 -34.744  1.00  0.00     0.261 C 
HETATM   12  N   UNL     1      -6.149 -15.430 -34.264  1.00  0.00    -0.323 N 
HETATM   13  H   UNL     1      -5.630 -15.954 -34.961  1.00  0.00     0.169 HD
HETATM   14  O   UNL     1      -7.431 -13.498 -34.069  1.00  0.00    -0.267 OA
BRANCH  12  15
HETATM   15  C   UNL     1      -5.924 -15.777 -32.916  1.00  0.00     0.035 A 
HETATM   16  C   UNL     1      -4.858 -15.296 -32.157  1.00  0.00     0.030 A 
HETATM   17  C   UNL     1      -4.683 -15.712 -30.832  1.00  0.00     0.012 A 
HETATM   18  C   UNL     1      -5.571 -16.617 -30.236  1.00  0.00    -0.030 A 
HETATM   19  C   UNL     1      -6.649 -17.086 -30.998  1.00  0.00     0.012 A 
HETATM   20  C   UNL     1      -6.829 -16.663 -32.320  1.00  0.00     0.030 A 
BRANCH  18  21
HETATM   21  C   UNL     1      -5.320 -17.095 -28.822  1.00  0.00     0.147 C 
HETATM   22  C   UNL     1      -6.607 -17.578 -28.164  1.00  0.00     0.044 C 
BRANCH  21  23
HETATM   23  O   UNL     1      -4.757 -16.048 -28.034  1.00  0.00    -0.391 OA
HETATM   24  H   UNL     1      -4.042 -15.651 -28.560  1.00  0.00     0.210 HD
ENDBRANCH  21  23
ENDBRANCH  18  21
ENDBRANCH  12  15
ENDBRANCH   1  11
BRANCH   4  25
HETATM   25  C   UNL     1      -6.951 -12.563 -40.417  1.00  0.00     0.409 C 
HETATM   26  F   UNL     1      -8.045 -12.142 -39.742  1.00  0.00    -0.169 F 
HETATM   27  F   UNL     1      -6.442 -11.468 -41.044  1.00  0.00    -0.169 F 
HETATM   28  F   UNL     1      -7.354 -13.399 -41.394  1.00  0.00    -0.169 F 
ENDBRANCH   4  25
BRANCH   6  29
HETATM   29  C   UNL     1      -3.090 -13.634 -38.299  1.00  0.00     0.075 A 
HETATM   30  O   UNL     1      -2.482 -13.553 -39.520  1.00  0.00    -0.325 OA
HETATM   31  C   UNL     1      -1.724 -14.671 -39.663  1.00  0.00     0.142 A 
HETATM   32  C   UNL     1      -1.829 -15.469 -38.550  1.00  0.00     0.027 A 
HETATM   33  C   UNL     1      -2.708 -14.800 -37.666  1.00  0.00     0.037 A 
ENDBRANCH   6  29
TORSDOF 6
ENDMDL
MODEL 7
REMARK VINA RESULT:      -8.0      3.318      8.807
REMARK  6 active torsions:
REMARK  status: ('A' for Active; 'I' for Inactive)
REMARK    1  A    between atoms: C_2  and  O_3 
REMARK    2  A    between atoms: C_2  and  C_4 
REMARK    3  A    between atoms: C_7  and  N_8 
REMARK       I    between atoms: N_8  and  C_9 
REMARK    4  A    between atoms: C_9  and  C_10 
REMARK    5  A    between atoms: C_13  and  C_14 
REMARK    6  A    between atoms: C_19  and  C_20 
ROOT
HETATM    1  C   UNL     1      -8.189   2.111 -32.727  1.00  0.00     0.096 C 
HETATM    2  C   UNL     1      -7.119   1.364 -32.269  1.00  0.00     0.138 C 
HETATM    3  N   UNL     1      -5.989   2.029 -32.691  1.00  0.00    -0.240 N 
HETATM    4  C   UNL     1      -4.628   1.574 -32.460  1.00  0.00     0.221 C 
HETATM    5  C   UNL     1      -4.607   0.438 -31.418  1.00  0.00     0.068 C 
HETATM    6  C   UNL     1      -5.753  -0.556 -31.652  1.00  0.00     0.143 C 
HETATM    7  N   UNL     1      -7.026   0.190 -31.582  1.00  0.00    -0.363 N 
HETATM    8  N   UNL     1      -6.251   3.044 -33.530  1.00  0.00    -0.181 NA
HETATM    9  C   UNL     1      -7.585   3.110 -33.527  1.00  0.00     0.160 C 
HETATM   10  H   UNL     1      -7.829  -0.444 -31.613  1.00  0.00     0.162 HD
ENDROOT
BRANCH   1  11
HETATM   11  C   UNL     1      -9.613   1.924 -32.511  1.00  0.00     0.261 C 
HETATM   12  N   UNL     1     -10.326   3.108 -32.501  1.00  0.00    -0.323 N 
HETATM   13  H   UNL     1      -9.794   3.939 -32.737  1.00  0.00     0.169 HD
HETATM   14  O   UNL     1     -10.080   0.796 -32.410  1.00  0.00    -0.267 OA
BRANCH  12  15
HETATM   15  C   UNL     1     -11.720   3.266 -32.366  1.00  0.00     0.035 A 
HETATM   16  C   UNL     1     -12.654   2.685 -33.222  1.00  0.00     0.030 A 
HETATM   17  C   UNL     1     -14.024   2.914 -33.043  1.00  0.00     0.012 A 
HETATM   18  C   UNL     1     -14.489   3.728 -32.002  1.00  0.00    -0.030 A 
HETATM   19  C   UNL     1     -13.548   4.298 -31.136  1.00  0.00     0.012 A 
HETATM   20  C   UNL     1     -12.179   4.061 -31.310  1.00  0.00     0.030 A 
BRANCH  18  21
HETATM   21  C   UNL     1     -15.971   4.007 -31.873  1.00  0.00     0.147 C 
HETATM   22  C   UNL     1     -16.796   2.758 -32.162  1.00  0.00     0.044 C 
BRANCH  21  23
HETATM   23  O   UNL     1     -16.365   5.044 -32.770  1.00  0.00    -0.391 OA
HETATM   24  H   UNL     1     -16.217   4.709 -33.671  1.00  0.00     0.210 HD
ENDBRANCH  21  23
ENDBRANCH  18  21
ENDBRANCH  12  15
ENDBRANCH   1  11
BRANCH   4  25
HETATM   25  C   UNL     1      -3.738   2.704 -31.993  1.00  0.00     0.409 C 
HETATM   26  F   UNL     1      -3.090   3.304 -33.017  1.00  0.00    -0.169 F 
HETATM   27  F   UNL     1      -4.496   3.667 -31.401  1.00  0.00    -0.169 F 
HETATM   28  F   UNL     1      -2.823   2.333 -31.075  1.00  0.00    -0.169 F 
ENDBRANCH   4  25
BRANCH   6  29
HETATM   29  C   UNL     1      -5.546  -1.350 -32.909  1.00  0.00     0.075 A 
HETATM   30  O   UNL     1      -4.354  -2.009 -33.017  1.00  0.00    -0.325 OA
HETATM   31  C   UNL     1      -4.354  -2.637 -34.221  1.00  0.00     0.142 A 
HETATM   32  C   UNL     1      -5.530  -2.397 -34.889  1.00  0.00     0.027 A 
HETATM   33  C   UNL     1      -6.303  -1.569 -34.042  1.00  0.00     0.037 A 
ENDBRANCH   6  29
TORSDOF 6
ENDMDL
MODEL 8
REMARK VINA RESULT:      -8.0      5.234      8.416
REMARK  6 active torsions:
REMARK  status: ('A' for Active; 'I' for Inactive)
REMARK    1  A    between atoms: C_2  and  O_3 
REMARK    2  A    between atoms: C_2  and  C_4 
REMARK    3  A    between atoms: C_7  and  N_8 
REMARK       I    between atoms: N_8  and  C_9 
REMARK    4  A    between atoms: C_9  and  C_10 
REMARK    5  A    between atoms: C_13  and  C_14 
REMARK    6  A    between atoms: C_19  and  C_20 
ROOT
HETATM    1  C   UNL     1      -4.863   2.485 -32.496  1.00  0.00     0.096 C 
HETATM    2  C   UNL     1      -4.660   3.825 -32.225  1.00  0.00     0.138 C 
HETATM    3  N   UNL     1      -3.348   3.930 -31.816  1.00  0.00    -0.240 N 
HETATM    4  C   UNL     1      -2.712   5.167 -31.393  1.00  0.00     0.221 C 
HETATM    5  C   UNL     1      -3.587   6.380 -31.765  1.00  0.00     0.068 C 
HETATM    6  C   UNL     1      -5.070   6.107 -31.480  1.00  0.00     0.143 C 
HETATM    7  N   UNL     1      -5.474   4.918 -32.258  1.00  0.00    -0.363 N 
HETATM    8  N   UNL     1      -2.751   2.742 -31.637  1.00  0.00    -0.181 NA
HETATM    9  C   UNL     1      -3.660   1.869 -32.077  1.00  0.00     0.160 C 
HETATM   10  H   UNL     1      -6.483   4.762 -32.199  1.00  0.00     0.162 HD
ENDROOT
BRANCH   1  11
HETATM   11  C   UNL     1      -6.034   1.813 -33.033  1.00  0.00     0.261 C 
HETATM   12  N   UNL     1      -7.194   2.092 -32.336  1.00  0.00    -0.323 N 
HETATM   13  H   UNL     1      -7.108   2.794 -31.609  1.00  0.00     0.169 HD
HETATM   14  O   UNL     1      -5.942   1.122 -34.041  1.00  0.00    -0.267 OA
BRANCH  12  15
HETATM   15  C   UNL     1      -8.497   1.641 -32.628  1.00  0.00     0.035 A 
HETATM   16  C   UNL     1      -8.943   0.342 -32.387  1.00  0.00     0.030 A 
HETATM   17  C   UNL     1     -10.244  -0.041 -32.735  1.00  0.00     0.012 A 
HETATM   18  C   UNL     1     -11.128   0.868 -33.331  1.00  0.00    -0.030 A 
HETATM   19  C   UNL     1     -10.681   2.175 -33.559  1.00  0.00     0.012 A 
HETATM   20  C   UNL     1      -9.383   2.560 -33.202  1.00  0.00     0.030 A 
BRANCH  18  21
HETATM   21  C   UNL     1     -12.507   0.407 -33.752  1.00  0.00     0.147 C 
HETATM   22  C   UNL     1     -13.559   1.470 -33.459  1.00  0.00     0.044 C 
BRANCH  21  23
HETATM   23  O   UNL     1     -12.860  -0.798 -33.073  1.00  0.00    -0.391 OA
HETATM   24  H   UNL     1     -13.690  -0.623 -32.600  1.00  0.00     0.210 HD
ENDBRANCH  21  23
ENDBRANCH  18  21
ENDBRANCH  12  15
ENDBRANCH   1  11
BRANCH   4  25
HETATM   25  C   UNL     1      -1.342   5.324 -32.013  1.00  0.00     0.409 C 
HETATM   26  F   UNL     1      -1.289   4.832 -33.272  1.00  0.00    -0.169 F 
HETATM   27  F   UNL     1      -1.030   6.645 -32.104  1.00  0.00    -0.169 F 
HETATM   28  F   UNL     1      -0.351   4.755 -31.297  1.00  0.00    -0.169 F 
ENDBRANCH   4  25
BRANCH   6  29
HETATM   29  C   UNL     1      -5.344   6.029 -30.006  1.00  0.00     0.075 A 
HETATM   30  O   UNL     1      -4.813   7.028 -29.239  1.00  0.00    -0.325 OA
HETATM   31  C   UNL     1      -5.148   6.762 -27.950  1.00  0.00     0.142 A 
HETATM   32  C   UNL     1      -5.891   5.609 -27.875  1.00  0.00     0.027 A 
HETATM   33  C   UNL     1      -6.021   5.135 -29.201  1.00  0.00     0.037 A 
ENDBRANCH   6  29
TORSDOF 6
ENDMDL
MODEL 9
REMARK VINA RESULT:      -8.0      3.055      4.211
REMARK  6 active torsions:
REMARK  status: ('A' for Active; 'I' for Inactive)
REMARK    1  A    between atoms: C_2  and  O_3 
REMARK    2  A    between atoms: C_2  and  C_4 
REMARK    3  A    between atoms: C_7  and  N_8 
REMARK       I    between atoms: N_8  and  C_9 
REMARK    4  A    between atoms: C_9  and  C_10 
REMARK    5  A    between atoms: C_13  and  C_14 
REMARK    6  A    between atoms: C_19  and  C_20 
ROOT
HETATM    1  C   UNL     1     -11.518   1.967 -33.603  1.00  0.00     0.096 C 
HETATM    2  C   UNL     1     -12.295   3.022 -33.164  1.00  0.00     0.138 C 
HETATM    3  N   UNL     1     -13.602   2.609 -33.300  1.00  0.00    -0.240 N 
HETATM    4  C   UNL     1     -14.763   3.426 -32.988  1.00  0.00     0.221 C 
HETATM    5  C   UNL     1     -14.346   4.677 -32.191  1.00  0.00     0.068 C 
HETATM    6  C   UNL     1     -13.062   5.299 -32.759  1.00  0.00     0.143 C 
HETATM    7  N   UNL     1     -11.999   4.274 -32.711  1.00  0.00    -0.363 N 
HETATM    8  N   UNL     1     -13.725   1.443 -33.953  1.00  0.00    -0.181 NA
HETATM    9  C   UNL     1     -12.461   1.041 -34.110  1.00  0.00     0.160 C 
HETATM   10  H   UNL     1     -11.091   4.670 -32.967  1.00  0.00     0.162 HD
ENDROOT
BRANCH   1  11
HETATM   11  C   UNL     1     -10.073   1.817 -33.613  1.00  0.00     0.261 C 
HETATM   12  N   UNL     1      -9.659   0.499 -33.661  1.00  0.00    -0.323 N 
HETATM   13  H   UNL     1     -10.397  -0.186 -33.779  1.00  0.00     0.169 HD
HETATM   14  O   UNL     1      -9.349   2.805 -33.631  1.00  0.00    -0.267 OA
BRANCH  12  15
HETATM   15  C   UNL     1      -8.335   0.021 -33.731  1.00  0.00     0.035 A 
HETATM   16  C   UNL     1      -7.691  -0.310 -34.923  1.00  0.00     0.030 A 
HETATM   17  C   UNL     1      -6.383  -0.810 -34.911  1.00  0.00     0.012 A 
HETATM   18  C   UNL     1      -5.690  -0.989 -33.706  1.00  0.00    -0.030 A 
HETATM   19  C   UNL     1      -6.336  -0.642 -32.513  1.00  0.00     0.012 A 
HETATM   20  C   UNL     1      -7.640  -0.133 -32.526  1.00  0.00     0.030 A 
BRANCH  18  21
HETATM   21  C   UNL     1      -4.301  -1.590 -33.722  1.00  0.00     0.147 C 
HETATM   22  C   UNL     1      -4.340  -3.065 -34.104  1.00  0.00     0.044 C 
BRANCH  21  23
HETATM   23  O   UNL     1      -3.685  -1.456 -32.442  1.00  0.00    -0.391 OA
HETATM   24  H   UNL     1      -4.211  -0.809 -31.941  1.00  0.00     0.210 HD
ENDBRANCH  21  23
ENDBRANCH  18  21
ENDBRANCH  12  15
ENDBRANCH   1  11
BRANCH   4  25
HETATM   25  C   UNL     1     -15.792   2.646 -32.199  1.00  0.00     0.409 C 
HETATM   26  F   UNL     1     -15.228   1.885 -31.233  1.00  0.00    -0.169 F 
HETATM   27  F   UNL     1     -16.634   3.508 -31.568  1.00  0.00    -0.169 F 
HETATM   28  F   UNL     1     -16.572   1.851 -32.959  1.00  0.00    -0.169 F 
ENDBRANCH   4  25
BRANCH   6  29
HETATM   29  C   UNL     1     -13.297   5.913 -34.109  1.00  0.00     0.075 A 
HETATM   30  O   UNL     1     -14.387   6.730 -34.219  1.00  0.00    -0.325 OA
HETATM   31  C   UNL     1     -14.436   7.157 -35.507  1.00  0.00     0.142 A 
HETATM   32  C   UNL     1     -13.391   6.632 -36.228  1.00  0.00     0.027 A 
HETATM   33  C   UNL     1     -12.653   5.830 -35.327  1.00  0.00     0.037 A 
ENDBRANCH   6  29
TORSDOF 6
ENDMDL
MODEL 10
REMARK VINA RESULT:      -7.9     15.577     17.454
REMARK  6 active torsions:
REMARK  status: ('A' for Active; 'I' for Inactive)
REMARK    1  A    between atoms: C_2  and  O_3 
REMARK    2  A    between atoms: C_2  and  C_4 
REMARK    3  A    between atoms: C_7  and  N_8 
REMARK       I    between atoms: N_8  and  C_9 
REMARK    4  A    between atoms: C_9  and  C_10 
REMARK    5  A    between atoms: C_13  and  C_14 
REMARK    6  A    between atoms: C_19  and  C_20 
ROOT
HETATM    1  C   UNL     1      -6.786 -14.941 -36.578  1.00  0.00     0.096 C 
HETATM    2  C   UNL     1      -6.670 -13.942 -37.526  1.00  0.00     0.138 C 
HETATM    3  N   UNL     1      -7.663 -14.183 -38.449  1.00  0.00    -0.240 N 
HETATM    4  C   UNL     1      -7.887 -13.391 -39.648  1.00  0.00     0.221 C 
HETATM    5  C   UNL     1      -7.087 -12.075 -39.583  1.00  0.00     0.068 C 
HETATM    6  C   UNL     1      -5.673 -12.307 -39.032  1.00  0.00     0.143 C 
HETATM    7  N   UNL     1      -5.799 -12.905 -37.687  1.00  0.00    -0.363 N 
HETATM    8  N   UNL     1      -8.291 -15.354 -38.260  1.00  0.00    -0.181 NA
HETATM    9  C   UNL     1      -7.778 -15.798 -37.110  1.00  0.00     0.160 C 
HETATM   10  H   UNL     1      -4.890 -12.970 -37.224  1.00  0.00     0.162 HD
ENDROOT
BRANCH   1  11
HETATM   11  C   UNL     1      -6.050 -15.139 -35.341  1.00  0.00     0.261 C 
HETATM   12  N   UNL     1      -6.857 -15.477 -34.271  1.00  0.00    -0.323 N 
HETATM   13  H   UNL     1      -7.833 -15.639 -34.495  1.00  0.00     0.169 HD
HETATM   14  O   UNL     1      -4.828 -15.053 -35.328  1.00  0.00    -0.267 OA
BRANCH  12  15
HETATM   15  C   UNL     1      -6.451 -15.783 -32.956  1.00  0.00     0.035 A 
HETATM   16  C   UNL     1      -5.731 -14.908 -32.143  1.00  0.00     0.030 A 
HETATM   17  C   UNL     1      -5.335 -15.296 -30.856  1.00  0.00     0.012 A 
HETATM   18  C   UNL     1      -5.651 -16.565 -30.356  1.00  0.00    -0.030 A 
HETATM   19  C   UNL     1      -6.387 -17.434 -31.171  1.00  0.00     0.012 A 
HETATM   20  C   UNL     1      -6.791 -17.044 -32.453  1.00  0.00     0.030 A 
BRANCH  18  21
HETATM   21  C   UNL     1      -5.156 -16.977 -28.986  1.00  0.00     0.147 C 
HETATM   22  C   UNL     1      -6.239 -17.710 -28.204  1.00  0.00     0.044 C 
BRANCH  21  23
HETATM   23  O   UNL     1      -4.737 -15.833 -28.243  1.00  0.00    -0.391 OA
HETATM   24  H   UNL     1      -5.531 -15.296 -28.079  1.00  0.00     0.210 HD
ENDBRANCH  21  23
ENDBRANCH  18  21
ENDBRANCH  12  15
ENDBRANCH   1  11
BRANCH   4  25
HETATM   25  C   UNL     1      -9.355 -13.080 -39.838  1.00  0.00     0.409 C 
HETATM   26  F   UNL     1     -10.028 -13.043 -38.665  1.00  0.00    -0.169 F 
HETATM   27  F   UNL     1      -9.492 -11.848 -40.398  1.00  0.00    -0.169 F 
HETATM   28  F   UNL     1      -9.990 -13.937 -40.662  1.00  0.00    -0.169 F 
ENDBRANCH   4  25
BRANCH   6  29
HETATM   29  C   UNL     1      -4.825 -13.083 -39.998  1.00  0.00     0.075 A 
HETATM   30  O   UNL     1      -3.770 -13.766 -39.462  1.00  0.00    -0.325 OA
HETATM   31  C   UNL     1      -3.124 -14.373 -40.491  1.00  0.00     0.142 A 
HETATM   32  C   UNL     1      -3.749 -14.095 -41.682  1.00  0.00     0.027 A 
HETATM   33  C   UNL     1      -4.850 -13.265 -41.366  1.00  0.00     0.037 A 
ENDBRANCH   6  29
TORSDOF 6
ENDMDL
