MODEL 1
REMARK VINA RESULT:      -9.6      0.000      0.000
REMARK  5 active torsions:
REMARK  status: ('A' for Active; 'I' for Inactive)
REMARK    1  A    between atoms: C_9  and  N_10 
REMARK       I    between atoms: N_10  and  C_11 
REMARK    2  A    between atoms: C_11  and  C_12 
REMARK    3  A    between atoms: C_16  and  C_17 
REMARK    4  A    between atoms: C_17  and  O_18 
REMARK    5  A    between atoms: O_18  and  C_19 
ROOT
HETATM    1  C   UNL     1      -4.424   0.293 -32.738  1.00  0.00     0.153 A 
HETATM    2  O   UNL     1      -3.756  -0.683 -33.430  1.00  0.00    -0.304 OA
HETATM    3  C   UNL     1      -4.684  -1.566 -33.885  1.00  0.00     0.087 A 
HETATM    4  C   UNL     1      -5.960  -1.161 -33.512  1.00  0.00     0.009 A 
HETATM    5  C   UNL     1      -5.791   0.049 -32.769  1.00  0.00     0.018 A 
HETATM    6  C   UNL     1      -4.409  -2.714 -34.623  1.00  0.00     0.038 A 
HETATM    7  C   UNL     1      -5.507  -3.492 -35.000  1.00  0.00     0.003 A 
HETATM    8  C   UNL     1      -6.807  -3.121 -34.651  1.00  0.00     0.001 A 
HETATM    9  C   UNL     1      -7.052  -1.957 -33.910  1.00  0.00     0.015 A 
ENDROOT
BRANCH   1  10
HETATM   10  C   UNL     1      -3.643   1.350 -32.115  1.00  0.00     0.280 C 
HETATM   11  N   UNL     1      -3.832   2.578 -32.729  1.00  0.00    -0.321 N 
HETATM   12  H   UNL     1      -4.509   2.564 -33.486  1.00  0.00     0.169 HD
HETATM   13  O   UNL     1      -2.898   1.151 -31.161  1.00  0.00    -0.265 OA
BRANCH  11  14
HETATM   14  C   UNL     1      -3.205   3.803 -32.440  1.00  0.00     0.035 A 
HETATM   15  C   UNL     1      -3.534   4.599 -31.339  1.00  0.00     0.039 A 
HETATM   16  C   UNL     1      -2.825   5.773 -31.125  1.00  0.00    -0.022 A 
HETATM   17  C   UNL     1      -2.974   6.730 -29.995  1.00  0.00     0.274 C 
HETATM   18  C   UNL     1      -1.803   6.172 -31.986  1.00  0.00    -0.025 A 
HETATM   19  N   UNL     1      -2.036   7.888 -30.331  1.00  0.00    -0.067 N 
HETATM   20  C   UNL     1      -1.261   8.397 -29.168  1.00  0.00     0.270 C 
HETATM   21  H   UNL     1      -2.636   8.642 -30.686  1.00  0.00     0.280 HD
HETATM   22  C   UNL     1      -1.177   7.435 -31.507  1.00  0.00     0.273 C 
HETATM   23  C   UNL     1      -1.469   5.405 -33.087  1.00  0.00     0.012 A 
HETATM   24  C   UNL     1      -2.174   4.216 -33.308  1.00  0.00     0.030 A 
ENDBRANCH  11  14
ENDBRANCH   1  10
BRANCH   5  25
HETATM   25  C   UNL     1      -6.864   0.896 -32.169  1.00  0.00     0.218 C 
BRANCH  25  26
HETATM   26  O   UNL     1      -7.495   1.670 -33.190  1.00  0.00    -0.347 OA
BRANCH  26  27
HETATM   27  C   UNL     1      -8.830   1.464 -33.398  1.00  0.00     0.069 A 
HETATM   28  C   UNL     1      -9.447   2.428 -34.201  1.00  0.00     0.037 A 
HETATM   29  C   UNL     1     -10.808   2.339 -34.502  1.00  0.00     0.003 A 
HETATM   30  C   UNL     1     -11.561   1.282 -34.000  1.00  0.00     0.000 A 
HETATM   31  C   UNL     1     -10.953   0.318 -33.196  1.00  0.00     0.003 A 
HETATM   32  C   UNL     1      -9.590   0.408 -32.894  1.00  0.00     0.037 A 
ENDBRANCH  26  27
ENDBRANCH  25  26
ENDBRANCH   5  25
TORSDOF 5
ENDMDL
MODEL 2
REMARK VINA RESULT:      -9.5      3.668      7.248
REMARK  5 active torsions:
REMARK  status: ('A' for Active; 'I' for Inactive)
REMARK    1  A    between atoms: C_9  and  N_10 
REMARK       I    between atoms: N_10  and  C_11 
REMARK    2  A    between atoms: C_11  and  C_12 
REMARK    3  A    between atoms: C_16  and  C_17 
REMARK    4  A    between atoms: C_17  and  O_18 
REMARK    5  A    between atoms: O_18  and  C_19 
ROOT
HETATM    1  C   UNL     1      -6.760  -1.139 -34.316  1.00  0.00     0.153 A 
HETATM    2  O   UNL     1      -7.077  -2.384 -34.795  1.00  0.00    -0.304 OA
HETATM    3  C   UNL     1      -6.026  -3.202 -34.523  1.00  0.00     0.087 A 
HETATM    4  C   UNL     1      -5.030  -2.504 -33.851  1.00  0.00     0.009 A 
HETATM    5  C   UNL     1      -5.509  -1.164 -33.714  1.00  0.00     0.018 A 
HETATM    6  C   UNL     1      -5.947  -4.550 -34.864  1.00  0.00     0.038 A 
HETATM    7  C   UNL     1      -4.778  -5.221 -34.493  1.00  0.00     0.003 A 
HETATM    8  C   UNL     1      -3.753  -4.560 -33.811  1.00  0.00     0.001 A 
HETATM    9  C   UNL     1      -3.864  -3.202 -33.480  1.00  0.00     0.015 A 
ENDROOT
BRANCH   1  10
HETATM   10  C   UNL     1      -7.718  -0.063 -34.514  1.00  0.00     0.280 C 
HETATM   11  N   UNL     1      -8.673  -0.014 -33.511  1.00  0.00    -0.321 N 
HETATM   12  H   UNL     1      -8.539  -0.703 -32.776  1.00  0.00     0.169 HD
HETATM   13  O   UNL     1      -7.674   0.697 -35.476  1.00  0.00    -0.265 OA
BRANCH  11  14
HETATM   14  C   UNL     1      -9.779   0.846 -33.402  1.00  0.00     0.035 A 
HETATM   15  C   UNL     1     -11.102   0.428 -33.570  1.00  0.00     0.039 A 
HETATM   16  C   UNL     1     -12.124   1.352 -33.403  1.00  0.00    -0.022 A 
HETATM   17  C   UNL     1     -13.591   1.109 -33.481  1.00  0.00     0.274 C 
HETATM   18  C   UNL     1     -11.856   2.682 -33.081  1.00  0.00    -0.025 A 
HETATM   19  N   UNL     1     -14.229   2.489 -33.340  1.00  0.00    -0.067 N 
HETATM   20  C   UNL     1     -15.429   2.515 -32.462  1.00  0.00     0.270 C 
HETATM   21  H   UNL     1     -14.505   2.770 -34.288  1.00  0.00     0.280 HD
HETATM   22  C   UNL     1     -13.121   3.448 -32.915  1.00  0.00     0.273 C 
HETATM   23  C   UNL     1     -10.553   3.120 -32.921  1.00  0.00     0.012 A 
HETATM   24  C   UNL     1      -9.516   2.193 -33.081  1.00  0.00     0.030 A 
ENDBRANCH  11  14
ENDBRANCH   1  10
BRANCH   5  25
HETATM   25  C   UNL     1      -4.820  -0.025 -33.038  1.00  0.00     0.218 C 
BRANCH  25  26
HETATM   26  O   UNL     1      -5.433   0.228 -31.773  1.00  0.00    -0.347 OA
BRANCH  26  27
HETATM   27  C   UNL     1      -5.931   1.482 -31.557  1.00  0.00     0.069 A 
HETATM   28  C   UNL     1      -5.677   2.393 -32.586  1.00  0.00     0.037 A 
HETATM   29  C   UNL     1      -6.133   3.710 -32.502  1.00  0.00     0.003 A 
HETATM   30  C   UNL     1      -6.849   4.124 -31.383  1.00  0.00     0.000 A 
HETATM   31  C   UNL     1      -7.104   3.223 -30.350  1.00  0.00     0.003 A 
HETATM   32  C   UNL     1      -6.646   1.904 -30.435  1.00  0.00     0.037 A 
ENDBRANCH  26  27
ENDBRANCH  25  26
ENDBRANCH   5  25
TORSDOF 5
ENDMDL
MODEL 3
REMARK VINA RESULT:      -9.3      3.690      6.671
REMARK  5 active torsions:
REMARK  status: ('A' for Active; 'I' for Inactive)
REMARK    1  A    between atoms: C_9  and  N_10 
REMARK       I    between atoms: N_10  and  C_11 
REMARK    2  A    between atoms: C_11  and  C_12 
REMARK    3  A    between atoms: C_16  and  C_17 
REMARK    4  A    between atoms: C_17  and  O_18 
REMARK    5  A    between atoms: O_18  and  C_19 
ROOT
HETATM    1  C   UNL     1      -6.431  -1.107 -34.443  1.00  0.00     0.153 A 
HETATM    2  O   UNL     1      -6.706  -2.367 -34.908  1.00  0.00    -0.304 OA
HETATM    3  C   UNL     1      -5.705  -3.183 -34.483  1.00  0.00     0.087 A 
HETATM    4  C   UNL     1      -4.786  -2.467 -33.726  1.00  0.00     0.009 A 
HETATM    5  C   UNL     1      -5.260  -1.118 -33.697  1.00  0.00     0.018 A 
HETATM    6  C   UNL     1      -5.604  -4.544 -34.760  1.00  0.00     0.038 A 
HETATM    7  C   UNL     1      -4.496  -5.209 -34.228  1.00  0.00     0.003 A 
HETATM    8  C   UNL     1      -3.550  -4.531 -33.456  1.00  0.00     0.001 A 
HETATM    9  C   UNL     1      -3.682  -3.160 -33.192  1.00  0.00     0.015 A 
ENDROOT
BRANCH   1  10
HETATM   10  C   UNL     1      -7.345  -0.032 -34.795  1.00  0.00     0.280 C 
HETATM   11  N   UNL     1      -8.348   0.138 -33.853  1.00  0.00    -0.321 N 
HETATM   12  H   UNL     1      -8.272  -0.479 -33.050  1.00  0.00     0.169 HD
HETATM   13  O   UNL     1      -7.230   0.630 -35.821  1.00  0.00    -0.265 OA
BRANCH  11  14
HETATM   14  C   UNL     1      -9.432   1.032 -33.886  1.00  0.00     0.035 A 
HETATM   15  C   UNL     1      -9.327   2.360 -34.309  1.00  0.00     0.039 A 
HETATM   16  C   UNL     1     -10.470   3.147 -34.339  1.00  0.00    -0.022 A 
HETATM   17  C   UNL     1     -10.590   4.556 -34.803  1.00  0.00     0.274 C 
HETATM   18  C   UNL     1     -11.710   2.643 -33.950  1.00  0.00    -0.025 A 
HETATM   19  N   UNL     1     -12.033   4.951 -34.499  1.00  0.00    -0.067 N 
HETATM   20  C   UNL     1     -12.686   5.736 -35.582  1.00  0.00     0.270 C 
HETATM   21  H   UNL     1     -11.996   5.525 -33.650  1.00  0.00     0.280 HD
HETATM   22  C   UNL     1     -12.772   3.672 -34.119  1.00  0.00     0.273 C 
HETATM   23  C   UNL     1     -11.835   1.335 -33.518  1.00  0.00     0.012 A 
HETATM   24  C   UNL     1     -10.689   0.531 -33.490  1.00  0.00     0.030 A 
ENDBRANCH  11  14
ENDBRANCH   1  10
BRANCH   5  25
HETATM   25  C   UNL     1      -4.641   0.040 -32.989  1.00  0.00     0.218 C 
BRANCH  25  26
HETATM   26  O   UNL     1      -5.329   0.279 -31.760  1.00  0.00    -0.347 OA
BRANCH  26  27
HETATM   27  C   UNL     1      -6.059   1.429 -31.663  1.00  0.00     0.069 A 
HETATM   28  C   UNL     1      -5.645   2.454 -32.519  1.00  0.00     0.037 A 
HETATM   29  C   UNL     1      -6.306   3.684 -32.530  1.00  0.00     0.003 A 
HETATM   30  C   UNL     1      -7.390   3.895 -31.683  1.00  0.00     0.000 A 
HETATM   31  C   UNL     1      -7.807   2.880 -30.825  1.00  0.00     0.003 A 
HETATM   32  C   UNL     1      -7.144   1.648 -30.812  1.00  0.00     0.037 A 
ENDBRANCH  26  27
ENDBRANCH  25  26
ENDBRANCH   5  25
TORSDOF 5
ENDMDL
MODEL 4
REMARK VINA RESULT:      -9.3      2.148      5.211
REMARK  5 active torsions:
REMARK  status: ('A' for Active; 'I' for Inactive)
REMARK    1  A    between atoms: C_9  and  N_10 
REMARK       I    between atoms: N_10  and  C_11 
REMARK    2  A    between atoms: C_11  and  C_12 
REMARK    3  A    between atoms: C_16  and  C_17 
REMARK    4  A    between atoms: C_17  and  O_18 
REMARK    5  A    between atoms: O_18  and  C_19 
ROOT
HETATM    1  C   UNL     1      -9.198   2.741 -32.933  1.00  0.00     0.153 A 
HETATM    2  O   UNL     1     -10.105   3.462 -33.667  1.00  0.00    -0.304 OA
HETATM    3  C   UNL     1     -11.142   2.632 -33.957  1.00  0.00     0.087 A 
HETATM    4  C   UNL     1     -10.928   1.378 -33.400  1.00  0.00     0.009 A 
HETATM    5  C   UNL     1      -9.666   1.450 -32.731  1.00  0.00     0.018 A 
HETATM    6  C   UNL     1     -12.265   2.980 -34.704  1.00  0.00     0.038 A 
HETATM    7  C   UNL     1     -13.224   1.981 -34.889  1.00  0.00     0.003 A 
HETATM    8  C   UNL     1     -13.054   0.707 -34.342  1.00  0.00     0.001 A 
HETATM    9  C   UNL     1     -11.913   0.389 -33.592  1.00  0.00     0.015 A 
ENDROOT
BRANCH   1  10
HETATM   10  C   UNL     1      -7.968   3.401 -32.523  1.00  0.00     0.280 C 
HETATM   11  N   UNL     1      -6.905   3.105 -33.362  1.00  0.00    -0.321 N 
HETATM   12  H   UNL     1      -7.150   2.512 -34.149  1.00  0.00     0.169 HD
HETATM   13  O   UNL     1      -7.900   4.124 -31.534  1.00  0.00    -0.265 OA
BRANCH  11  14
HETATM   14  C   UNL     1      -5.564   3.510 -33.245  1.00  0.00     0.035 A 
HETATM   15  C   UNL     1      -5.036   4.631 -33.891  1.00  0.00     0.039 A 
HETATM   16  C   UNL     1      -3.706   4.964 -33.677  1.00  0.00    -0.022 A 
HETATM   17  C   UNL     1      -2.965   6.137 -34.217  1.00  0.00     0.274 C 
HETATM   18  C   UNL     1      -2.891   4.201 -32.841  1.00  0.00    -0.025 A 
HETATM   19  N   UNL     1      -1.521   5.936 -33.762  1.00  0.00    -0.067 N 
HETATM   20  C   UNL     1      -0.860   7.179 -33.279  1.00  0.00     0.270 C 
HETATM   21  H   UNL     1      -1.013   5.587 -34.582  1.00  0.00     0.280 HD
HETATM   22  C   UNL     1      -1.530   4.797 -32.748  1.00  0.00     0.273 C 
HETATM   23  C   UNL     1      -3.391   3.081 -32.200  1.00  0.00     0.012 A 
HETATM   24  C   UNL     1      -4.733   2.741 -32.405  1.00  0.00     0.030 A 
ENDBRANCH  11  14
ENDBRANCH   1  10
BRANCH   5  25
HETATM   25  C   UNL     1      -8.995   0.368 -31.952  1.00  0.00     0.218 C 
BRANCH  25  26
HETATM   26  O   UNL     1      -7.578   0.480 -32.091  1.00  0.00    -0.347 OA
BRANCH  26  27
HETATM   27  C   UNL     1      -6.953  -0.432 -32.893  1.00  0.00     0.069 A 
HETATM   28  C   UNL     1      -5.612  -0.664 -32.572  1.00  0.00     0.037 A 
HETATM   29  C   UNL     1      -4.851  -1.578 -33.305  1.00  0.00     0.003 A 
HETATM   30  C   UNL     1      -5.431  -2.268 -34.366  1.00  0.00     0.000 A 
HETATM   31  C   UNL     1      -6.766  -2.040 -34.694  1.00  0.00     0.003 A 
HETATM   32  C   UNL     1      -7.528  -1.124 -33.960  1.00  0.00     0.037 A 
ENDBRANCH  26  27
ENDBRANCH  25  26
ENDBRANCH   5  25
TORSDOF 5
ENDMDL
MODEL 5
REMARK VINA RESULT:      -9.2      1.303      2.083
REMARK  5 active torsions:
REMARK  status: ('A' for Active; 'I' for Inactive)
REMARK    1  A    between atoms: C_9  and  N_10 
REMARK       I    between atoms: N_10  and  C_11 
REMARK    2  A    between atoms: C_11  and  C_12 
REMARK    3  A    between atoms: C_16  and  C_17 
REMARK    4  A    between atoms: C_17  and  O_18 
REMARK    5  A    between atoms: O_18  and  C_19 
ROOT
HETATM    1  C   UNL     1      -4.549  -1.006 -33.003  1.00  0.00     0.153 A 
HETATM    2  O   UNL     1      -3.825  -2.166 -33.097  1.00  0.00    -0.304 OA
HETATM    3  C   UNL     1      -4.571  -3.052 -33.809  1.00  0.00     0.087 A 
HETATM    4  C   UNL     1      -5.772  -2.472 -34.198  1.00  0.00     0.009 A 
HETATM    5  C   UNL     1      -5.755  -1.140 -33.676  1.00  0.00     0.018 A 
HETATM    6  C   UNL     1      -4.195  -4.359 -34.112  1.00  0.00     0.038 A 
HETATM    7  C   UNL     1      -5.105  -5.112 -34.859  1.00  0.00     0.003 A 
HETATM    8  C   UNL     1      -6.322  -4.567 -35.276  1.00  0.00     0.001 A 
HETATM    9  C   UNL     1      -6.670  -3.247 -34.957  1.00  0.00     0.015 A 
ENDROOT
BRANCH   1  10
HETATM   10  C   UNL     1      -3.978   0.101 -32.251  1.00  0.00     0.280 C 
HETATM   11  N   UNL     1      -4.502   1.325 -32.633  1.00  0.00    -0.321 N 
HETATM   12  H   UNL     1      -5.226   1.264 -33.343  1.00  0.00     0.169 HD
HETATM   13  O   UNL     1      -3.119  -0.055 -31.389  1.00  0.00    -0.265 OA
BRANCH  11  14
HETATM   14  C   UNL     1      -4.150   2.606 -32.172  1.00  0.00     0.035 A 
HETATM   15  C   UNL     1      -3.024   3.304 -32.617  1.00  0.00     0.039 A 
HETATM   16  C   UNL     1      -2.789   4.581 -32.125  1.00  0.00    -0.022 A 
HETATM   17  C   UNL     1      -1.690   5.512 -32.502  1.00  0.00     0.274 C 
HETATM   18  C   UNL     1      -3.645   5.170 -31.195  1.00  0.00    -0.025 A 
HETATM   19  N   UNL     1      -1.849   6.709 -31.568  1.00  0.00    -0.067 N 
HETATM   20  C   UNL     1      -1.658   8.026 -32.235  1.00  0.00     0.270 C 
HETATM   21  H   UNL     1      -1.131   6.598 -30.843  1.00  0.00     0.280 HD
HETATM   22  C   UNL     1      -3.194   6.551 -30.868  1.00  0.00     0.273 C 
HETATM   23  C   UNL     1      -4.759   4.492 -30.734  1.00  0.00     0.012 A 
HETATM   24  C   UNL     1      -5.008   3.207 -31.229  1.00  0.00     0.030 A 
ENDBRANCH  11  14
ENDBRANCH   1  10
BRANCH   5  25
HETATM   25  C   UNL     1      -6.808  -0.094 -33.842  1.00  0.00     0.218 C 
BRANCH  25  26
HETATM   26  O   UNL     1      -7.433   0.165 -32.584  1.00  0.00    -0.347 OA
BRANCH  26  27
HETATM   27  C   UNL     1      -8.511   1.004 -32.581  1.00  0.00     0.069 A 
HETATM   28  C   UNL     1      -9.537   0.635 -33.456  1.00  0.00     0.037 A 
HETATM   29  C   UNL     1     -10.702   1.399 -33.551  1.00  0.00     0.003 A 
HETATM   30  C   UNL     1     -10.849   2.539 -32.767  1.00  0.00     0.000 A 
HETATM   31  C   UNL     1      -9.830   2.915 -31.893  1.00  0.00     0.003 A 
HETATM   32  C   UNL     1      -8.662   2.151 -31.799  1.00  0.00     0.037 A 
ENDBRANCH  26  27
ENDBRANCH  25  26
ENDBRANCH   5  25
TORSDOF 5
ENDMDL
MODEL 6
REMARK VINA RESULT:      -9.0      2.986      3.721
REMARK  5 active torsions:
REMARK  status: ('A' for Active; 'I' for Inactive)
REMARK    1  A    between atoms: C_9  and  N_10 
REMARK       I    between atoms: N_10  and  C_11 
REMARK    2  A    between atoms: C_11  and  C_12 
REMARK    3  A    between atoms: C_16  and  C_17 
REMARK    4  A    between atoms: C_17  and  O_18 
REMARK    5  A    between atoms: O_18  and  C_19 
ROOT
HETATM    1  C   UNL     1      -5.683  -0.256 -33.252  1.00  0.00     0.153 A 
HETATM    2  O   UNL     1      -4.603  -1.045 -32.954  1.00  0.00    -0.304 OA
HETATM    3  C   UNL     1      -4.800  -2.247 -33.558  1.00  0.00     0.087 A 
HETATM    4  C   UNL     1      -5.995  -2.242 -34.267  1.00  0.00     0.009 A 
HETATM    5  C   UNL     1      -6.567  -0.946 -34.070  1.00  0.00     0.018 A 
HETATM    6  C   UNL     1      -3.934  -3.335 -33.485  1.00  0.00     0.038 A 
HETATM    7  C   UNL     1      -4.316  -4.485 -34.181  1.00  0.00     0.003 A 
HETATM    8  C   UNL     1      -5.507  -4.523 -34.912  1.00  0.00     0.001 A 
HETATM    9  C   UNL     1      -6.356  -3.409 -34.967  1.00  0.00     0.015 A 
ENDROOT
BRANCH   1  10
HETATM   10  C   UNL     1      -5.731   1.085 -32.689  1.00  0.00     0.280 C 
HETATM   11  N   UNL     1      -6.634   1.186 -31.643  1.00  0.00    -0.321 N 
HETATM   12  H   UNL     1      -7.092   0.312 -31.403  1.00  0.00     0.169 HD
HETATM   13  O   UNL     1      -5.047   2.009 -33.117  1.00  0.00    -0.265 OA
BRANCH  11  14
HETATM   14  C   UNL     1      -6.987   2.329 -30.904  1.00  0.00     0.035 A 
HETATM   15  C   UNL     1      -6.067   3.101 -30.189  1.00  0.00     0.039 A 
HETATM   16  C   UNL     1      -6.517   4.234 -29.524  1.00  0.00    -0.022 A 
HETATM   17  C   UNL     1      -5.706   5.218 -28.756  1.00  0.00     0.274 C 
HETATM   18  C   UNL     1      -7.860   4.607 -29.550  1.00  0.00    -0.025 A 
HETATM   19  N   UNL     1      -6.724   6.178 -28.145  1.00  0.00    -0.067 N 
HETATM   20  C   UNL     1      -6.320   7.609 -28.208  1.00  0.00     0.270 C 
HETATM   21  H   UNL     1      -6.816   5.903 -27.160  1.00  0.00     0.280 HD
HETATM   22  C   UNL     1      -8.067   5.877 -28.801  1.00  0.00     0.273 C 
HETATM   23  C   UNL     1      -8.788   3.851 -30.243  1.00  0.00     0.012 A 
HETATM   24  C   UNL     1      -8.343   2.711 -30.922  1.00  0.00     0.030 A 
ENDBRANCH  11  14
ENDBRANCH   1  10
BRANCH   5  25
HETATM   25  C   UNL     1      -7.843  -0.428 -34.647  1.00  0.00     0.218 C 
BRANCH  25  26
HETATM   26  O   UNL     1      -8.753  -0.108 -33.594  1.00  0.00    -0.347 OA
BRANCH  26  27
HETATM   27  C   UNL     1      -9.600   0.945 -33.795  1.00  0.00     0.069 A 
HETATM   28  C   UNL     1     -10.929   0.699 -33.437  1.00  0.00     0.037 A 
HETATM   29  C   UNL     1     -11.902   1.689 -33.583  1.00  0.00     0.003 A 
HETATM   30  C   UNL     1     -11.550   2.936 -34.089  1.00  0.00     0.000 A 
HETATM   31  C   UNL     1     -10.228   3.190 -34.451  1.00  0.00     0.003 A 
HETATM   32  C   UNL     1      -9.253   2.197 -34.306  1.00  0.00     0.037 A 
ENDBRANCH  26  27
ENDBRANCH  25  26
ENDBRANCH   5  25
TORSDOF 5
ENDMDL
MODEL 7
REMARK VINA RESULT:      -8.9      1.800      5.245
REMARK  5 active torsions:
REMARK  status: ('A' for Active; 'I' for Inactive)
REMARK    1  A    between atoms: C_9  and  N_10 
REMARK       I    between atoms: N_10  and  C_11 
REMARK    2  A    between atoms: C_11  and  C_12 
REMARK    3  A    between atoms: C_16  and  C_17 
REMARK    4  A    between atoms: C_17  and  O_18 
REMARK    5  A    between atoms: O_18  and  C_19 
ROOT
HETATM    1  C   UNL     1      -8.971   3.096 -33.512  1.00  0.00     0.153 A 
HETATM    2  O   UNL     1     -10.078   3.782 -33.082  1.00  0.00    -0.304 OA
HETATM    3  C   UNL     1     -11.145   2.947 -33.203  1.00  0.00     0.087 A 
HETATM    4  C   UNL     1     -10.739   1.712 -33.692  1.00  0.00     0.009 A 
HETATM    5  C   UNL     1      -9.326   1.808 -33.890  1.00  0.00     0.018 A 
HETATM    6  C   UNL     1     -12.460   3.273 -32.884  1.00  0.00     0.038 A 
HETATM    7  C   UNL     1     -13.415   2.271 -33.078  1.00  0.00     0.003 A 
HETATM    8  C   UNL     1     -13.052   1.012 -33.562  1.00  0.00     0.001 A 
HETATM    9  C   UNL     1     -11.717   0.715 -33.871  1.00  0.00     0.015 A 
ENDROOT
BRANCH   1  10
HETATM   10  C   UNL     1      -7.693   3.789 -33.515  1.00  0.00     0.280 C 
HETATM   11  N   UNL     1      -6.796   3.245 -32.609  1.00  0.00    -0.321 N 
HETATM   12  H   UNL     1      -7.147   2.430 -32.115  1.00  0.00     0.169 HD
HETATM   13  O   UNL     1      -7.460   4.753 -34.237  1.00  0.00    -0.265 OA
BRANCH  11  14
HETATM   14  C   UNL     1      -5.498   3.685 -32.297  1.00  0.00     0.035 A 
HETATM   15  C   UNL     1      -5.227   4.890 -31.641  1.00  0.00     0.039 A 
HETATM   16  C   UNL     1      -3.909   5.211 -31.347  1.00  0.00    -0.022 A 
HETATM   17  C   UNL     1      -3.408   6.405 -30.613  1.00  0.00     0.274 C 
HETATM   18  C   UNL     1      -2.858   4.364 -31.698  1.00  0.00    -0.025 A 
HETATM   19  N   UNL     1      -1.886   6.306 -30.689  1.00  0.00    -0.067 N 
HETATM   20  C   UNL     1      -1.193   6.646 -29.416  1.00  0.00     0.270 C 
HETATM   21  H   UNL     1      -1.595   6.973 -31.413  1.00  0.00     0.280 HD
HETATM   22  C   UNL     1      -1.558   4.918 -31.229  1.00  0.00     0.273 C 
HETATM   23  C   UNL     1      -3.103   3.173 -32.357  1.00  0.00     0.012 A 
HETATM   24  C   UNL     1      -4.430   2.837 -32.652  1.00  0.00     0.030 A 
ENDBRANCH  11  14
ENDBRANCH   1  10
BRANCH   5  25
HETATM   25  C   UNL     1      -8.409   0.736 -34.378  1.00  0.00     0.218 C 
BRANCH  25  26
HETATM   26  O   UNL     1      -7.642   0.224 -33.287  1.00  0.00    -0.347 OA
BRANCH  26  27
HETATM   27  C   UNL     1      -6.651  -0.669 -33.582  1.00  0.00     0.069 A 
HETATM   28  C   UNL     1      -7.061  -1.756 -34.359  1.00  0.00     0.037 A 
HETATM   29  C   UNL     1      -6.151  -2.744 -34.741  1.00  0.00     0.003 A 
HETATM   30  C   UNL     1      -4.820  -2.648 -34.347  1.00  0.00     0.000 A 
HETATM   31  C   UNL     1      -4.403  -1.568 -33.570  1.00  0.00     0.003 A 
HETATM   32  C   UNL     1      -5.315  -0.580 -33.187  1.00  0.00     0.037 A 
ENDBRANCH  26  27
ENDBRANCH  25  26
ENDBRANCH   5  25
TORSDOF 5
ENDMDL
MODEL 8
REMARK VINA RESULT:      -8.8      2.459      7.916
REMARK  5 active torsions:
REMARK  status: ('A' for Active; 'I' for Inactive)
REMARK    1  A    between atoms: C_9  and  N_10 
REMARK       I    between atoms: N_10  and  C_11 
REMARK    2  A    between atoms: C_11  and  C_12 
REMARK    3  A    between atoms: C_16  and  C_17 
REMARK    4  A    between atoms: C_17  and  O_18 
REMARK    5  A    between atoms: O_18  and  C_19 
ROOT
HETATM    1  C   UNL     1      -3.606   4.989 -33.146  1.00  0.00     0.153 A 
HETATM    2  O   UNL     1      -2.819   6.068 -33.459  1.00  0.00    -0.304 OA
HETATM    3  C   UNL     1      -1.791   6.092 -32.570  1.00  0.00     0.087 A 
HETATM    4  C   UNL     1      -1.890   5.023 -31.688  1.00  0.00     0.009 A 
HETATM    5  C   UNL     1      -3.068   4.305 -32.064  1.00  0.00     0.018 A 
HETATM    6  C   UNL     1      -0.777   7.046 -32.539  1.00  0.00     0.038 A 
HETATM    7  C   UNL     1       0.192   6.894 -31.544  1.00  0.00     0.003 A 
HETATM    8  C   UNL     1       0.136   5.831 -30.639  1.00  0.00     0.001 A 
HETATM    9  C   UNL     1      -0.896   4.885 -30.699  1.00  0.00     0.015 A 
ENDROOT
BRANCH   1  10
HETATM   10  C   UNL     1      -4.804   4.760 -33.938  1.00  0.00     0.280 C 
HETATM   11  N   UNL     1      -5.922   4.534 -33.150  1.00  0.00    -0.321 N 
HETATM   12  H   UNL     1      -5.747   4.601 -32.152  1.00  0.00     0.169 HD
HETATM   13  O   UNL     1      -4.800   4.760 -35.164  1.00  0.00    -0.265 OA
BRANCH  11  14
HETATM   14  C   UNL     1      -7.229   4.221 -33.562  1.00  0.00     0.035 A 
HETATM   15  C   UNL     1      -7.710   2.914 -33.679  1.00  0.00     0.039 A 
HETATM   16  C   UNL     1      -9.031   2.717 -34.059  1.00  0.00    -0.022 A 
HETATM   17  C   UNL     1      -9.754   1.423 -34.190  1.00  0.00     0.274 C 
HETATM   18  C   UNL     1      -9.877   3.791 -34.330  1.00  0.00    -0.025 A 
HETATM   19  N   UNL     1     -11.126   1.792 -34.749  1.00  0.00    -0.067 N 
HETATM   20  C   UNL     1     -12.255   1.056 -34.118  1.00  0.00     0.270 C 
HETATM   21  H   UNL     1     -11.096   1.558 -35.748  1.00  0.00     0.280 HD
HETATM   22  C   UNL     1     -11.245   3.310 -34.668  1.00  0.00     0.273 C 
HETATM   23  C   UNL     1      -9.418   5.092 -34.231  1.00  0.00     0.012 A 
HETATM   24  C   UNL     1      -8.089   5.301 -33.843  1.00  0.00     0.030 A 
ENDBRANCH  11  14
ENDBRANCH   1  10
BRANCH   5  25
HETATM   25  C   UNL     1      -3.600   3.057 -31.442  1.00  0.00     0.218 C 
BRANCH  25  26
HETATM   26  O   UNL     1      -2.918   1.922 -31.976  1.00  0.00    -0.347 OA
BRANCH  26  27
HETATM   27  C   UNL     1      -3.680   0.853 -32.356  1.00  0.00     0.069 A 
HETATM   28  C   UNL     1      -5.051   1.007 -32.128  1.00  0.00     0.037 A 
HETATM   29  C   UNL     1      -5.949  -0.004 -32.473  1.00  0.00     0.003 A 
HETATM   30  C   UNL     1      -5.480  -1.179 -33.053  1.00  0.00     0.000 A 
HETATM   31  C   UNL     1      -4.114  -1.342 -33.281  1.00  0.00     0.003 A 
HETATM   32  C   UNL     1      -3.214  -0.329 -32.933  1.00  0.00     0.037 A 
ENDBRANCH  26  27
ENDBRANCH  25  26
ENDBRANCH   5  25
TORSDOF 5
ENDMDL
MODEL 9
REMARK VINA RESULT:      -8.7      2.433      2.706
REMARK  5 active torsions:
REMARK  status: ('A' for Active; 'I' for Inactive)
REMARK    1  A    between atoms: C_9  and  N_10 
REMARK       I    between atoms: N_10  and  C_11 
REMARK    2  A    between atoms: C_11  and  C_12 
REMARK    3  A    between atoms: C_16  and  C_17 
REMARK    4  A    between atoms: C_17  and  O_18 
REMARK    5  A    between atoms: O_18  and  C_19 
ROOT
HETATM    1  C   UNL     1      -4.414  -0.655 -33.059  1.00  0.00     0.153 A 
HETATM    2  O   UNL     1      -3.601  -1.692 -32.681  1.00  0.00    -0.304 OA
HETATM    3  C   UNL     1      -4.062  -2.814 -33.295  1.00  0.00     0.087 A 
HETATM    4  C   UNL     1      -5.161  -2.513 -34.089  1.00  0.00     0.009 A 
HETATM    5  C   UNL     1      -5.388  -1.109 -33.939  1.00  0.00     0.018 A 
HETATM    6  C   UNL     1      -3.518  -4.088 -33.155  1.00  0.00     0.038 A 
HETATM    7  C   UNL     1      -4.138  -5.113 -33.875  1.00  0.00     0.003 A 
HETATM    8  C   UNL     1      -5.242  -4.856 -34.691  1.00  0.00     0.001 A 
HETATM    9  C   UNL     1      -5.765  -3.561 -34.812  1.00  0.00     0.015 A 
ENDROOT
BRANCH   1  10
HETATM   10  C   UNL     1      -4.149   0.663 -32.505  1.00  0.00     0.280 C 
HETATM   11  N   UNL     1      -5.310   1.392 -32.296  1.00  0.00    -0.321 N 
HETATM   12  H   UNL     1      -6.162   0.888 -32.521  1.00  0.00     0.169 HD
HETATM   13  O   UNL     1      -3.016   1.069 -32.268  1.00  0.00    -0.265 OA
BRANCH  11  14
HETATM   14  C   UNL     1      -5.438   2.713 -31.833  1.00  0.00     0.035 A 
HETATM   15  C   UNL     1      -5.612   3.047 -30.488  1.00  0.00     0.039 A 
HETATM   16  C   UNL     1      -5.690   4.387 -30.134  1.00  0.00    -0.022 A 
HETATM   17  C   UNL     1      -5.818   4.959 -28.765  1.00  0.00     0.274 C 
HETATM   18  C   UNL     1      -5.606   5.397 -31.091  1.00  0.00    -0.025 A 
HETATM   19  N   UNL     1      -5.981   6.462 -28.979  1.00  0.00    -0.067 N 
HETATM   20  C   UNL     1      -5.204   7.297 -28.023  1.00  0.00     0.270 C 
HETATM   21  H   UNL     1      -6.980   6.658 -28.854  1.00  0.00     0.280 HD
HETATM   22  C   UNL     1      -5.671   6.738 -30.446  1.00  0.00     0.273 C 
HETATM   23  C   UNL     1      -5.445   5.088 -32.430  1.00  0.00     0.012 A 
HETATM   24  C   UNL     1      -5.359   3.740 -32.795  1.00  0.00     0.030 A 
ENDBRANCH  11  14
ENDBRANCH   1  10
BRANCH   5  25
HETATM   25  C   UNL     1      -6.439  -0.289 -34.609  1.00  0.00     0.218 C 
BRANCH  25  26
HETATM   26  O   UNL     1      -7.687  -0.461 -33.936  1.00  0.00    -0.347 OA
BRANCH  26  27
HETATM   27  C   UNL     1      -8.214   0.628 -33.302  1.00  0.00     0.069 A 
HETATM   28  C   UNL     1      -8.327   1.768 -34.104  1.00  0.00     0.037 A 
HETATM   29  C   UNL     1      -8.855   2.953 -33.588  1.00  0.00     0.003 A 
HETATM   30  C   UNL     1      -9.277   3.004 -32.262  1.00  0.00     0.000 A 
HETATM   31  C   UNL     1      -9.165   1.873 -31.456  1.00  0.00     0.003 A 
HETATM   32  C   UNL     1      -8.635   0.686 -31.973  1.00  0.00     0.037 A 
ENDBRANCH  26  27
ENDBRANCH  25  26
ENDBRANCH   5  25
TORSDOF 5
ENDMDL
MODEL 10
REMARK VINA RESULT:      -8.6      3.030      7.468
REMARK  5 active torsions:
REMARK  status: ('A' for Active; 'I' for Inactive)
REMARK    1  A    between atoms: C_9  and  N_10 
REMARK       I    between atoms: N_10  and  C_11 
REMARK    2  A    between atoms: C_11  and  C_12 
REMARK    3  A    between atoms: C_16  and  C_17 
REMARK    4  A    between atoms: C_17  and  O_18 
REMARK    5  A    between atoms: O_18  and  C_19 
ROOT
HETATM    1  C   UNL     1      -7.610   0.033 -33.131  1.00  0.00     0.153 A 
HETATM    2  O   UNL     1      -7.968  -1.129 -33.764  1.00  0.00    -0.304 OA
HETATM    3  C   UNL     1      -6.823  -1.810 -34.039  1.00  0.00     0.087 A 
HETATM    4  C   UNL     1      -5.719  -1.108 -33.572  1.00  0.00     0.009 A 
HETATM    5  C   UNL     1      -6.231   0.088 -32.978  1.00  0.00     0.018 A 
HETATM    6  C   UNL     1      -6.755  -3.036 -34.695  1.00  0.00     0.038 A 
HETATM    7  C   UNL     1      -5.479  -3.574 -34.880  1.00  0.00     0.003 A 
HETATM    8  C   UNL     1      -4.340  -2.906 -34.422  1.00  0.00     0.001 A 
HETATM    9  C   UNL     1      -4.443  -1.673 -33.762  1.00  0.00     0.015 A 
ENDROOT
BRANCH   1  10
HETATM   10  C   UNL     1      -8.664   0.964 -32.757  1.00  0.00     0.280 C 
HETATM   11  N   UNL     1      -9.326   1.481 -33.860  1.00  0.00    -0.321 N 
HETATM   12  H   UNL     1      -9.007   1.108 -34.749  1.00  0.00     0.169 HD
HETATM   13  O   UNL     1      -8.913   1.253 -31.592  1.00  0.00    -0.265 OA
BRANCH  11  14
HETATM   14  C   UNL     1     -10.350   2.443 -33.888  1.00  0.00     0.035 A 
HETATM   15  C   UNL     1     -11.612   2.245 -33.321  1.00  0.00     0.039 A 
HETATM   16  C   UNL     1     -12.540   3.277 -33.372  1.00  0.00    -0.022 A 
HETATM   17  C   UNL     1     -13.909   3.298 -32.788  1.00  0.00     0.274 C 
HETATM   18  C   UNL     1     -12.239   4.495 -33.981  1.00  0.00    -0.025 A 
HETATM   19  N   UNL     1     -14.516   4.621 -33.250  1.00  0.00    -0.067 N 
HETATM   20  C   UNL     1     -15.288   5.333 -32.196  1.00  0.00     0.270 C 
HETATM   21  H   UNL     1     -15.149   4.386 -34.023  1.00  0.00     0.280 HD
HETATM   22  C   UNL     1     -13.383   5.440 -33.859  1.00  0.00     0.273 C 
HETATM   23  C   UNL     1     -11.000   4.708 -34.558  1.00  0.00     0.012 A 
HETATM   24  C   UNL     1     -10.056   3.675 -34.506  1.00  0.00     0.030 A 
ENDBRANCH  11  14
ENDBRANCH   1  10
BRANCH   5  25
HETATM   25  C   UNL     1      -5.449   1.168 -32.306  1.00  0.00     0.218 C 
BRANCH  25  26
HETATM   26  O   UNL     1      -5.914   2.445 -32.745  1.00  0.00    -0.347 OA
BRANCH  26  27
HETATM   27  C   UNL     1      -4.976   3.337 -33.184  1.00  0.00     0.069 A 
HETATM   28  C   UNL     1      -3.706   3.166 -32.625  1.00  0.00     0.037 A 
HETATM   29  C   UNL     1      -2.649   4.003 -32.988  1.00  0.00     0.003 A 
HETATM   30  C   UNL     1      -2.858   5.019 -33.917  1.00  0.00     0.000 A 
HETATM   31  C   UNL     1      -4.122   5.197 -34.477  1.00  0.00     0.003 A 
HETATM   32  C   UNL     1      -5.181   4.359 -34.112  1.00  0.00     0.037 A 
ENDBRANCH  26  27
ENDBRANCH  25  26
ENDBRANCH   5  25
TORSDOF 5
ENDMDL
