MODEL 1
REMARK VINA RESULT:      -9.5      0.000      0.000
REMARK  8 active torsions:
REMARK  status: ('A' for Active; 'I' for Inactive)
REMARK    1  A    between atoms: O_2  and  C_3 
REMARK    2  A    between atoms: C_6  and  C_7 
REMARK    3  A    between atoms: C_11  and  C_12 
REMARK       I    between atoms: C_12  and  N_13 
REMARK    4  A    between atoms: N_13  and  N_14 
REMARK       I    between atoms: N_14  and  C_15 
REMARK    5  A    between atoms: C_15  and  C_16 
REMARK    6  A    between atoms: C_16  and  C_17 
REMARK    7  A    between atoms: C_17  and  C_18 
REMARK    8  A    between atoms: N_20  and  C_21 
ROOT
HETATM    1  C   UNL     1      -1.437   5.574 -31.294  1.00  0.00     0.288 C 
HETATM    2  N   UNL     1      -2.005   4.320 -31.236  1.00  0.00    -0.262 N 
HETATM    3  O   UNL     1      -1.563   6.302 -32.277  1.00  0.00    -0.264 OA
HETATM    4  H   UNL     1      -1.891   3.677 -30.457  1.00  0.00     0.190 HD
ENDROOT
BRANCH   2   5
HETATM    5  N   UNL     1      -2.813   3.879 -32.290  1.00  0.00    -0.267 N 
HETATM    6  C   UNL     1      -4.166   3.801 -32.056  1.00  0.00     0.236 C 
HETATM    7  O   UNL     1      -4.664   4.224 -31.010  1.00  0.00    -0.272 OA
HETATM    8  H   UNL     1      -2.336   3.367 -33.028  1.00  0.00     0.190 HD
BRANCH   6   9
HETATM    9  C   UNL     1      -5.035   3.305 -33.195  1.00  0.00     0.109 C 
BRANCH   9  10
HETATM   10  C   UNL     1      -6.279   2.507 -32.823  1.00  0.00     0.051 C 
BRANCH  10  11
HETATM   11  C   UNL     1      -6.412   1.212 -33.546  1.00  0.00    -0.021 A 
HETATM   12  C   UNL     1      -5.810   0.007 -33.249  1.00  0.00     0.127 A 
HETATM   13  N   UNL     1      -6.195  -0.904 -34.214  1.00  0.00    -0.245 N 
HETATM   14  N   UNL     1      -7.039  -0.328 -35.109  1.00  0.00    -0.180 NA
HETATM   15  C   UNL     1      -7.157   0.935 -34.708  1.00  0.00     0.147 A 
BRANCH  13  16
HETATM   16  C   UNL     1      -5.804  -2.266 -34.344  1.00  0.00     0.058 A 
HETATM   17  C   UNL     1      -6.696  -3.239 -34.814  1.00  0.00     0.031 A 
HETATM   18  C   UNL     1      -6.288  -4.572 -34.916  1.00  0.00     0.002 A 
HETATM   19  C   UNL     1      -4.994  -4.941 -34.554  1.00  0.00     0.000 A 
HETATM   20  C   UNL     1      -4.100  -3.979 -34.091  1.00  0.00     0.002 A 
HETATM   21  C   UNL     1      -4.500  -2.645 -33.985  1.00  0.00     0.031 A 
ENDBRANCH  13  16
ENDBRANCH  10  11
ENDBRANCH   9  10
ENDBRANCH   6   9
ENDBRANCH   2   5
BRANCH   1  22
HETATM   22  C   UNL     1      -0.721   5.972 -30.112  1.00  0.00     0.121 A 
HETATM   23  N   UNL     1       0.069   5.104 -29.411  1.00  0.00    -0.272 N 
HETATM   24  N   UNL     1       0.738   5.668 -28.393  1.00  0.00    -0.174 NA
HETATM   25  H   UNL     1       0.217   4.118 -29.607  1.00  0.00     0.189 HD
HETATM   26  C   UNL     1       0.334   6.948 -28.392  1.00  0.00     0.089 A 
HETATM   27  C   UNL     1      -0.597   7.174 -29.444  1.00  0.00     0.071 A 
BRANCH  26  28
HETATM   28  C   UNL     1       0.865   7.935 -27.453  1.00  0.00    -0.005 A 
HETATM   29  C   UNL     1       0.500   9.284 -27.561  1.00  0.00     0.016 A 
HETATM   30  C   UNL     1       0.931  10.223 -26.615  1.00  0.00     0.037 A 
HETATM   31  C   UNL     1       1.739   9.822 -25.552  1.00  0.00     0.068 A 
HETATM   32  C   UNL     1       2.147   8.491 -25.467  1.00  0.00     0.037 A 
HETATM   33  C   UNL     1       1.709   7.550 -26.404  1.00  0.00     0.016 A 
BRANCH  31  34
HETATM   34  O   UNL     1       2.205  10.635 -24.557  1.00  0.00    -0.356 OA
HETATM   35  C   UNL     1       1.549  10.516 -23.299  1.00  0.00     0.210 C 
ENDBRANCH  31  34
ENDBRANCH  26  28
ENDBRANCH   1  22
TORSDOF 8
ENDMDL
MODEL 2
REMARK VINA RESULT:      -9.2      1.641      2.377
REMARK  8 active torsions:
REMARK  status: ('A' for Active; 'I' for Inactive)
REMARK    1  A    between atoms: O_2  and  C_3 
REMARK    2  A    between atoms: C_6  and  C_7 
REMARK    3  A    between atoms: C_11  and  C_12 
REMARK       I    between atoms: C_12  and  N_13 
REMARK    4  A    between atoms: N_13  and  N_14 
REMARK       I    between atoms: N_14  and  C_15 
REMARK    5  A    between atoms: C_15  and  C_16 
REMARK    6  A    between atoms: C_16  and  C_17 
REMARK    7  A    between atoms: C_17  and  C_18 
REMARK    8  A    between atoms: N_20  and  C_21 
ROOT
HETATM    1  C   UNL     1      -0.262   5.504 -29.812  1.00  0.00     0.288 C 
HETATM    2  N   UNL     1      -1.511   5.478 -30.393  1.00  0.00    -0.262 N 
HETATM    3  O   UNL     1       0.550   4.595 -29.974  1.00  0.00    -0.264 OA
HETATM    4  H   UNL     1      -2.222   6.192 -30.252  1.00  0.00     0.190 HD
ENDROOT
BRANCH   2   5
HETATM    5  N   UNL     1      -1.851   4.428 -31.254  1.00  0.00    -0.267 N 
HETATM    6  C   UNL     1      -3.157   4.361 -31.680  1.00  0.00     0.236 C 
HETATM    7  O   UNL     1      -3.966   5.256 -31.423  1.00  0.00    -0.272 OA
HETATM    8  H   UNL     1      -1.212   3.636 -31.259  1.00  0.00     0.190 HD
BRANCH   6   9
HETATM    9  C   UNL     1      -3.524   3.211 -32.598  1.00  0.00     0.109 C 
BRANCH   9  10
HETATM   10  C   UNL     1      -4.595   2.244 -32.107  1.00  0.00     0.051 C 
BRANCH  10  11
HETATM   11  C   UNL     1      -4.339   0.820 -32.457  1.00  0.00    -0.021 A 
HETATM   12  C   UNL     1      -5.147  -0.038 -33.175  1.00  0.00     0.127 A 
HETATM   13  N   UNL     1      -4.520  -1.268 -33.219  1.00  0.00    -0.245 N 
HETATM   14  N   UNL     1      -3.327  -1.222 -32.569  1.00  0.00    -0.180 NA
HETATM   15  C   UNL     1      -3.230   0.023 -32.112  1.00  0.00     0.147 A 
BRANCH  13  16
HETATM   16  C   UNL     1      -4.984  -2.472 -33.819  1.00  0.00     0.058 A 
HETATM   17  C   UNL     1      -4.202  -3.635 -33.818  1.00  0.00     0.031 A 
HETATM   18  C   UNL     1      -4.678  -4.798 -34.430  1.00  0.00     0.002 A 
HETATM   19  C   UNL     1      -5.930  -4.809 -35.042  1.00  0.00     0.000 A 
HETATM   20  C   UNL     1      -6.714  -3.658 -35.043  1.00  0.00     0.002 A 
HETATM   21  C   UNL     1      -6.245  -2.492 -34.434  1.00  0.00     0.031 A 
ENDBRANCH  13  16
ENDBRANCH  10  11
ENDBRANCH   9  10
ENDBRANCH   6   9
ENDBRANCH   2   5
BRANCH   1  22
HETATM   22  C   UNL     1       0.023   6.681 -29.037  1.00  0.00     0.121 A 
HETATM   23  N   UNL     1      -0.646   7.858 -29.226  1.00  0.00    -0.272 N 
HETATM   24  N   UNL     1      -0.318   8.823 -28.351  1.00  0.00    -0.174 NA
HETATM   25  H   UNL     1      -1.365   8.048 -29.917  1.00  0.00     0.189 HD
HETATM   26  C   UNL     1       0.640   8.276 -27.588  1.00  0.00     0.089 A 
HETATM   27  C   UNL     1       0.898   6.939 -28.000  1.00  0.00     0.071 A 
BRANCH  26  28
HETATM   28  C   UNL     1       1.249   8.990 -26.466  1.00  0.00    -0.005 A 
HETATM   29  C   UNL     1       2.215   8.361 -25.668  1.00  0.00     0.016 A 
HETATM   30  C   UNL     1       2.869   9.063 -24.647  1.00  0.00     0.037 A 
HETATM   31  C   UNL     1       2.558  10.401 -24.409  1.00  0.00     0.068 A 
HETATM   32  C   UNL     1       1.562  11.017 -25.167  1.00  0.00     0.037 A 
HETATM   33  C   UNL     1       0.916  10.322 -26.194  1.00  0.00     0.016 A 
BRANCH  31  34
HETATM   34  O   UNL     1       3.140  11.196 -23.461  1.00  0.00    -0.356 OA
HETATM   35  C   UNL     1       3.955  10.528 -22.505  1.00  0.00     0.210 C 
ENDBRANCH  31  34
ENDBRANCH  26  28
ENDBRANCH   1  22
TORSDOF 8
ENDMDL
MODEL 3
REMARK VINA RESULT:      -9.1      6.245     11.274
REMARK  8 active torsions:
REMARK  status: ('A' for Active; 'I' for Inactive)
REMARK    1  A    between atoms: O_2  and  C_3 
REMARK    2  A    between atoms: C_6  and  C_7 
REMARK    3  A    between atoms: C_11  and  C_12 
REMARK       I    between atoms: C_12  and  N_13 
REMARK    4  A    between atoms: N_13  and  N_14 
REMARK       I    between atoms: N_14  and  C_15 
REMARK    5  A    between atoms: C_15  and  C_16 
REMARK    6  A    between atoms: C_16  and  C_17 
REMARK    7  A    between atoms: C_17  and  C_18 
REMARK    8  A    between atoms: N_20  and  C_21 
ROOT
HETATM    1  C   UNL     1      -8.121   2.545 -33.709  1.00  0.00     0.288 C 
HETATM    2  N   UNL     1      -7.546   3.509 -32.909  1.00  0.00    -0.262 N 
HETATM    3  O   UNL     1      -7.455   1.661 -34.244  1.00  0.00    -0.264 OA
HETATM    4  H   UNL     1      -8.058   4.276 -32.481  1.00  0.00     0.190 HD
ENDROOT
BRANCH   2   5
HETATM    5  N   UNL     1      -6.176   3.447 -32.631  1.00  0.00    -0.267 N 
HETATM    6  C   UNL     1      -5.803   2.915 -31.418  1.00  0.00     0.236 C 
HETATM    7  O   UNL     1      -6.627   2.394 -30.663  1.00  0.00    -0.272 OA
HETATM    8  H   UNL     1      -5.584   4.062 -33.185  1.00  0.00     0.190 HD
BRANCH   6   9
HETATM    9  C   UNL     1      -4.319   2.868 -31.113  1.00  0.00     0.109 C 
BRANCH   9  10
HETATM   10  C   UNL     1      -3.417   2.210 -32.152  1.00  0.00     0.051 C 
BRANCH  10  11
HETATM   11  C   UNL     1      -3.620   0.742 -32.294  1.00  0.00    -0.021 A 
HETATM   12  C   UNL     1      -4.347   0.073 -33.258  1.00  0.00     0.127 A 
HETATM   13  N   UNL     1      -4.286  -1.276 -32.968  1.00  0.00    -0.245 N 
HETATM   14  N   UNL     1      -3.528  -1.497 -31.862  1.00  0.00    -0.180 NA
HETATM   15  C   UNL     1      -3.142  -0.288 -31.461  1.00  0.00     0.147 A 
BRANCH  13  16
HETATM   16  C   UNL     1      -4.906  -2.353 -33.661  1.00  0.00     0.058 A 
HETATM   17  C   UNL     1      -6.218  -2.250 -34.144  1.00  0.00     0.031 A 
HETATM   18  C   UNL     1      -6.806  -3.331 -34.807  1.00  0.00     0.002 A 
HETATM   19  C   UNL     1      -6.094  -4.515 -34.992  1.00  0.00     0.000 A 
HETATM   20  C   UNL     1      -4.789  -4.623 -34.518  1.00  0.00     0.002 A 
HETATM   21  C   UNL     1      -4.194  -3.548 -33.855  1.00  0.00     0.031 A 
ENDBRANCH  13  16
ENDBRANCH  10  11
ENDBRANCH   9  10
ENDBRANCH   6   9
ENDBRANCH   2   5
BRANCH   1  22
HETATM   22  C   UNL     1      -9.550   2.637 -33.838  1.00  0.00     0.121 A 
HETATM   23  N   UNL     1     -10.162   2.842 -35.043  1.00  0.00    -0.272 N 
HETATM   24  N   UNL     1     -11.503   2.803 -34.993  1.00  0.00    -0.174 NA
HETATM   25  H   UNL     1      -9.709   2.978 -35.943  1.00  0.00     0.189 HD
HETATM   26  C   UNL     1     -11.787   2.616 -33.695  1.00  0.00     0.089 A 
HETATM   27  C   UNL     1     -10.588   2.527 -32.935  1.00  0.00     0.071 A 
BRANCH  26  28
HETATM   28  C   UNL     1     -13.158   2.470 -33.207  1.00  0.00    -0.005 A 
HETATM   29  C   UNL     1     -13.663   3.350 -32.240  1.00  0.00     0.016 A 
HETATM   30  C   UNL     1     -15.000   3.275 -31.831  1.00  0.00     0.037 A 
HETATM   31  C   UNL     1     -15.846   2.313 -32.381  1.00  0.00     0.068 A 
HETATM   32  C   UNL     1     -15.337   1.403 -33.307  1.00  0.00     0.037 A 
HETATM   33  C   UNL     1     -14.005   1.483 -33.725  1.00  0.00     0.016 A 
BRANCH  31  34
HETATM   34  O   UNL     1     -17.171   2.154 -32.081  1.00  0.00    -0.356 OA
HETATM   35  C   UNL     1     -17.947   3.346 -32.044  1.00  0.00     0.210 C 
ENDBRANCH  31  34
ENDBRANCH  26  28
ENDBRANCH   1  22
TORSDOF 8
ENDMDL
MODEL 4
REMARK VINA RESULT:      -9.0      2.423     12.771
REMARK  8 active torsions:
REMARK  status: ('A' for Active; 'I' for Inactive)
REMARK    1  A    between atoms: O_2  and  C_3 
REMARK    2  A    between atoms: C_6  and  C_7 
REMARK    3  A    between atoms: C_11  and  C_12 
REMARK       I    between atoms: C_12  and  N_13 
REMARK    4  A    between atoms: N_13  and  N_14 
REMARK       I    between atoms: N_14  and  C_15 
REMARK    5  A    between atoms: C_15  and  C_16 
REMARK    6  A    between atoms: C_16  and  C_17 
REMARK    7  A    between atoms: C_17  and  C_18 
REMARK    8  A    between atoms: N_20  and  C_21 
ROOT
HETATM    1  C   UNL     1      -4.358   4.141 -31.248  1.00  0.00     0.288 C 
HETATM    2  N   UNL     1      -2.983   4.117 -31.174  1.00  0.00    -0.262 N 
HETATM    3  O   UNL     1      -5.008   5.147 -30.968  1.00  0.00    -0.264 OA
HETATM    4  H   UNL     1      -2.415   3.295 -31.362  1.00  0.00     0.190 HD
ENDROOT
BRANCH   2   5
HETATM    5  N   UNL     1      -2.289   5.286 -30.843  1.00  0.00    -0.267 N 
HETATM    6  C   UNL     1      -1.436   5.802 -31.791  1.00  0.00     0.236 C 
HETATM    7  O   UNL     1      -1.381   5.334 -32.931  1.00  0.00    -0.272 OA
HETATM    8  H   UNL     1      -2.224   5.495 -29.849  1.00  0.00     0.190 HD
BRANCH   6   9
HETATM    9  C   UNL     1      -0.673   7.059 -31.420  1.00  0.00     0.109 C 
BRANCH   9  10
HETATM   10  C   UNL     1       0.483   6.905 -30.438  1.00  0.00     0.051 C 
BRANCH  10  11
HETATM   11  C   UNL     1       0.221   7.487 -29.093  1.00  0.00    -0.021 A 
HETATM   12  C   UNL     1       1.142   7.901 -28.152  1.00  0.00     0.127 A 
HETATM   13  N   UNL     1       0.442   8.336 -27.043  1.00  0.00    -0.245 N 
HETATM   14  N   UNL     1      -0.897   8.233 -27.249  1.00  0.00    -0.180 NA
HETATM   15  C   UNL     1      -1.020   7.718 -28.469  1.00  0.00     0.147 A 
BRANCH  13  16
HETATM   16  C   UNL     1       0.960   8.824 -25.811  1.00  0.00     0.058 A 
HETATM   17  C   UNL     1       2.283   8.568 -25.424  1.00  0.00     0.031 A 
HETATM   18  C   UNL     1       2.759   9.047 -24.200  1.00  0.00     0.002 A 
HETATM   19  C   UNL     1       1.924   9.781 -23.360  1.00  0.00     0.000 A 
HETATM   20  C   UNL     1       0.611  10.043 -23.739  1.00  0.00     0.002 A 
HETATM   21  C   UNL     1       0.127   9.568 -24.960  1.00  0.00     0.031 A 
ENDBRANCH  13  16
ENDBRANCH  10  11
ENDBRANCH   9  10
ENDBRANCH   6   9
ENDBRANCH   2   5
BRANCH   1  22
HETATM   22  C   UNL     1      -4.963   2.920 -31.706  1.00  0.00     0.121 A 
HETATM   23  N   UNL     1      -6.304   2.682 -31.590  1.00  0.00    -0.272 N 
HETATM   24  N   UNL     1      -6.711   1.534 -32.157  1.00  0.00    -0.174 NA
HETATM   25  H   UNL     1      -6.998   3.289 -31.163  1.00  0.00     0.189 HD
HETATM   26  C   UNL     1      -5.585   0.970 -32.620  1.00  0.00     0.089 A 
HETATM   27  C   UNL     1      -4.464   1.799 -32.339  1.00  0.00     0.071 A 
BRANCH  26  28
HETATM   28  C   UNL     1      -5.590  -0.293 -33.358  1.00  0.00    -0.005 A 
HETATM   29  C   UNL     1      -4.430  -1.077 -33.427  1.00  0.00     0.016 A 
HETATM   30  C   UNL     1      -4.447  -2.330 -34.054  1.00  0.00     0.037 A 
HETATM   31  C   UNL     1      -5.624  -2.808 -34.627  1.00  0.00     0.068 A 
HETATM   32  C   UNL     1      -6.769  -2.011 -34.606  1.00  0.00     0.037 A 
HETATM   33  C   UNL     1      -6.757  -0.766 -33.970  1.00  0.00     0.016 A 
BRANCH  31  34
HETATM   34  O   UNL     1      -5.773  -4.018 -35.245  1.00  0.00    -0.356 OA
HETATM   35  C   UNL     1      -5.134  -5.122 -34.614  1.00  0.00     0.210 C 
ENDBRANCH  31  34
ENDBRANCH  26  28
ENDBRANCH   1  22
TORSDOF 8
ENDMDL
MODEL 5
REMARK VINA RESULT:      -8.8      2.466      4.130
REMARK  8 active torsions:
REMARK  status: ('A' for Active; 'I' for Inactive)
REMARK    1  A    between atoms: O_2  and  C_3 
REMARK    2  A    between atoms: C_6  and  C_7 
REMARK    3  A    between atoms: C_11  and  C_12 
REMARK       I    between atoms: C_12  and  N_13 
REMARK    4  A    between atoms: N_13  and  N_14 
REMARK       I    between atoms: N_14  and  C_15 
REMARK    5  A    between atoms: C_15  and  C_16 
REMARK    6  A    between atoms: C_16  and  C_17 
REMARK    7  A    between atoms: C_17  and  C_18 
REMARK    8  A    between atoms: N_20  and  C_21 
ROOT
HETATM    1  C   UNL     1      -2.329   4.121 -32.088  1.00  0.00     0.288 C 
HETATM    2  N   UNL     1      -3.019   3.064 -31.536  1.00  0.00    -0.262 N 
HETATM    3  O   UNL     1      -2.125   4.205 -33.298  1.00  0.00    -0.264 OA
HETATM    4  H   UNL     1      -3.175   2.943 -30.539  1.00  0.00     0.190 HD
ENDROOT
BRANCH   2   5
HETATM    5  N   UNL     1      -3.573   2.089 -32.373  1.00  0.00    -0.267 N 
HETATM    6  C   UNL     1      -3.271   0.776 -32.094  1.00  0.00     0.236 C 
HETATM    7  O   UNL     1      -2.649   0.459 -31.078  1.00  0.00    -0.272 OA
HETATM    8  H   UNL     1      -3.893   2.416 -33.281  1.00  0.00     0.190 HD
BRANCH   6   9
HETATM    9  C   UNL     1      -3.859  -0.276 -33.015  1.00  0.00     0.109 C 
BRANCH   9  10
HETATM   10  C   UNL     1      -4.975  -1.148 -32.450  1.00  0.00     0.051 C 
BRANCH  10  11
HETATM   11  C   UNL     1      -6.279  -0.446 -32.296  1.00  0.00    -0.021 A 
HETATM   12  C   UNL     1      -7.216  -0.169 -33.270  1.00  0.00     0.127 A 
HETATM   13  N   UNL     1      -8.247   0.531 -32.674  1.00  0.00    -0.245 N 
HETATM   14  N   UNL     1      -8.012   0.695 -31.346  1.00  0.00    -0.180 NA
HETATM   15  C   UNL     1      -6.833   0.117 -31.130  1.00  0.00     0.147 A 
BRANCH  13  16
HETATM   16  C   UNL     1      -9.420   1.059 -33.283  1.00  0.00     0.058 A 
HETATM   17  C   UNL     1      -9.387   2.255 -34.012  1.00  0.00     0.031 A 
HETATM   18  C   UNL     1     -10.559   2.757 -34.585  1.00  0.00     0.002 A 
HETATM   19  C   UNL     1     -11.764   2.072 -34.437  1.00  0.00     0.000 A 
HETATM   20  C   UNL     1     -11.803   0.881 -33.717  1.00  0.00     0.002 A 
HETATM   21  C   UNL     1     -10.637   0.373 -33.141  1.00  0.00     0.031 A 
ENDBRANCH  13  16
ENDBRANCH  10  11
ENDBRANCH   9  10
ENDBRANCH   6   9
ENDBRANCH   2   5
BRANCH   1  22
HETATM   22  C   UNL     1      -1.900   5.123 -31.151  1.00  0.00     0.121 A 
HETATM   23  N   UNL     1      -2.707   6.159 -30.770  1.00  0.00    -0.272 N 
HETATM   24  N   UNL     1      -2.181   6.944 -29.816  1.00  0.00    -0.174 NA
HETATM   25  H   UNL     1      -3.645   6.357 -31.105  1.00  0.00     0.189 HD
HETATM   26  C   UNL     1      -0.960   6.435 -29.595  1.00  0.00     0.089 A 
HETATM   27  C   UNL     1      -0.737   5.304 -30.428  1.00  0.00     0.071 A 
BRANCH  26  28
HETATM   28  C   UNL     1      -0.057   6.979 -28.580  1.00  0.00    -0.005 A 
HETATM   29  C   UNL     1       0.829   8.015 -28.903  1.00  0.00     0.016 A 
HETATM   30  C   UNL     1       1.634   8.603 -27.919  1.00  0.00     0.037 A 
HETATM   31  C   UNL     1       1.566   8.155 -26.601  1.00  0.00     0.068 A 
HETATM   32  C   UNL     1       0.722   7.090 -26.283  1.00  0.00     0.037 A 
HETATM   33  C   UNL     1      -0.091   6.509 -27.261  1.00  0.00     0.016 A 
BRANCH  31  34
HETATM   34  O   UNL     1       2.281   8.660 -25.551  1.00  0.00    -0.356 OA
HETATM   35  C   UNL     1       1.536   9.400 -24.590  1.00  0.00     0.210 C 
ENDBRANCH  31  34
ENDBRANCH  26  28
ENDBRANCH   1  22
TORSDOF 8
ENDMDL
MODEL 6
REMARK VINA RESULT:      -8.8      1.556      1.983
REMARK  8 active torsions:
REMARK  status: ('A' for Active; 'I' for Inactive)
REMARK    1  A    between atoms: O_2  and  C_3 
REMARK    2  A    between atoms: C_6  and  C_7 
REMARK    3  A    between atoms: C_11  and  C_12 
REMARK       I    between atoms: C_12  and  N_13 
REMARK    4  A    between atoms: N_13  and  N_14 
REMARK       I    between atoms: N_14  and  C_15 
REMARK    5  A    between atoms: C_15  and  C_16 
REMARK    6  A    between atoms: C_16  and  C_17 
REMARK    7  A    between atoms: C_17  and  C_18 
REMARK    8  A    between atoms: N_20  and  C_21 
ROOT
HETATM    1  C   UNL     1      -2.399   4.661 -32.429  1.00  0.00     0.288 C 
HETATM    2  N   UNL     1      -3.514   5.377 -32.806  1.00  0.00    -0.262 N 
HETATM    3  O   UNL     1      -2.223   3.497 -32.783  1.00  0.00    -0.264 OA
HETATM    4  H   UNL     1      -3.712   6.327 -32.504  1.00  0.00     0.190 HD
ENDROOT
BRANCH   2   5
HETATM    5  N   UNL     1      -4.444   4.798 -33.678  1.00  0.00    -0.267 N 
HETATM    6  C   UNL     1      -5.612   4.323 -33.127  1.00  0.00     0.236 C 
HETATM    7  O   UNL     1      -5.889   4.513 -31.940  1.00  0.00    -0.272 OA
HETATM    8  H   UNL     1      -4.078   4.495 -34.577  1.00  0.00     0.190 HD
BRANCH   6   9
HETATM    9  C   UNL     1      -6.608   3.680 -34.072  1.00  0.00     0.109 C 
BRANCH   9  10
HETATM   10  C   UNL     1      -7.601   2.693 -33.469  1.00  0.00     0.051 C 
BRANCH  10  11
HETATM   11  C   UNL     1      -7.036   1.341 -33.209  1.00  0.00    -0.021 A 
HETATM   12  C   UNL     1      -6.862   0.306 -34.104  1.00  0.00     0.127 A 
HETATM   13  N   UNL     1      -6.340  -0.768 -33.409  1.00  0.00    -0.245 N 
HETATM   14  N   UNL     1      -6.156  -0.449 -32.101  1.00  0.00    -0.180 NA
HETATM   15  C   UNL     1      -6.581   0.806 -31.988  1.00  0.00     0.147 A 
BRANCH  13  16
HETATM   16  C   UNL     1      -6.023  -2.065 -33.900  1.00  0.00     0.058 A 
HETATM   17  C   UNL     1      -7.007  -2.895 -34.456  1.00  0.00     0.031 A 
HETATM   18  C   UNL     1      -6.668  -4.170 -34.916  1.00  0.00     0.002 A 
HETATM   19  C   UNL     1      -5.354  -4.624 -34.827  1.00  0.00     0.000 A 
HETATM   20  C   UNL     1      -4.370  -3.804 -34.280  1.00  0.00     0.002 A 
HETATM   21  C   UNL     1      -4.701  -2.528 -33.818  1.00  0.00     0.031 A 
ENDBRANCH  13  16
ENDBRANCH  10  11
ENDBRANCH   9  10
ENDBRANCH   6   9
ENDBRANCH   2   5
BRANCH   1  22
HETATM   22  C   UNL     1      -1.454   5.388 -31.625  1.00  0.00     0.121 A 
HETATM   23  N   UNL     1      -0.533   6.237 -32.172  1.00  0.00    -0.272 N 
HETATM   24  N   UNL     1       0.204   6.904 -31.269  1.00  0.00    -0.174 NA
HETATM   25  H   UNL     1      -0.387   6.427 -33.159  1.00  0.00     0.189 HD
HETATM   26  C   UNL     1      -0.214   6.439 -30.082  1.00  0.00     0.089 A 
HETATM   27  C   UNL     1      -1.240   5.471 -30.264  1.00  0.00     0.071 A 
BRANCH  26  28
HETATM   28  C   UNL     1       0.310   6.946 -28.814  1.00  0.00    -0.005 A 
HETATM   29  C   UNL     1       1.091   8.109 -28.785  1.00  0.00     0.016 A 
HETATM   30  C   UNL     1       1.525   8.652 -27.569  1.00  0.00     0.037 A 
HETATM   31  C   UNL     1       1.186   8.033 -26.367  1.00  0.00     0.068 A 
HETATM   32  C   UNL     1       0.451   6.847 -26.392  1.00  0.00     0.037 A 
HETATM   33  C   UNL     1       0.008   6.309 -27.604  1.00  0.00     0.016 A 
BRANCH  31  34
HETATM   34  O   UNL     1       1.528   8.476 -25.120  1.00  0.00    -0.356 OA
HETATM   35  C   UNL     1       2.888   8.854 -24.946  1.00  0.00     0.210 C 
ENDBRANCH  31  34
ENDBRANCH  26  28
ENDBRANCH   1  22
TORSDOF 8
ENDMDL
MODEL 7
REMARK VINA RESULT:      -8.4      3.752     11.325
REMARK  8 active torsions:
REMARK  status: ('A' for Active; 'I' for Inactive)
REMARK    1  A    between atoms: O_2  and  C_3 
REMARK    2  A    between atoms: C_6  and  C_7 
REMARK    3  A    between atoms: C_11  and  C_12 
REMARK       I    between atoms: C_12  and  N_13 
REMARK    4  A    between atoms: N_13  and  N_14 
REMARK       I    between atoms: N_14  and  C_15 
REMARK    5  A    between atoms: C_15  and  C_16 
REMARK    6  A    between atoms: C_16  and  C_17 
REMARK    7  A    between atoms: C_17  and  C_18 
REMARK    8  A    between atoms: N_20  and  C_21 
ROOT
HETATM    1  C   UNL     1      -5.478   3.763 -29.942  1.00  0.00     0.288 C 
HETATM    2  N   UNL     1      -6.254   4.075 -28.847  1.00  0.00    -0.262 N 
HETATM    3  O   UNL     1      -4.674   4.562 -30.419  1.00  0.00    -0.264 OA
HETATM    4  H   UNL     1      -6.954   3.455 -28.448  1.00  0.00     0.190 HD
ENDROOT
BRANCH   2   5
HETATM    5  N   UNL     1      -6.078   5.306 -28.204  1.00  0.00    -0.267 N 
HETATM    6  C   UNL     1      -6.960   6.313 -28.521  1.00  0.00     0.236 C 
HETATM    7  O   UNL     1      -7.942   6.107 -29.239  1.00  0.00    -0.272 OA
HETATM    8  H   UNL     1      -5.159   5.465 -27.798  1.00  0.00     0.190 HD
BRANCH   6   9
HETATM    9  C   UNL     1      -6.754   7.649 -27.836  1.00  0.00     0.109 C 
BRANCH   9  10
HETATM   10  C   UNL     1      -6.561   8.867 -28.733  1.00  0.00     0.051 C 
BRANCH  10  11
HETATM   11  C   UNL     1      -5.324   8.825 -29.560  1.00  0.00    -0.021 A 
HETATM   12  C   UNL     1      -4.190   8.067 -29.356  1.00  0.00     0.127 A 
HETATM   13  N   UNL     1      -3.288   8.383 -30.353  1.00  0.00    -0.245 N 
HETATM   14  N   UNL     1      -3.813   9.305 -31.202  1.00  0.00    -0.180 NA
HETATM   15  C   UNL     1      -5.024   9.569 -30.717  1.00  0.00     0.147 A 
BRANCH  13  16
HETATM   16  C   UNL     1      -1.969   7.881 -30.539  1.00  0.00     0.058 A 
HETATM   17  C   UNL     1      -1.532   7.428 -31.791  1.00  0.00     0.031 A 
HETATM   18  C   UNL     1      -0.236   6.925 -31.940  1.00  0.00     0.002 A 
HETATM   19  C   UNL     1       0.627   6.872 -30.847  1.00  0.00     0.000 A 
HETATM   20  C   UNL     1       0.201   7.324 -29.601  1.00  0.00     0.002 A 
HETATM   21  C   UNL     1      -1.092   7.828 -29.444  1.00  0.00     0.031 A 
ENDBRANCH  13  16
ENDBRANCH  10  11
ENDBRANCH   9  10
ENDBRANCH   6   9
ENDBRANCH   2   5
BRANCH   1  22
HETATM   22  C   UNL     1      -5.659   2.432 -30.455  1.00  0.00     0.121 A 
HETATM   23  N   UNL     1      -6.451   1.510 -29.830  1.00  0.00    -0.272 N 
HETATM   24  N   UNL     1      -6.583   0.353 -30.499  1.00  0.00    -0.174 NA
HETATM   25  H   UNL     1      -6.959   1.632 -28.958  1.00  0.00     0.189 HD
HETATM   26  C   UNL     1      -5.806   0.500 -31.583  1.00  0.00     0.089 A 
HETATM   27  C   UNL     1      -5.193   1.784 -31.582  1.00  0.00     0.071 A 
BRANCH  26  28
HETATM   28  C   UNL     1      -5.698  -0.531 -32.614  1.00  0.00    -0.005 A 
HETATM   29  C   UNL     1      -4.496  -1.228 -32.796  1.00  0.00     0.016 A 
HETATM   30  C   UNL     1      -4.408  -2.278 -33.719  1.00  0.00     0.037 A 
HETATM   31  C   UNL     1      -5.522  -2.637 -34.476  1.00  0.00     0.068 A 
HETATM   32  C   UNL     1      -6.707  -1.915 -34.336  1.00  0.00     0.037 A 
HETATM   33  C   UNL     1      -6.800  -0.874 -33.407  1.00  0.00     0.016 A 
BRANCH  31  34
HETATM   34  O   UNL     1      -5.568  -3.654 -35.390  1.00  0.00    -0.356 OA
HETATM   35  C   UNL     1      -6.689  -4.524 -35.295  1.00  0.00     0.210 C 
ENDBRANCH  31  34
ENDBRANCH  26  28
ENDBRANCH   1  22
TORSDOF 8
ENDMDL
MODEL 8
REMARK VINA RESULT:      -8.3      2.615     12.441
REMARK  8 active torsions:
REMARK  status: ('A' for Active; 'I' for Inactive)
REMARK    1  A    between atoms: O_2  and  C_3 
REMARK    2  A    between atoms: C_6  and  C_7 
REMARK    3  A    between atoms: C_11  and  C_12 
REMARK       I    between atoms: C_12  and  N_13 
REMARK    4  A    between atoms: N_13  and  N_14 
REMARK       I    between atoms: N_14  and  C_15 
REMARK    5  A    between atoms: C_15  and  C_16 
REMARK    6  A    between atoms: C_16  and  C_17 
REMARK    7  A    between atoms: C_17  and  C_18 
REMARK    8  A    between atoms: N_20  and  C_21 
ROOT
HETATM    1  C   UNL     1      -6.655   4.151 -33.351  1.00  0.00     0.288 C 
HETATM    2  N   UNL     1      -6.363   4.459 -32.041  1.00  0.00    -0.262 N 
HETATM    3  O   UNL     1      -6.754   5.018 -34.218  1.00  0.00    -0.264 OA
HETATM    4  H   UNL     1      -6.309   3.774 -31.291  1.00  0.00     0.190 HD
ENDROOT
BRANCH   2   5
HETATM    5  N   UNL     1      -6.096   5.787 -31.686  1.00  0.00    -0.267 N 
HETATM    6  C   UNL     1      -4.859   6.059 -31.151  1.00  0.00     0.236 C 
HETATM    7  O   UNL     1      -3.973   5.202 -31.106  1.00  0.00    -0.272 OA
HETATM    8  H   UNL     1      -6.911   6.382 -31.560  1.00  0.00     0.190 HD
BRANCH   6   9
HETATM    9  C   UNL     1      -4.582   7.495 -30.752  1.00  0.00     0.109 C 
BRANCH   9  10
HETATM   10  C   UNL     1      -3.353   8.161 -31.360  1.00  0.00     0.051 C 
BRANCH  10  11
HETATM   11  C   UNL     1      -2.111   7.999 -30.556  1.00  0.00    -0.021 A 
HETATM   12  C   UNL     1      -1.803   8.576 -29.341  1.00  0.00     0.127 A 
HETATM   13  N   UNL     1      -0.529   8.170 -28.994  1.00  0.00    -0.245 N 
HETATM   14  N   UNL     1      -0.017   7.336 -29.937  1.00  0.00    -0.180 NA
HETATM   15  C   UNL     1      -0.963   7.246 -30.868  1.00  0.00     0.147 A 
BRANCH  13  16
HETATM   16  C   UNL     1       0.228   8.531 -27.845  1.00  0.00     0.058 A 
HETATM   17  C   UNL     1       0.046   9.769 -27.212  1.00  0.00     0.031 A 
HETATM   18  C   UNL     1       0.815  10.103 -26.093  1.00  0.00     0.002 A 
HETATM   19  C   UNL     1       1.764   9.209 -25.600  1.00  0.00     0.000 A 
HETATM   20  C   UNL     1       1.947   7.976 -26.221  1.00  0.00     0.002 A 
HETATM   21  C   UNL     1       1.183   7.635 -27.340  1.00  0.00     0.031 A 
ENDBRANCH  13  16
ENDBRANCH  10  11
ENDBRANCH   9  10
ENDBRANCH   6   9
ENDBRANCH   2   5
BRANCH   1  22
HETATM   22  C   UNL     1      -6.799   2.747 -33.628  1.00  0.00     0.121 A 
HETATM   23  N   UNL     1      -7.935   2.226 -34.181  1.00  0.00    -0.272 N 
HETATM   24  N   UNL     1      -7.860   0.914 -34.460  1.00  0.00    -0.174 NA
HETATM   25  H   UNL     1      -8.783   2.730 -34.425  1.00  0.00     0.189 HD
HETATM   26  C   UNL     1      -6.644   0.547 -34.026  1.00  0.00     0.089 A 
HETATM   27  C   UNL     1      -5.955   1.664 -33.479  1.00  0.00     0.071 A 
BRANCH  26  28
HETATM   28  C   UNL     1      -6.137  -0.816 -34.183  1.00  0.00    -0.005 A 
HETATM   29  C   UNL     1      -4.835  -1.138 -33.777  1.00  0.00     0.016 A 
HETATM   30  C   UNL     1      -4.369  -2.458 -33.839  1.00  0.00     0.037 A 
HETATM   31  C   UNL     1      -5.201  -3.470 -34.316  1.00  0.00     0.068 A 
HETATM   32  C   UNL     1      -6.481  -3.148 -34.768  1.00  0.00     0.037 A 
HETATM   33  C   UNL     1      -6.952  -1.833 -34.696  1.00  0.00     0.016 A 
BRANCH  31  34
HETATM   34  O   UNL     1      -4.872  -4.794 -34.405  1.00  0.00    -0.356 OA
HETATM   35  C   UNL     1      -3.693  -5.189 -33.712  1.00  0.00     0.210 C 
ENDBRANCH  31  34
ENDBRANCH  26  28
ENDBRANCH   1  22
TORSDOF 8
ENDMDL
MODEL 9
REMARK VINA RESULT:      -8.2      2.675     12.756
REMARK  8 active torsions:
REMARK  status: ('A' for Active; 'I' for Inactive)
REMARK    1  A    between atoms: O_2  and  C_3 
REMARK    2  A    between atoms: C_6  and  C_7 
REMARK    3  A    between atoms: C_11  and  C_12 
REMARK       I    between atoms: C_12  and  N_13 
REMARK    4  A    between atoms: N_13  and  N_14 
REMARK       I    between atoms: N_14  and  C_15 
REMARK    5  A    between atoms: C_15  and  C_16 
REMARK    6  A    between atoms: C_16  and  C_17 
REMARK    7  A    between atoms: C_17  and  C_18 
REMARK    8  A    between atoms: N_20  and  C_21 
ROOT
HETATM    1  C   UNL     1      -6.361   3.944 -30.068  1.00  0.00     0.288 C 
HETATM    2  N   UNL     1      -5.038   4.246 -29.829  1.00  0.00    -0.262 N 
HETATM    3  O   UNL     1      -7.265   4.740 -29.821  1.00  0.00    -0.264 OA
HETATM    4  H   UNL     1      -4.268   3.600 -29.986  1.00  0.00     0.190 HD
ENDROOT
BRANCH   2   5
HETATM    5  N   UNL     1      -4.693   5.519 -29.361  1.00  0.00    -0.267 N 
HETATM    6  C   UNL     1      -3.895   6.293 -30.172  1.00  0.00     0.236 C 
HETATM    7  O   UNL     1      -3.602   5.938 -31.316  1.00  0.00    -0.272 OA
HETATM    8  H   UNL     1      -4.791   5.662 -28.359  1.00  0.00     0.190 HD
BRANCH   6   9
HETATM    9  C   UNL     1      -3.510   7.664 -29.652  1.00  0.00     0.109 C 
BRANCH   9  10
HETATM   10  C   UNL     1      -2.238   8.288 -30.214  1.00  0.00     0.051 C 
BRANCH  10  11
HETATM   11  C   UNL     1      -1.064   8.208 -29.302  1.00  0.00    -0.021 A 
HETATM   12  C   UNL     1      -0.776   9.007 -28.214  1.00  0.00     0.127 A 
HETATM   13  N   UNL     1       0.433   8.588 -27.694  1.00  0.00    -0.245 N 
HETATM   14  N   UNL     1       0.921   7.535 -28.400  1.00  0.00    -0.180 NA
HETATM   15  C   UNL     1       0.027   7.320 -29.361  1.00  0.00     0.147 A 
BRANCH  13  16
HETATM   16  C   UNL     1       1.151   9.129 -26.591  1.00  0.00     0.058 A 
HETATM   17  C   UNL     1       0.948  10.450 -26.166  1.00  0.00     0.031 A 
HETATM   18  C   UNL     1       1.679  10.958 -25.089  1.00  0.00     0.002 A 
HETATM   19  C   UNL     1       2.612  10.158 -24.432  1.00  0.00     0.000 A 
HETATM   20  C   UNL     1       2.816   8.844 -24.845  1.00  0.00     0.002 A 
HETATM   21  C   UNL     1       2.089   8.329 -25.921  1.00  0.00     0.031 A 
ENDBRANCH  13  16
ENDBRANCH  10  11
ENDBRANCH   9  10
ENDBRANCH   6   9
ENDBRANCH   2   5
BRANCH   1  22
HETATM   22  C   UNL     1      -6.593   2.652 -30.653  1.00  0.00     0.121 A 
HETATM   23  N   UNL     1      -7.808   2.029 -30.588  1.00  0.00    -0.272 N 
HETATM   24  N   UNL     1      -7.873   0.874 -31.270  1.00  0.00    -0.174 NA
HETATM   25  H   UNL     1      -8.643   2.367 -30.118  1.00  0.00     0.189 HD
HETATM   26  C   UNL     1      -6.636   0.704 -31.763  1.00  0.00     0.089 A 
HETATM   27  C   UNL     1      -5.798   1.788 -31.381  1.00  0.00     0.071 A 
BRANCH  26  28
HETATM   28  C   UNL     1      -6.284  -0.428 -32.618  1.00  0.00    -0.005 A 
HETATM   29  C   UNL     1      -7.223  -0.958 -33.514  1.00  0.00     0.016 A 
HETATM   30  C   UNL     1      -6.869  -1.984 -34.400  1.00  0.00     0.037 A 
HETATM   31  C   UNL     1      -5.573  -2.496 -34.395  1.00  0.00     0.068 A 
HETATM   32  C   UNL     1      -4.648  -2.007 -33.471  1.00  0.00     0.037 A 
HETATM   33  C   UNL     1      -4.995  -0.975 -32.594  1.00  0.00     0.016 A 
BRANCH  31  34
HETATM   34  O   UNL     1      -5.102  -3.478 -35.222  1.00  0.00    -0.356 OA
HETATM   35  C   UNL     1      -5.156  -4.803 -34.707  1.00  0.00     0.210 C 
ENDBRANCH  31  34
ENDBRANCH  26  28
ENDBRANCH   1  22
TORSDOF 8
ENDMDL
MODEL 10
REMARK VINA RESULT:      -8.2      9.113     12.653
REMARK  8 active torsions:
REMARK  status: ('A' for Active; 'I' for Inactive)
REMARK    1  A    between atoms: O_2  and  C_3 
REMARK    2  A    between atoms: C_6  and  C_7 
REMARK    3  A    between atoms: C_11  and  C_12 
REMARK       I    between atoms: C_12  and  N_13 
REMARK    4  A    between atoms: N_13  and  N_14 
REMARK       I    between atoms: N_14  and  C_15 
REMARK    5  A    between atoms: C_15  and  C_16 
REMARK    6  A    between atoms: C_16  and  C_17 
REMARK    7  A    between atoms: C_17  and  C_18 
REMARK    8  A    between atoms: N_20  and  C_21 
ROOT
HETATM    1  C   UNL     1     -10.096   2.040 -32.906  1.00  0.00     0.288 C 
HETATM    2  N   UNL     1     -11.435   1.767 -33.084  1.00  0.00    -0.262 N 
HETATM    3  O   UNL     1      -9.710   2.988 -32.225  1.00  0.00    -0.264 OA
HETATM    4  H   UNL     1     -11.792   1.016 -33.669  1.00  0.00     0.190 HD
ENDROOT
BRANCH   2   5
HETATM    5  N   UNL     1     -12.392   2.540 -32.416  1.00  0.00    -0.267 N 
HETATM    6  C   UNL     1     -13.347   3.162 -33.186  1.00  0.00     0.236 C 
HETATM    7  O   UNL     1     -13.440   2.947 -34.397  1.00  0.00    -0.272 OA
HETATM    8  H   UNL     1     -12.144   2.835 -31.475  1.00  0.00     0.190 HD
BRANCH   6   9
HETATM    9  C   UNL     1     -14.371   4.013 -32.460  1.00  0.00     0.109 C 
BRANCH   9  10
HETATM   10  C   UNL     1     -13.995   5.464 -32.179  1.00  0.00     0.051 C 
BRANCH  10  11
HETATM   11  C   UNL     1     -13.166   6.096 -33.243  1.00  0.00    -0.021 A 
HETATM   12  C   UNL     1     -13.592   6.674 -34.421  1.00  0.00     0.127 A 
HETATM   13  N   UNL     1     -12.471   7.094 -35.111  1.00  0.00    -0.245 N 
HETATM   14  N   UNL     1     -11.342   6.821 -34.406  1.00  0.00    -0.180 NA
HETATM   15  C   UNL     1     -11.765   6.219 -33.298  1.00  0.00     0.147 A 
BRANCH  13  16
HETATM   16  C   UNL     1     -12.407   7.716 -36.389  1.00  0.00     0.058 A 
HETATM   17  C   UNL     1     -11.265   8.416 -36.803  1.00  0.00     0.031 A 
HETATM   18  C   UNL     1     -11.237   9.031 -38.058  1.00  0.00     0.002 A 
HETATM   19  C   UNL     1     -12.341   8.951 -38.904  1.00  0.00     0.000 A 
HETATM   20  C   UNL     1     -13.477   8.254 -38.503  1.00  0.00     0.002 A 
HETATM   21  C   UNL     1     -13.513   7.637 -37.250  1.00  0.00     0.031 A 
ENDBRANCH  13  16
ENDBRANCH  10  11
ENDBRANCH   9  10
ENDBRANCH   6   9
ENDBRANCH   2   5
BRANCH   1  22
HETATM   22  C   UNL     1      -9.198   1.117 -33.545  1.00  0.00     0.121 A 
HETATM   23  N   UNL     1      -9.103   1.016 -34.905  1.00  0.00    -0.272 N 
HETATM   24  N   UNL     1      -8.146   0.174 -35.329  1.00  0.00    -0.174 NA
HETATM   25  H   UNL     1      -9.644   1.528 -35.595  1.00  0.00     0.189 HD
HETATM   26  C   UNL     1      -7.624  -0.337 -34.203  1.00  0.00     0.089 A 
HETATM   27  C   UNL     1      -8.272   0.214 -33.063  1.00  0.00     0.071 A 
BRANCH  26  28
HETATM   28  C   UNL     1      -6.505  -1.279 -34.217  1.00  0.00    -0.005 A 
HETATM   29  C   UNL     1      -5.268  -0.917 -33.667  1.00  0.00     0.016 A 
HETATM   30  C   UNL     1      -4.217  -1.840 -33.594  1.00  0.00     0.037 A 
HETATM   31  C   UNL     1      -4.391  -3.136 -34.079  1.00  0.00     0.068 A 
HETATM   32  C   UNL     1      -5.604  -3.487 -34.673  1.00  0.00     0.037 A 
HETATM   33  C   UNL     1      -6.658  -2.571 -34.736  1.00  0.00     0.016 A 
BRANCH  31  34
HETATM   34  O   UNL     1      -3.453  -4.130 -34.045  1.00  0.00    -0.356 OA
HETATM   35  C   UNL     1      -3.883  -5.371 -33.498  1.00  0.00     0.210 C 
ENDBRANCH  31  34
ENDBRANCH  26  28
ENDBRANCH   1  22
TORSDOF 8
ENDMDL
