MODEL 1
REMARK VINA RESULT:      -8.8      0.000      0.000
REMARK  6 active torsions:
REMARK  status: ('A' for Active; 'I' for Inactive)
REMARK    1  A    between atoms: C_2  and  N_3 
REMARK    2  A    between atoms: C_2  and  C_25 
REMARK    3  A    between atoms: C_7  and  N_8 
REMARK       I    between atoms: N_8  and  C_9 
REMARK       I    between atoms: C_9  and  N_10 
REMARK    4  A    between atoms: N_10  and  C_11 
REMARK    5  A    between atoms: C_11  and  C_12 
REMARK    6  A    between atoms: C_20  and  O_21 
ROOT
HETATM    1  N   UNL     1      -2.620   3.589 -32.087  1.00  0.00    -0.293 N 
HETATM    2  C   UNL     1      -3.896   3.065 -32.410  1.00  0.00     0.322 C 
HETATM    3  N   UNL     1      -4.200   1.912 -31.757  1.00  0.00    -0.337 N 
HETATM    4  O   UNL     1      -4.677   3.621 -33.159  1.00  0.00    -0.247 OA
HETATM    5  H   UNL     1      -2.123   3.174 -31.316  1.00  0.00     0.172 HD
HETATM    6  H   UNL     1      -5.097   1.561 -32.069  1.00  0.00     0.164 HD
ENDROOT
BRANCH   3   7
HETATM    7  C   UNL     1      -3.263   0.912 -31.305  1.00  0.00     0.181 C 
BRANCH   7   8
HETATM    8  C   UNL     1      -3.521  -0.380 -31.989  1.00  0.00     0.028 A 
HETATM    9  N   UNL     1      -2.971  -1.573 -31.575  1.00  0.00    -0.357 N 
HETATM   10  H   UNL     1      -2.348  -1.686 -30.787  1.00  0.00     0.166 HD
HETATM   11  C   UNL     1      -3.392  -2.603 -32.383  1.00  0.00     0.043 A 
HETATM   12  C   UNL     1      -4.273  -2.062 -33.317  1.00  0.00    -0.005 A 
HETATM   13  C   UNL     1      -3.079  -3.965 -32.348  1.00  0.00     0.033 A 
HETATM   14  C   UNL     1      -4.344  -0.666 -33.062  1.00  0.00     0.040 A 
HETATM   15  C   UNL     1      -4.885  -2.921 -34.247  1.00  0.00     0.050 A 
HETATM   16  C   UNL     1      -4.612  -4.295 -34.212  1.00  0.00     0.069 A 
HETATM   17  C   UNL     1      -3.705  -4.801 -33.281  1.00  0.00     0.039 A 
BRANCH  16  18
HETATM   18  O   UNL     1      -5.287  -5.030 -35.149  1.00  0.00    -0.356 OA
HETATM   19  C   UNL     1      -6.626  -4.634 -35.425  1.00  0.00     0.210 C 
ENDBRANCH  16  18
ENDBRANCH   7   8
ENDBRANCH   3   7
BRANCH   1  20
HETATM   20  C   UNL     1      -2.050   4.688 -32.721  1.00  0.00     0.129 A 
HETATM   21  N   UNL     1      -1.154   5.586 -32.174  1.00  0.00    -0.249 N 
HETATM   22  N   UNL     1      -0.760   6.537 -33.048  1.00  0.00    -0.183 NA
HETATM   23  C   UNL     1      -1.419   6.241 -34.167  1.00  0.00     0.142 A 
HETATM   24  C   UNL     1      -2.231   5.105 -34.022  1.00  0.00     0.071 A 
BRANCH  21  25
HETATM   25  C   UNL     1      -0.622   5.651 -30.810  1.00  0.00     0.111 C 
HETATM   26  C   UNL     1       0.802   5.085 -30.774  1.00  0.00     0.035 C 
BRANCH  25  27
HETATM   27  C   UNL     1      -0.757   7.061 -30.171  1.00  0.00     0.002 C 
HETATM   28  C   UNL     1      -2.037   7.186 -29.335  1.00  0.00     0.011 C 
HETATM   29  C   UNL     1       0.446   7.404 -29.285  1.00  0.00     0.011 C 
ENDBRANCH  25  27
ENDBRANCH  21  25
ENDBRANCH   1  20
TORSDOF 6
ENDMDL
MODEL 2
REMARK VINA RESULT:      -8.6      3.749      5.907
REMARK  6 active torsions:
REMARK  status: ('A' for Active; 'I' for Inactive)
REMARK    1  A    between atoms: C_2  and  N_3 
REMARK    2  A    between atoms: C_2  and  C_25 
REMARK    3  A    between atoms: C_7  and  N_8 
REMARK       I    between atoms: N_8  and  C_9 
REMARK       I    between atoms: C_9  and  N_10 
REMARK    4  A    between atoms: N_10  and  C_11 
REMARK    5  A    between atoms: C_11  and  C_12 
REMARK    6  A    between atoms: C_20  and  O_21 
ROOT
HETATM    1  N   UNL     1      -5.838   2.721 -32.285  1.00  0.00    -0.293 N 
HETATM    2  C   UNL     1      -5.728   2.061 -31.037  1.00  0.00     0.322 C 
HETATM    3  N   UNL     1      -4.456   1.715 -30.706  1.00  0.00    -0.337 N 
HETATM    4  O   UNL     1      -6.676   1.866 -30.298  1.00  0.00    -0.247 OA
HETATM    5  H   UNL     1      -4.987   3.015 -32.738  1.00  0.00     0.172 HD
HETATM    6  H   UNL     1      -4.450   1.201 -29.833  1.00  0.00     0.164 HD
ENDROOT
BRANCH   3   7
HETATM    7  C   UNL     1      -3.389   1.396 -31.623  1.00  0.00     0.181 C 
BRANCH   7   8
HETATM    8  C   UNL     1      -3.545   0.010 -32.130  1.00  0.00     0.028 A 
HETATM    9  N   UNL     1      -2.994  -1.086 -31.503  1.00  0.00    -0.357 N 
HETATM   10  H   UNL     1      -2.437  -1.056 -30.659  1.00  0.00     0.166 HD
HETATM   11  C   UNL     1      -3.310  -2.238 -32.182  1.00  0.00     0.043 A 
HETATM   12  C   UNL     1      -4.124  -1.877 -33.253  1.00  0.00    -0.005 A 
HETATM   13  C   UNL     1      -2.956  -3.566 -31.923  1.00  0.00     0.033 A 
HETATM   14  C   UNL     1      -4.263  -0.463 -33.212  1.00  0.00     0.040 A 
HETATM   15  C   UNL     1      -4.626  -2.886 -34.094  1.00  0.00     0.050 A 
HETATM   16  C   UNL     1      -4.311  -4.228 -33.836  1.00  0.00     0.069 A 
HETATM   17  C   UNL     1      -3.472  -4.554 -32.771  1.00  0.00     0.039 A 
BRANCH  16  18
HETATM   18  O   UNL     1      -4.879  -5.119 -34.706  1.00  0.00    -0.356 OA
HETATM   19  C   UNL     1      -6.084  -4.708 -35.343  1.00  0.00     0.210 C 
ENDBRANCH  16  18
ENDBRANCH   7   8
ENDBRANCH   3   7
BRANCH   1  20
HETATM   20  C   UNL     1      -7.049   3.056 -32.882  1.00  0.00     0.129 A 
HETATM   21  N   UNL     1      -8.063   2.189 -33.240  1.00  0.00    -0.249 N 
HETATM   22  N   UNL     1      -9.129   2.817 -33.780  1.00  0.00    -0.183 NA
HETATM   23  C   UNL     1      -8.786   4.104 -33.770  1.00  0.00     0.142 A 
HETATM   24  C   UNL     1      -7.508   4.310 -33.223  1.00  0.00     0.071 A 
BRANCH  21  25
HETATM   25  C   UNL     1      -8.113   0.727 -33.138  1.00  0.00     0.111 C 
HETATM   26  C   UNL     1      -9.319   0.300 -32.295  1.00  0.00     0.035 C 
BRANCH  25  27
HETATM   27  C   UNL     1      -8.024   0.018 -34.517  1.00  0.00     0.002 C 
HETATM   28  C   UNL     1      -6.960   0.659 -35.419  1.00  0.00     0.011 C 
HETATM   29  C   UNL     1      -7.712  -1.476 -34.372  1.00  0.00     0.011 C 
ENDBRANCH  25  27
ENDBRANCH  21  25
ENDBRANCH   1  20
TORSDOF 6
ENDMDL
MODEL 3
REMARK VINA RESULT:      -8.4      3.434      5.853
REMARK  6 active torsions:
REMARK  status: ('A' for Active; 'I' for Inactive)
REMARK    1  A    between atoms: C_2  and  N_3 
REMARK    2  A    between atoms: C_2  and  C_25 
REMARK    3  A    between atoms: C_7  and  N_8 
REMARK       I    between atoms: N_8  and  C_9 
REMARK       I    between atoms: C_9  and  N_10 
REMARK    4  A    between atoms: N_10  and  C_11 
REMARK    5  A    between atoms: C_11  and  C_12 
REMARK    6  A    between atoms: C_20  and  O_21 
ROOT
HETATM    1  N   UNL     1      -5.949   2.130 -31.446  1.00  0.00    -0.293 N 
HETATM    2  C   UNL     1      -4.897   2.795 -32.121  1.00  0.00     0.322 C 
HETATM    3  N   UNL     1      -3.781   2.036 -32.286  1.00  0.00    -0.337 N 
HETATM    4  O   UNL     1      -4.995   3.924 -32.565  1.00  0.00    -0.247 OA
HETATM    5  H   UNL     1      -5.855   1.139 -31.287  1.00  0.00     0.172 HD
HETATM    6  H   UNL     1      -3.049   2.582 -32.725  1.00  0.00     0.164 HD
ENDROOT
BRANCH   3   7
HETATM    7  C   UNL     1      -3.330   0.976 -31.417  1.00  0.00     0.181 C 
BRANCH   7   8
HETATM    8  C   UNL     1      -3.564  -0.345 -32.053  1.00  0.00     0.028 A 
HETATM    9  N   UNL     1      -2.996  -1.511 -31.594  1.00  0.00    -0.357 N 
HETATM   10  H   UNL     1      -2.374  -1.584 -30.800  1.00  0.00     0.166 HD
HETATM   11  C   UNL     1      -3.397  -2.578 -32.364  1.00  0.00     0.043 A 
HETATM   12  C   UNL     1      -4.283  -2.087 -33.320  1.00  0.00    -0.005 A 
HETATM   13  C   UNL     1      -3.061  -3.932 -32.277  1.00  0.00     0.033 A 
HETATM   14  C   UNL     1      -4.379  -0.683 -33.117  1.00  0.00     0.040 A 
HETATM   15  C   UNL     1      -4.877  -2.989 -34.219  1.00  0.00     0.050 A 
HETATM   16  C   UNL     1      -4.581  -4.357 -34.133  1.00  0.00     0.069 A 
HETATM   17  C   UNL     1      -3.669  -4.813 -33.181  1.00  0.00     0.039 A 
BRANCH  16  18
HETATM   18  O   UNL     1      -5.240  -5.138 -35.043  1.00  0.00    -0.356 OA
HETATM   19  C   UNL     1      -6.476  -4.634 -35.537  1.00  0.00     0.210 C 
ENDBRANCH  16  18
ENDBRANCH   7   8
ENDBRANCH   3   7
BRANCH   1  20
HETATM   20  C   UNL     1      -7.134   2.746 -31.059  1.00  0.00     0.129 A 
HETATM   21  N   UNL     1      -8.367   2.631 -31.673  1.00  0.00    -0.249 N 
HETATM   22  N   UNL     1      -9.336   3.334 -31.048  1.00  0.00    -0.183 NA
HETATM   23  C   UNL     1      -8.709   3.908 -30.023  1.00  0.00     0.142 A 
HETATM   24  C   UNL     1      -7.344   3.578 -29.980  1.00  0.00     0.071 A 
BRANCH  21  25
HETATM   25  C   UNL     1      -8.733   1.895 -32.887  1.00  0.00     0.111 C 
HETATM   26  C   UNL     1      -7.922   2.412 -34.079  1.00  0.00     0.035 C 
BRANCH  25  27
HETATM   27  C   UNL     1      -8.673   0.353 -32.703  1.00  0.00     0.002 C 
HETATM   28  C   UNL     1     -10.075  -0.269 -32.657  1.00  0.00     0.011 C 
HETATM   29  C   UNL     1      -7.869  -0.323 -33.820  1.00  0.00     0.011 C 
ENDBRANCH  25  27
ENDBRANCH  21  25
ENDBRANCH   1  20
TORSDOF 6
ENDMDL
MODEL 4
REMARK VINA RESULT:      -8.4      1.660      2.633
REMARK  6 active torsions:
REMARK  status: ('A' for Active; 'I' for Inactive)
REMARK    1  A    between atoms: C_2  and  N_3 
REMARK    2  A    between atoms: C_2  and  C_25 
REMARK    3  A    between atoms: C_7  and  N_8 
REMARK       I    between atoms: N_8  and  C_9 
REMARK       I    between atoms: C_9  and  N_10 
REMARK    4  A    between atoms: N_10  and  C_11 
REMARK    5  A    between atoms: C_11  and  C_12 
REMARK    6  A    between atoms: C_20  and  O_21 
ROOT
HETATM    1  N   UNL     1      -3.857   3.448 -30.936  1.00  0.00    -0.293 N 
HETATM    2  C   UNL     1      -4.946   2.542 -30.917  1.00  0.00     0.322 C 
HETATM    3  N   UNL     1      -4.580   1.243 -30.756  1.00  0.00    -0.337 N 
HETATM    4  O   UNL     1      -6.109   2.894 -30.985  1.00  0.00    -0.247 OA
HETATM    5  H   UNL     1      -2.948   3.096 -30.679  1.00  0.00     0.172 HD
HETATM    6  H   UNL     1      -5.395   0.642 -30.805  1.00  0.00     0.164 HD
ENDROOT
BRANCH   3   7
HETATM    7  C   UNL     1      -3.338   0.643 -31.181  1.00  0.00     0.181 C 
BRANCH   7   8
HETATM    8  C   UNL     1      -3.603  -0.619 -31.916  1.00  0.00     0.028 A 
HETATM    9  N   UNL     1      -2.985  -1.811 -31.610  1.00  0.00    -0.357 N 
HETATM   10  H   UNL     1      -2.302  -1.942 -30.875  1.00  0.00     0.166 HD
HETATM   11  C   UNL     1      -3.429  -2.811 -32.441  1.00  0.00     0.043 A 
HETATM   12  C   UNL     1      -4.393  -2.255 -33.278  1.00  0.00    -0.005 A 
HETATM   13  C   UNL     1      -3.069  -4.160 -32.504  1.00  0.00     0.033 A 
HETATM   14  C   UNL     1      -4.492  -0.878 -32.942  1.00  0.00     0.040 A 
HETATM   15  C   UNL     1      -5.043  -3.085 -34.209  1.00  0.00     0.050 A 
HETATM   16  C   UNL     1      -4.722  -4.448 -34.270  1.00  0.00     0.069 A 
HETATM   17  C   UNL     1      -3.734  -4.969 -33.436  1.00  0.00     0.039 A 
BRANCH  16  18
HETATM   18  O   UNL     1      -5.439  -5.157 -35.196  1.00  0.00    -0.356 OA
HETATM   19  C   UNL     1      -6.651  -4.566 -35.651  1.00  0.00     0.210 C 
ENDBRANCH  16  18
ENDBRANCH   7   8
ENDBRANCH   3   7
BRANCH   1  20
HETATM   20  C   UNL     1      -3.982   4.805 -31.211  1.00  0.00     0.129 A 
HETATM   21  N   UNL     1      -3.589   5.456 -32.365  1.00  0.00    -0.249 N 
HETATM   22  N   UNL     1      -3.864   6.778 -32.345  1.00  0.00    -0.183 NA
HETATM   23  C   UNL     1      -4.437   6.971 -31.159  1.00  0.00     0.142 A 
HETATM   24  C   UNL     1      -4.536   5.784 -30.415  1.00  0.00     0.071 A 
BRANCH  21  25
HETATM   25  C   UNL     1      -2.911   4.917 -33.548  1.00  0.00     0.111 C 
HETATM   26  C   UNL     1      -3.637   5.368 -34.820  1.00  0.00     0.035 C 
BRANCH  25  27
HETATM   27  C   UNL     1      -1.384   5.204 -33.556  1.00  0.00     0.002 C 
HETATM   28  C   UNL     1      -1.062   6.553 -34.212  1.00  0.00     0.011 C 
HETATM   29  C   UNL     1      -0.793   5.190 -32.142  1.00  0.00     0.011 C 
ENDBRANCH  25  27
ENDBRANCH  21  25
ENDBRANCH   1  20
TORSDOF 6
ENDMDL
MODEL 5
REMARK VINA RESULT:      -8.3      1.384      2.205
REMARK  6 active torsions:
REMARK  status: ('A' for Active; 'I' for Inactive)
REMARK    1  A    between atoms: C_2  and  N_3 
REMARK    2  A    between atoms: C_2  and  C_25 
REMARK    3  A    between atoms: C_7  and  N_8 
REMARK       I    between atoms: N_8  and  C_9 
REMARK       I    between atoms: C_9  and  N_10 
REMARK    4  A    between atoms: N_10  and  C_11 
REMARK    5  A    between atoms: C_11  and  C_12 
REMARK    6  A    between atoms: C_20  and  O_21 
ROOT
HETATM    1  N   UNL     1      -2.353   4.071 -31.794  1.00  0.00    -0.293 N 
HETATM    2  C   UNL     1      -3.730   3.864 -31.535  1.00  0.00     0.322 C 
HETATM    3  N   UNL     1      -4.002   2.695 -30.897  1.00  0.00    -0.337 N 
HETATM    4  O   UNL     1      -4.591   4.681 -31.807  1.00  0.00    -0.247 OA
HETATM    5  H   UNL     1      -1.694   3.441 -31.364  1.00  0.00     0.172 HD
HETATM    6  H   UNL     1      -5.003   2.581 -30.790  1.00  0.00     0.164 HD
ENDROOT
BRANCH   3   7
HETATM    7  C   UNL     1      -3.243   1.472 -30.991  1.00  0.00     0.181 C 
BRANCH   7   8
HETATM    8  C   UNL     1      -3.912   0.522 -31.915  1.00  0.00     0.028 A 
HETATM    9  N   UNL     1      -5.126   0.782 -32.510  1.00  0.00    -0.357 N 
HETATM   10  H   UNL     1      -5.673   1.623 -32.378  1.00  0.00     0.166 HD
HETATM   11  C   UNL     1      -5.497  -0.263 -33.323  1.00  0.00     0.043 A 
HETATM   12  C   UNL     1      -4.471  -1.203 -33.281  1.00  0.00    -0.005 A 
HETATM   13  C   UNL     1      -6.645  -0.439 -34.100  1.00  0.00     0.033 A 
HETATM   14  C   UNL     1      -3.482  -0.702 -32.392  1.00  0.00     0.040 A 
HETATM   15  C   UNL     1      -4.584  -2.365 -34.066  1.00  0.00     0.050 A 
HETATM   16  C   UNL     1      -5.711  -2.550 -34.878  1.00  0.00     0.069 A 
HETATM   17  C   UNL     1      -6.733  -1.602 -34.877  1.00  0.00     0.039 A 
BRANCH  16  18
HETATM   18  O   UNL     1      -5.695  -3.704 -35.614  1.00  0.00    -0.356 OA
HETATM   19  C   UNL     1      -6.686  -4.676 -35.297  1.00  0.00     0.210 C 
ENDBRANCH  16  18
ENDBRANCH   7   8
ENDBRANCH   3   7
BRANCH   1  20
HETATM   20  C   UNL     1      -1.854   5.133 -32.541  1.00  0.00     0.129 A 
HETATM   21  N   UNL     1      -1.184   6.241 -32.059  1.00  0.00    -0.249 N 
HETATM   22  N   UNL     1      -0.802   7.092 -33.036  1.00  0.00    -0.183 NA
HETATM   23  C   UNL     1      -1.240   6.518 -34.155  1.00  0.00     0.142 A 
HETATM   24  C   UNL     1      -1.898   5.302 -33.908  1.00  0.00     0.071 A 
BRANCH  21  25
HETATM   25  C   UNL     1      -0.874   6.609 -30.674  1.00  0.00     0.111 C 
HETATM   26  C   UNL     1      -2.153   7.037 -29.946  1.00  0.00     0.035 C 
BRANCH  25  27
HETATM   27  C   UNL     1      -0.056   5.521 -29.926  1.00  0.00     0.002 C 
HETATM   28  C   UNL     1       1.144   5.041 -30.753  1.00  0.00     0.011 C 
HETATM   29  C   UNL     1       0.450   6.021 -28.568  1.00  0.00     0.011 C 
ENDBRANCH  25  27
ENDBRANCH  21  25
ENDBRANCH   1  20
TORSDOF 6
ENDMDL
MODEL 6
REMARK VINA RESULT:      -8.1      1.857      3.157
REMARK  6 active torsions:
REMARK  status: ('A' for Active; 'I' for Inactive)
REMARK    1  A    between atoms: C_2  and  N_3 
REMARK    2  A    between atoms: C_2  and  C_25 
REMARK    3  A    between atoms: C_7  and  N_8 
REMARK       I    between atoms: N_8  and  C_9 
REMARK       I    between atoms: C_9  and  N_10 
REMARK    4  A    between atoms: N_10  and  C_11 
REMARK    5  A    between atoms: C_11  and  C_12 
REMARK    6  A    between atoms: C_20  and  O_21 
ROOT
HETATM    1  N   UNL     1      -2.049   4.703 -30.874  1.00  0.00    -0.293 N 
HETATM    2  C   UNL     1      -2.128   4.329 -32.238  1.00  0.00     0.322 C 
HETATM    3  N   UNL     1      -2.986   3.303 -32.479  1.00  0.00    -0.337 N 
HETATM    4  O   UNL     1      -1.526   4.905 -33.124  1.00  0.00    -0.247 OA
HETATM    5  H   UNL     1      -2.723   4.306 -30.238  1.00  0.00     0.172 HD
HETATM    6  H   UNL     1      -2.957   3.048 -33.459  1.00  0.00     0.164 HD
ENDROOT
BRANCH   3   7
HETATM    7  C   UNL     1      -3.325   2.236 -31.568  1.00  0.00     0.181 C 
BRANCH   7   8
HETATM    8  C   UNL     1      -3.938   1.104 -32.308  1.00  0.00     0.028 A 
HETATM    9  N   UNL     1      -5.171   1.184 -32.915  1.00  0.00    -0.357 N 
HETATM   10  H   UNL     1      -5.771   1.998 -32.914  1.00  0.00     0.166 HD
HETATM   11  C   UNL     1      -5.480  -0.004 -33.535  1.00  0.00     0.043 A 
HETATM   12  C   UNL     1      -4.393  -0.857 -33.357  1.00  0.00    -0.005 A 
HETATM   13  C   UNL     1      -6.620  -0.380 -34.250  1.00  0.00     0.033 A 
HETATM   14  C   UNL     1      -3.432  -0.152 -32.584  1.00  0.00     0.040 A 
HETATM   15  C   UNL     1      -4.436  -2.138 -33.936  1.00  0.00     0.050 A 
HETATM   16  C   UNL     1      -5.556  -2.528 -34.685  1.00  0.00     0.069 A 
HETATM   17  C   UNL     1      -6.638  -1.659 -34.821  1.00  0.00     0.039 A 
BRANCH  16  18
HETATM   18  O   UNL     1      -5.470  -3.785 -35.218  1.00  0.00    -0.356 OA
HETATM   19  C   UNL     1      -6.664  -4.559 -35.220  1.00  0.00     0.210 C 
ENDBRANCH  16  18
ENDBRANCH   7   8
ENDBRANCH   3   7
BRANCH   1  20
HETATM   20  C   UNL     1      -1.150   5.640 -30.376  1.00  0.00     0.129 A 
HETATM   21  N   UNL     1      -1.441   6.921 -29.948  1.00  0.00    -0.249 N 
HETATM   22  N   UNL     1      -0.356   7.585 -29.495  1.00  0.00    -0.183 NA
HETATM   23  C   UNL     1       0.641   6.715 -29.643  1.00  0.00     0.142 A 
HETATM   24  C   UNL     1       0.206   5.494 -30.183  1.00  0.00     0.071 A 
BRANCH  21  25
HETATM   25  C   UNL     1      -2.724   7.630 -29.950  1.00  0.00     0.111 C 
HETATM   26  C   UNL     1      -3.019   8.188 -28.554  1.00  0.00     0.035 C 
BRANCH  25  27
HETATM   27  C   UNL     1      -2.833   8.684 -31.087  1.00  0.00     0.002 C 
HETATM   28  C   UNL     1      -2.485  10.094 -30.592  1.00  0.00     0.011 C 
HETATM   29  C   UNL     1      -1.925   8.339 -32.273  1.00  0.00     0.011 C 
ENDBRANCH  25  27
ENDBRANCH  21  25
ENDBRANCH   1  20
TORSDOF 6
ENDMDL
MODEL 7
REMARK VINA RESULT:      -8.0      1.509      2.184
REMARK  6 active torsions:
REMARK  status: ('A' for Active; 'I' for Inactive)
REMARK    1  A    between atoms: C_2  and  N_3 
REMARK    2  A    between atoms: C_2  and  C_25 
REMARK    3  A    between atoms: C_7  and  N_8 
REMARK       I    between atoms: N_8  and  C_9 
REMARK       I    between atoms: C_9  and  N_10 
REMARK    4  A    between atoms: N_10  and  C_11 
REMARK    5  A    between atoms: C_11  and  C_12 
REMARK    6  A    between atoms: C_20  and  O_21 
ROOT
HETATM    1  N   UNL     1      -4.022   4.427 -30.838  1.00  0.00    -0.293 N 
HETATM    2  C   UNL     1      -4.272   3.945 -32.147  1.00  0.00     0.322 C 
HETATM    3  N   UNL     1      -4.254   2.590 -32.249  1.00  0.00    -0.337 N 
HETATM    4  O   UNL     1      -4.534   4.672 -33.088  1.00  0.00    -0.247 OA
HETATM    5  H   UNL     1      -4.009   3.757 -30.085  1.00  0.00     0.172 HD
HETATM    6  H   UNL     1      -4.385   2.311 -33.213  1.00  0.00     0.164 HD
ENDROOT
BRANCH   3   7
HETATM    7  C   UNL     1      -3.483   1.680 -31.437  1.00  0.00     0.181 C 
BRANCH   7   8
HETATM    8  C   UNL     1      -3.585   0.300 -31.974  1.00  0.00     0.028 A 
HETATM    9  N   UNL     1      -2.978  -0.784 -31.381  1.00  0.00    -0.357 N 
HETATM   10  H   UNL     1      -2.411  -0.750 -30.544  1.00  0.00     0.166 HD
HETATM   11  C   UNL     1      -3.253  -1.934 -32.083  1.00  0.00     0.043 A 
HETATM   12  C   UNL     1      -4.098  -1.583 -33.133  1.00  0.00    -0.005 A 
HETATM   13  C   UNL     1      -2.838  -3.250 -31.860  1.00  0.00     0.033 A 
HETATM   14  C   UNL     1      -4.298  -0.179 -33.057  1.00  0.00     0.040 A 
HETATM   15  C   UNL     1      -4.567  -2.595 -33.991  1.00  0.00     0.050 A 
HETATM   16  C   UNL     1      -4.191  -3.927 -33.770  1.00  0.00     0.069 A 
HETATM   17  C   UNL     1      -3.323  -4.241 -32.724  1.00  0.00     0.039 A 
BRANCH  16  18
HETATM   18  O   UNL     1      -4.731  -4.822 -34.653  1.00  0.00    -0.356 OA
HETATM   19  C   UNL     1      -6.104  -4.640 -34.983  1.00  0.00     0.210 C 
ENDBRANCH  16  18
ENDBRANCH   7   8
ENDBRANCH   3   7
BRANCH   1  20
HETATM   20  C   UNL     1      -3.870   5.773 -30.523  1.00  0.00     0.129 A 
HETATM   21  N   UNL     1      -2.770   6.567 -30.787  1.00  0.00    -0.249 N 
HETATM   22  N   UNL     1      -2.931   7.844 -30.379  1.00  0.00    -0.183 NA
HETATM   23  C   UNL     1      -4.150   7.861 -29.843  1.00  0.00     0.142 A 
HETATM   24  C   UNL     1      -4.777   6.607 -29.906  1.00  0.00     0.071 A 
BRANCH  21  25
HETATM   25  C   UNL     1      -1.491   6.203 -31.404  1.00  0.00     0.111 C 
HETATM   26  C   UNL     1      -1.310   6.959 -32.724  1.00  0.00     0.035 C 
BRANCH  25  27
HETATM   27  C   UNL     1      -0.288   6.336 -30.430  1.00  0.00     0.002 C 
HETATM   28  C   UNL     1       0.214   4.966 -29.954  1.00  0.00     0.011 C 
HETATM   29  C   UNL     1       0.882   7.094 -31.069  1.00  0.00     0.011 C 
ENDBRANCH  25  27
ENDBRANCH  21  25
ENDBRANCH   1  20
TORSDOF 6
ENDMDL
MODEL 8
REMARK VINA RESULT:      -7.9     15.765     18.134
REMARK  6 active torsions:
REMARK  status: ('A' for Active; 'I' for Inactive)
REMARK    1  A    between atoms: C_2  and  N_3 
REMARK    2  A    between atoms: C_2  and  C_25 
REMARK    3  A    between atoms: C_7  and  N_8 
REMARK       I    between atoms: N_8  and  C_9 
REMARK       I    between atoms: C_9  and  N_10 
REMARK    4  A    between atoms: N_10  and  C_11 
REMARK    5  A    between atoms: C_11  and  C_12 
REMARK    6  A    between atoms: C_20  and  O_21 
ROOT
HETATM    1  N   UNL     1      -2.980 -13.820 -37.771  1.00  0.00    -0.293 N 
HETATM    2  C   UNL     1      -3.618 -12.562 -37.638  1.00  0.00     0.322 C 
HETATM    3  N   UNL     1      -4.647 -12.558 -36.750  1.00  0.00    -0.337 N 
HETATM    4  O   UNL     1      -3.249 -11.560 -38.221  1.00  0.00    -0.247 OA
HETATM    5  H   UNL     1      -3.221 -14.542 -37.112  1.00  0.00     0.172 HD
HETATM    6  H   UNL     1      -5.095 -11.650 -36.739  1.00  0.00     0.164 HD
ENDROOT
BRANCH   3   7
HETATM    7  C   UNL     1      -5.499 -13.675 -36.420  1.00  0.00     0.181 C 
BRANCH   7   8
HETATM    8  C   UNL     1      -6.701 -13.679 -37.291  1.00  0.00     0.028 A 
HETATM    9  N   UNL     1      -7.129 -12.569 -37.986  1.00  0.00    -0.357 N 
HETATM   10  H   UNL     1      -6.681 -11.662 -37.969  1.00  0.00     0.166 HD
HETATM   11  C   UNL     1      -8.255 -12.864 -38.718  1.00  0.00     0.043 A 
HETATM   12  C   UNL     1      -8.533 -14.214 -38.521  1.00  0.00    -0.005 A 
HETATM   13  C   UNL     1      -9.031 -12.050 -39.548  1.00  0.00     0.033 A 
HETATM   14  C   UNL     1      -7.553 -14.715 -37.622  1.00  0.00     0.040 A 
HETATM   15  C   UNL     1      -9.625 -14.786 -39.198  1.00  0.00     0.050 A 
HETATM   16  C   UNL     1     -10.401 -13.999 -40.060  1.00  0.00     0.069 A 
HETATM   17  C   UNL     1     -10.111 -12.643 -40.215  1.00  0.00     0.039 A 
BRANCH  16  18
HETATM   18  O   UNL     1     -11.418 -14.673 -40.681  1.00  0.00    -0.356 OA
HETATM   19  C   UNL     1     -11.066 -15.442 -41.826  1.00  0.00     0.210 C 
ENDBRANCH  16  18
ENDBRANCH   7   8
ENDBRANCH   3   7
BRANCH   1  20
HETATM   20  C   UNL     1      -1.987 -14.090 -38.707  1.00  0.00     0.129 A 
HETATM   21  N   UNL     1      -2.160 -14.291 -40.064  1.00  0.00    -0.249 N 
HETATM   22  N   UNL     1      -0.999 -14.511 -40.717  1.00  0.00    -0.183 NA
HETATM   23  C   UNL     1      -0.074 -14.454 -39.761  1.00  0.00     0.142 A 
HETATM   24  C   UNL     1      -0.629 -14.195 -38.497  1.00  0.00     0.071 A 
BRANCH  21  25
HETATM   25  C   UNL     1      -3.400 -14.322 -40.845  1.00  0.00     0.111 C 
HETATM   26  C   UNL     1      -3.087 -14.632 -42.313  1.00  0.00     0.035 C 
BRANCH  25  27
HETATM   27  C   UNL     1      -4.487 -15.242 -40.224  1.00  0.00     0.002 C 
HETATM   28  C   UNL     1      -5.839 -15.085 -40.932  1.00  0.00     0.011 C 
HETATM   29  C   UNL     1      -4.076 -16.719 -40.265  1.00  0.00     0.011 C 
ENDBRANCH  25  27
ENDBRANCH  21  25
ENDBRANCH   1  20
TORSDOF 6
ENDMDL
MODEL 9
REMARK VINA RESULT:      -7.9      2.661      9.644
REMARK  6 active torsions:
REMARK  status: ('A' for Active; 'I' for Inactive)
REMARK    1  A    between atoms: C_2  and  N_3 
REMARK    2  A    between atoms: C_2  and  C_25 
REMARK    3  A    between atoms: C_7  and  N_8 
REMARK       I    between atoms: N_8  and  C_9 
REMARK       I    between atoms: C_9  and  N_10 
REMARK    4  A    between atoms: N_10  and  C_11 
REMARK    5  A    between atoms: C_11  and  C_12 
REMARK    6  A    between atoms: C_20  and  O_21 
ROOT
HETATM    1  N   UNL     1      -4.227   2.416 -32.467  1.00  0.00    -0.293 N 
HETATM    2  C   UNL     1      -4.610   3.763 -32.678  1.00  0.00     0.322 C 
HETATM    3  N   UNL     1      -3.658   4.519 -33.285  1.00  0.00    -0.337 N 
HETATM    4  O   UNL     1      -5.712   4.197 -32.394  1.00  0.00    -0.247 OA
HETATM    5  H   UNL     1      -3.378   2.094 -32.906  1.00  0.00     0.172 HD
HETATM    6  H   UNL     1      -3.970   5.480 -33.359  1.00  0.00     0.164 HD
ENDROOT
BRANCH   3   7
HETATM    7  C   UNL     1      -2.230   4.334 -33.193  1.00  0.00     0.181 C 
BRANCH   7   8
HETATM    8  C   UNL     1      -1.661   5.237 -32.161  1.00  0.00     0.028 A 
HETATM    9  N   UNL     1      -2.411   6.173 -31.485  1.00  0.00    -0.357 N 
HETATM   10  H   UNL     1      -3.399   6.339 -31.624  1.00  0.00     0.166 HD
HETATM   11  C   UNL     1      -1.630   6.855 -30.583  1.00  0.00     0.043 A 
HETATM   12  C   UNL     1      -0.350   6.312 -30.651  1.00  0.00    -0.005 A 
HETATM   13  C   UNL     1      -1.960   7.892 -29.705  1.00  0.00     0.033 A 
HETATM   14  C   UNL     1      -0.380   5.298 -31.647  1.00  0.00     0.040 A 
HETATM   15  C   UNL     1       0.644   6.810 -29.790  1.00  0.00     0.050 A 
HETATM   16  C   UNL     1       0.331   7.828 -28.878  1.00  0.00     0.069 A 
HETATM   17  C   UNL     1      -0.955   8.368 -28.853  1.00  0.00     0.039 A 
BRANCH  16  18
HETATM   18  O   UNL     1       1.372   8.210 -28.077  1.00  0.00    -0.356 OA
HETATM   19  C   UNL     1       1.426   7.626 -26.780  1.00  0.00     0.210 C 
ENDBRANCH  16  18
ENDBRANCH   7   8
ENDBRANCH   3   7
BRANCH   1  20
HETATM   20  C   UNL     1      -4.988   1.495 -31.756  1.00  0.00     0.129 A 
HETATM   21  N   UNL     1      -5.497   0.300 -32.229  1.00  0.00    -0.249 N 
HETATM   22  N   UNL     1      -6.179  -0.392 -31.291  1.00  0.00    -0.183 NA
HETATM   23  C   UNL     1      -6.106   0.377 -30.206  1.00  0.00     0.142 A 
HETATM   24  C   UNL     1      -5.379   1.556 -30.436  1.00  0.00     0.071 A 
BRANCH  21  25
HETATM   25  C   UNL     1      -5.418  -0.273 -33.577  1.00  0.00     0.111 C 
HETATM   26  C   UNL     1      -4.311  -1.331 -33.633  1.00  0.00     0.035 C 
BRANCH  25  27
HETATM   27  C   UNL     1      -6.792  -0.767 -34.108  1.00  0.00     0.002 C 
HETATM   28  C   UNL     1      -7.306   0.110 -35.257  1.00  0.00     0.011 C 
HETATM   29  C   UNL     1      -6.728  -2.222 -34.588  1.00  0.00     0.011 C 
ENDBRANCH  25  27
ENDBRANCH  21  25
ENDBRANCH   1  20
TORSDOF 6
ENDMDL
MODEL 10
REMARK VINA RESULT:      -7.8      3.211      9.244
REMARK  6 active torsions:
REMARK  status: ('A' for Active; 'I' for Inactive)
REMARK    1  A    between atoms: C_2  and  N_3 
REMARK    2  A    between atoms: C_2  and  C_25 
REMARK    3  A    between atoms: C_7  and  N_8 
REMARK       I    between atoms: N_8  and  C_9 
REMARK       I    between atoms: C_9  and  N_10 
REMARK    4  A    between atoms: N_10  and  C_11 
REMARK    5  A    between atoms: C_11  and  C_12 
REMARK    6  A    between atoms: C_20  and  O_21 
ROOT
HETATM    1  N   UNL     1      -6.527   1.604 -32.113  1.00  0.00    -0.293 N 
HETATM    2  C   UNL     1      -5.751   1.267 -30.977  1.00  0.00     0.322 C 
HETATM    3  N   UNL     1      -4.462   1.695 -31.043  1.00  0.00    -0.337 N 
HETATM    4  O   UNL     1      -6.204   0.694 -30.004  1.00  0.00    -0.247 OA
HETATM    5  H   UNL     1      -6.129   2.244 -32.782  1.00  0.00     0.172 HD
HETATM    6  H   UNL     1      -3.948   1.378 -30.231  1.00  0.00     0.164 HD
ENDROOT
BRANCH   3   7
HETATM    7  C   UNL     1      -3.681   1.878 -32.243  1.00  0.00     0.181 C 
BRANCH   7   8
HETATM    8  C   UNL     1      -3.224   3.287 -32.348  1.00  0.00     0.028 A 
HETATM    9  N   UNL     1      -2.421   3.742 -33.369  1.00  0.00    -0.357 N 
HETATM   10  H   UNL     1      -2.066   3.176 -34.129  1.00  0.00     0.166 HD
HETATM   11  C   UNL     1      -2.168   5.085 -33.220  1.00  0.00     0.043 A 
HETATM   12  C   UNL     1      -2.864   5.514 -32.093  1.00  0.00    -0.005 A 
HETATM   13  C   UNL     1      -1.397   5.951 -34.001  1.00  0.00     0.033 A 
HETATM   14  C   UNL     1      -3.522   4.376 -31.551  1.00  0.00     0.040 A 
HETATM   15  C   UNL     1      -2.806   6.873 -31.737  1.00  0.00     0.050 A 
HETATM   16  C   UNL     1      -2.065   7.768 -32.522  1.00  0.00     0.069 A 
HETATM   17  C   UNL     1      -1.358   7.302 -33.630  1.00  0.00     0.039 A 
BRANCH  16  18
HETATM   18  O   UNL     1      -2.106   9.066 -32.091  1.00  0.00    -0.356 OA
HETATM   19  C   UNL     1      -2.435   9.272 -30.721  1.00  0.00     0.210 C 
ENDBRANCH  16  18
ENDBRANCH   7   8
ENDBRANCH   3   7
BRANCH   1  20
HETATM   20  C   UNL     1      -7.831   1.166 -32.320  1.00  0.00     0.129 A 
HETATM   21  N   UNL     1      -8.260   0.262 -33.273  1.00  0.00    -0.249 N 
HETATM   22  N   UNL     1      -9.586   0.018 -33.210  1.00  0.00    -0.183 NA
HETATM   23  C   UNL     1     -10.008   0.781 -32.204  1.00  0.00     0.142 A 
HETATM   24  C   UNL     1      -8.964   1.512 -31.616  1.00  0.00     0.071 A 
BRANCH  21  25
HETATM   25  C   UNL     1      -7.490  -0.415 -34.322  1.00  0.00     0.111 C 
HETATM   26  C   UNL     1      -6.769   0.618 -35.194  1.00  0.00     0.035 C 
BRANCH  25  27
HETATM   27  C   UNL     1      -6.563  -1.532 -33.769  1.00  0.00     0.002 C 
HETATM   28  C   UNL     1      -6.749  -2.853 -34.527  1.00  0.00     0.011 C 
HETATM   29  C   UNL     1      -5.085  -1.131 -33.833  1.00  0.00     0.011 C 
ENDBRANCH  25  27
ENDBRANCH  21  25
ENDBRANCH   1  20
TORSDOF 6
ENDMDL
