MODEL 1
REMARK VINA RESULT:      -9.2      0.000      0.000
REMARK  4 active torsions:
REMARK  status: ('A' for Active; 'I' for Inactive)
REMARK    1  A    between atoms: C_3  and  N_4 
REMARK       I    between atoms: N_4  and  C_5 
REMARK    2  A    between atoms: C_5  and  C_6 
REMARK    3  A    between atoms: C_7  and  C_8 
REMARK    4  A    between atoms: C_19  and  C_20 
ROOT
HETATM    1  N   UNL     1      -8.295   0.478 -33.222  1.00  0.00    -0.324 N 
HETATM    2  C   UNL     1      -8.734   1.730 -33.603  1.00  0.00     0.245 C 
HETATM    3  O   UNL     1      -8.072   2.619 -34.123  1.00  0.00    -0.268 OA
HETATM    4  H   UNL     1      -8.981  -0.161 -32.844  1.00  0.00     0.169 HD
ENDROOT
BRANCH   1   5
HETATM    5  C   UNL     1      -6.974  -0.020 -33.289  1.00  0.00     0.035 A 
HETATM    6  C   UNL     1      -5.848   0.708 -32.902  1.00  0.00     0.029 A 
HETATM    7  C   UNL     1      -4.576   0.136 -32.972  1.00  0.00     0.003 A 
HETATM    8  C   UNL     1      -4.416  -1.170 -33.433  1.00  0.00     0.012 A 
HETATM    9  C   UNL     1      -5.528  -1.918 -33.833  1.00  0.00    -0.021 A 
HETATM   10  C   UNL     1      -6.803  -1.334 -33.754  1.00  0.00     0.042 A 
BRANCH   9  11
HETATM   11  C   UNL     1      -5.352  -3.280 -34.309  1.00  0.00     0.010 A 
HETATM   12  C   UNL     1      -6.212  -4.115 -35.060  1.00  0.00     0.152 A 
HETATM   13  N   UNL     1      -5.693  -5.325 -35.286  1.00  0.00    -0.187 NA
HETATM   14  N   UNL     1      -4.501  -5.274 -34.670  1.00  0.00    -0.289 N 
HETATM   15  H   UNL     1      -3.914  -6.101 -34.694  1.00  0.00     0.188 HD
HETATM   16  C   UNL     1      -4.248  -4.073 -34.072  1.00  0.00     0.123 A 
ENDBRANCH   9  11
ENDBRANCH   1   5
BRANCH   2  17
HETATM   17  C   UNL     1     -10.181   1.929 -33.301  1.00  0.00     0.075 C 
HETATM   18  C   UNL     1     -11.102   1.248 -34.003  1.00  0.00     0.017 C 
BRANCH  18  19
HETATM   19  C   UNL     1     -12.555   1.380 -33.827  1.00  0.00    -0.035 A 
HETATM   20  C   UNL     1     -13.037   2.404 -32.995  1.00  0.00     0.021 A 
HETATM   21  C   UNL     1     -14.401   2.493 -32.769  1.00  0.00    -0.022 A 
HETATM   22  C   UNL     1     -15.280   1.597 -33.355  1.00  0.00     0.075 A 
HETATM   23  C   UNL     1     -15.171   3.490 -31.994  1.00  0.00     0.068 C 
HETATM   24  O   UNL     1     -16.592   1.825 -33.036  1.00  0.00    -0.350 OA
HETATM   25  C   UNL     1     -14.842   0.584 -34.182  1.00  0.00     0.038 A 
HETATM   26  C   UNL     1     -16.513   2.761 -31.935  1.00  0.00     0.180 C 
HETATM   27  C   UNL     1     -13.467   0.470 -34.407  1.00  0.00     0.014 A 
ENDBRANCH  18  19
ENDBRANCH   2  17
TORSDOF 4
ENDMDL
MODEL 2
REMARK VINA RESULT:      -9.0      4.911      9.297
REMARK  4 active torsions:
REMARK  status: ('A' for Active; 'I' for Inactive)
REMARK    1  A    between atoms: C_3  and  N_4 
REMARK       I    between atoms: N_4  and  C_5 
REMARK    2  A    between atoms: C_5  and  C_6 
REMARK    3  A    between atoms: C_7  and  C_8 
REMARK    4  A    between atoms: C_19  and  C_20 
ROOT
HETATM    1  N   UNL     1      -5.100   1.597 -33.136  1.00  0.00    -0.324 N 
HETATM    2  C   UNL     1      -5.439   2.312 -32.004  1.00  0.00     0.245 C 
HETATM    3  O   UNL     1      -6.461   2.201 -31.339  1.00  0.00    -0.268 OA
HETATM    4  H   UNL     1      -4.194   1.778 -33.546  1.00  0.00     0.169 HD
ENDROOT
BRANCH   1   5
HETATM    5  C   UNL     1      -5.889   0.635 -33.806  1.00  0.00     0.035 A 
HETATM    6  C   UNL     1      -7.094   0.927 -34.446  1.00  0.00     0.029 A 
HETATM    7  C   UNL     1      -7.804  -0.074 -35.111  1.00  0.00     0.003 A 
HETATM    8  C   UNL     1      -7.317  -1.381 -35.140  1.00  0.00     0.012 A 
HETATM    9  C   UNL     1      -6.116  -1.701 -34.500  1.00  0.00    -0.021 A 
HETATM   10  C   UNL     1      -5.408  -0.684 -33.838  1.00  0.00     0.042 A 
BRANCH   9  11
HETATM   11  C   UNL     1      -5.615  -3.064 -34.538  1.00  0.00     0.010 A 
HETATM   12  C   UNL     1      -6.231  -4.262 -34.971  1.00  0.00     0.152 A 
HETATM   13  N   UNL     1      -5.442  -5.332 -34.828  1.00  0.00    -0.187 NA
HETATM   14  N   UNL     1      -4.322  -4.824 -34.291  1.00  0.00    -0.289 N 
HETATM   15  H   UNL     1      -3.562  -5.462 -34.077  1.00  0.00     0.188 HD
HETATM   16  C   UNL     1      -4.372  -3.473 -34.100  1.00  0.00     0.123 A 
ENDBRANCH   9  11
ENDBRANCH   1   5
BRANCH   2  17
HETATM   17  C   UNL     1      -4.389   3.305 -31.636  1.00  0.00     0.075 C 
HETATM   18  C   UNL     1      -3.438   3.623 -32.530  1.00  0.00     0.017 C 
BRANCH  18  19
HETATM   19  C   UNL     1      -2.332   4.557 -32.279  1.00  0.00    -0.035 A 
HETATM   20  C   UNL     1      -1.752   4.579 -31.000  1.00  0.00     0.021 A 
HETATM   21  C   UNL     1      -0.755   5.503 -30.735  1.00  0.00    -0.022 A 
HETATM   22  C   UNL     1      -0.327   6.388 -31.710  1.00  0.00     0.075 A 
HETATM   23  C   UNL     1       0.050   5.704 -29.510  1.00  0.00     0.068 C 
HETATM   24  O   UNL     1       0.666   7.231 -31.290  1.00  0.00    -0.350 OA
HETATM   25  C   UNL     1      -0.869   6.391 -32.978  1.00  0.00     0.038 A 
HETATM   26  C   UNL     1       0.669   7.059 -29.853  1.00  0.00     0.180 C 
HETATM   27  C   UNL     1      -1.888   5.474 -33.257  1.00  0.00     0.014 A 
ENDBRANCH  18  19
ENDBRANCH   2  17
TORSDOF 4
ENDMDL
MODEL 3
REMARK VINA RESULT:      -8.9      7.343     10.554
REMARK  4 active torsions:
REMARK  status: ('A' for Active; 'I' for Inactive)
REMARK    1  A    between atoms: C_3  and  N_4 
REMARK       I    between atoms: N_4  and  C_5 
REMARK    2  A    between atoms: C_5  and  C_6 
REMARK    3  A    between atoms: C_7  and  C_8 
REMARK    4  A    between atoms: C_19  and  C_20 
ROOT
HETATM    1  N   UNL     1      -2.787   3.307 -32.793  1.00  0.00    -0.324 N 
HETATM    2  C   UNL     1      -3.922   2.895 -32.123  1.00  0.00     0.245 C 
HETATM    3  O   UNL     1      -4.611   3.558 -31.360  1.00  0.00    -0.268 OA
HETATM    4  H   UNL     1      -2.354   2.648 -33.424  1.00  0.00     0.169 HD
ENDROOT
BRANCH   1   5
HETATM    5  C   UNL     1      -2.142   4.561 -32.687  1.00  0.00     0.035 A 
HETATM    6  C   UNL     1      -2.085   5.496 -33.720  1.00  0.00     0.029 A 
HETATM    7  C   UNL     1      -1.451   6.725 -33.530  1.00  0.00     0.003 A 
HETATM    8  C   UNL     1      -0.864   7.031 -32.302  1.00  0.00     0.012 A 
HETATM    9  C   UNL     1      -0.902   6.108 -31.252  1.00  0.00    -0.021 A 
HETATM   10  C   UNL     1      -1.546   4.876 -31.455  1.00  0.00     0.042 A 
BRANCH   9  11
HETATM   11  C   UNL     1      -0.290   6.437 -29.976  1.00  0.00     0.010 A 
HETATM   12  C   UNL     1       0.453   5.639 -29.075  1.00  0.00     0.152 A 
HETATM   13  N   UNL     1       0.834   6.308 -27.983  1.00  0.00    -0.187 NA
HETATM   14  N   UNL     1       0.327   7.536 -28.176  1.00  0.00    -0.289 N 
HETATM   15  H   UNL     1       0.480   8.235 -27.457  1.00  0.00     0.188 HD
HETATM   16  C   UNL     1      -0.351   7.666 -29.353  1.00  0.00     0.123 A 
ENDBRANCH   9  11
ENDBRANCH   1   5
BRANCH   2  17
HETATM   17  C   UNL     1      -4.258   1.472 -32.420  1.00  0.00     0.075 C 
HETATM   18  C   UNL     1      -3.285   0.546 -32.407  1.00  0.00     0.017 C 
BRANCH  18  19
HETATM   19  C   UNL     1      -3.479  -0.877 -32.716  1.00  0.00    -0.035 A 
HETATM   20  C   UNL     1      -4.290  -1.219 -33.810  1.00  0.00     0.021 A 
HETATM   21  C   UNL     1      -4.534  -2.558 -34.066  1.00  0.00    -0.022 A 
HETATM   22  C   UNL     1      -3.985  -3.548 -33.268  1.00  0.00     0.075 A 
HETATM   23  C   UNL     1      -5.295  -3.190 -35.167  1.00  0.00     0.068 C 
HETATM   24  O   UNL     1      -4.318  -4.817 -33.658  1.00  0.00    -0.350 OA
HETATM   25  C   UNL     1      -3.180  -3.249 -32.190  1.00  0.00     0.038 A 
HETATM   26  C   UNL     1      -5.393  -4.608 -34.605  1.00  0.00     0.180 C 
HETATM   27  C   UNL     1      -2.937  -1.901 -31.908  1.00  0.00     0.014 A 
ENDBRANCH  18  19
ENDBRANCH   2  17
TORSDOF 4
ENDMDL
MODEL 4
REMARK VINA RESULT:      -8.9      6.173      9.878
REMARK  4 active torsions:
REMARK  status: ('A' for Active; 'I' for Inactive)
REMARK    1  A    between atoms: C_3  and  N_4 
REMARK       I    between atoms: N_4  and  C_5 
REMARK    2  A    between atoms: C_5  and  C_6 
REMARK    3  A    between atoms: C_7  and  C_8 
REMARK    4  A    between atoms: C_19  and  C_20 
ROOT
HETATM    1  N   UNL     1      -2.584   3.481 -32.726  1.00  0.00    -0.324 N 
HETATM    2  C   UNL     1      -3.662   3.063 -31.971  1.00  0.00     0.245 C 
HETATM    3  O   UNL     1      -4.249   3.699 -31.105  1.00  0.00    -0.268 OA
HETATM    4  H   UNL     1      -2.240   2.848 -33.436  1.00  0.00     0.169 HD
ENDROOT
BRANCH   1   5
HETATM    5  C   UNL     1      -1.885   4.704 -32.611  1.00  0.00     0.035 A 
HETATM    6  C   UNL     1      -1.753   5.625 -33.651  1.00  0.00     0.029 A 
HETATM    7  C   UNL     1      -1.069   6.825 -33.452  1.00  0.00     0.003 A 
HETATM    8  C   UNL     1      -0.506   7.116 -32.209  1.00  0.00     0.012 A 
HETATM    9  C   UNL     1      -0.619   6.207 -31.153  1.00  0.00    -0.021 A 
HETATM   10  C   UNL     1      -1.313   5.004 -31.365  1.00  0.00     0.042 A 
BRANCH   9  11
HETATM   11  C   UNL     1      -0.032   6.521 -29.861  1.00  0.00     0.010 A 
HETATM   12  C   UNL     1       0.489   5.676 -28.854  1.00  0.00     0.152 A 
HETATM   13  N   UNL     1       0.926   6.350 -27.786  1.00  0.00    -0.187 NA
HETATM   14  N   UNL     1       0.677   7.630 -28.102  1.00  0.00    -0.289 N 
HETATM   15  H   UNL     1       0.918   8.346 -27.424  1.00  0.00     0.188 HD
HETATM   16  C   UNL     1       0.107   7.787 -29.332  1.00  0.00     0.123 A 
ENDBRANCH   9  11
ENDBRANCH   1   5
BRANCH   2  17
HETATM   17  C   UNL     1      -4.080   1.673 -32.317  1.00  0.00     0.075 C 
HETATM   18  C   UNL     1      -5.185   1.479 -33.055  1.00  0.00     0.017 C 
BRANCH  18  19
HETATM   19  C   UNL     1      -5.720   0.164 -33.432  1.00  0.00    -0.035 A 
HETATM   20  C   UNL     1      -4.816  -0.888 -33.650  1.00  0.00     0.021 A 
HETATM   21  C   UNL     1      -5.306  -2.113 -34.073  1.00  0.00    -0.022 A 
HETATM   22  C   UNL     1      -6.663  -2.306 -34.272  1.00  0.00     0.075 A 
HETATM   23  C   UNL     1      -4.593  -3.385 -34.320  1.00  0.00     0.068 C 
HETATM   24  O   UNL     1      -6.983  -3.572 -34.684  1.00  0.00    -0.350 OA
HETATM   25  C   UNL     1      -7.580  -1.298 -34.063  1.00  0.00     0.038 A 
HETATM   26  C   UNL     1      -5.704  -4.142 -35.049  1.00  0.00     0.180 C 
HETATM   27  C   UNL     1      -7.099  -0.051 -33.651  1.00  0.00     0.014 A 
ENDBRANCH  18  19
ENDBRANCH   2  17
TORSDOF 4
ENDMDL
MODEL 5
REMARK VINA RESULT:      -8.5      6.344      8.707
REMARK  4 active torsions:
REMARK  status: ('A' for Active; 'I' for Inactive)
REMARK    1  A    between atoms: C_3  and  N_4 
REMARK       I    between atoms: N_4  and  C_5 
REMARK    2  A    between atoms: C_5  and  C_6 
REMARK    3  A    between atoms: C_7  and  C_8 
REMARK    4  A    between atoms: C_19  and  C_20 
ROOT
HETATM    1  N   UNL     1      -3.505   0.645 -32.451  1.00  0.00    -0.324 N 
HETATM    2  C   UNL     1      -4.654   1.410 -32.410  1.00  0.00     0.245 C 
HETATM    3  O   UNL     1      -5.806   1.008 -32.309  1.00  0.00    -0.268 OA
HETATM    4  H   UNL     1      -2.622   1.135 -32.493  1.00  0.00     0.169 HD
ENDROOT
BRANCH   1   5
HETATM    5  C   UNL     1      -3.418  -0.766 -32.454  1.00  0.00     0.035 A 
HETATM    6  C   UNL     1      -2.536  -1.493 -31.655  1.00  0.00     0.029 A 
HETATM    7  C   UNL     1      -2.529  -2.888 -31.695  1.00  0.00     0.003 A 
HETATM    8  C   UNL     1      -3.403  -3.572 -32.539  1.00  0.00     0.012 A 
HETATM    9  C   UNL     1      -4.293  -2.866 -33.355  1.00  0.00    -0.021 A 
HETATM   10  C   UNL     1      -4.294  -1.462 -33.303  1.00  0.00     0.042 A 
BRANCH   9  11
HETATM   11  C   UNL     1      -5.202  -3.588 -34.229  1.00  0.00     0.010 A 
HETATM   12  C   UNL     1      -5.141  -4.905 -34.741  1.00  0.00     0.152 A 
HETATM   13  N   UNL     1      -6.171  -5.200 -35.539  1.00  0.00    -0.187 NA
HETATM   14  N   UNL     1      -6.891  -4.067 -35.551  1.00  0.00    -0.289 N 
HETATM   15  H   UNL     1      -7.737  -4.044 -36.112  1.00  0.00     0.188 HD
HETATM   16  C   UNL     1      -6.357  -3.074 -34.782  1.00  0.00     0.123 A 
ENDBRANCH   9  11
ENDBRANCH   1   5
BRANCH   2  17
HETATM   17  C   UNL     1      -4.358   2.868 -32.514  1.00  0.00     0.075 C 
HETATM   18  C   UNL     1      -3.084   3.276 -32.642  1.00  0.00     0.017 C 
BRANCH  18  19
HETATM   19  C   UNL     1      -2.658   4.680 -32.718  1.00  0.00    -0.035 A 
HETATM   20  C   UNL     1      -2.693   5.454 -31.547  1.00  0.00     0.021 A 
HETATM   21  C   UNL     1      -2.359   6.796 -31.623  1.00  0.00    -0.022 A 
HETATM   22  C   UNL     1      -1.989   7.369 -32.828  1.00  0.00     0.075 A 
HETATM   23  C   UNL     1      -2.260   7.811 -30.551  1.00  0.00     0.068 C 
HETATM   24  O   UNL     1      -1.685   8.701 -32.733  1.00  0.00    -0.350 OA
HETATM   25  C   UNL     1      -1.938   6.639 -33.996  1.00  0.00     0.038 A 
HETATM   26  C   UNL     1      -2.176   9.066 -31.420  1.00  0.00     0.180 C 
HETATM   27  C   UNL     1      -2.288   5.287 -33.939  1.00  0.00     0.014 A 
ENDBRANCH  18  19
ENDBRANCH   2  17
TORSDOF 4
ENDMDL
MODEL 6
REMARK VINA RESULT:      -8.2     13.730     16.978
REMARK  4 active torsions:
REMARK  status: ('A' for Active; 'I' for Inactive)
REMARK    1  A    between atoms: C_3  and  N_4 
REMARK       I    between atoms: N_4  and  C_5 
REMARK    2  A    between atoms: C_5  and  C_6 
REMARK    3  A    between atoms: C_7  and  C_8 
REMARK    4  A    between atoms: C_19  and  C_20 
ROOT
HETATM    1  N   UNL     1       2.722   8.930 -25.691  1.00  0.00    -0.324 N 
HETATM    2  C   UNL     1       1.423   8.738 -26.118  1.00  0.00     0.245 C 
HETATM    3  O   UNL     1       0.397   9.067 -25.536  1.00  0.00    -0.268 OA
HETATM    4  H   UNL     1       3.464   8.638 -26.311  1.00  0.00     0.169 HD
ENDROOT
BRANCH   1   5
HETATM    5  C   UNL     1       3.142   9.484 -24.460  1.00  0.00     0.035 A 
HETATM    6  C   UNL     1       2.885  10.798 -24.070  1.00  0.00     0.029 A 
HETATM    7  C   UNL     1       3.310  11.265 -22.825  1.00  0.00     0.003 A 
HETATM    8  C   UNL     1       4.001  10.420 -21.956  1.00  0.00     0.012 A 
HETATM    9  C   UNL     1       4.278   9.100 -22.326  1.00  0.00    -0.021 A 
HETATM   10  C   UNL     1       3.841   8.642 -23.580  1.00  0.00     0.042 A 
BRANCH   9  11
HETATM   11  C   UNL     1       4.996   8.228 -21.413  1.00  0.00     0.010 A 
HETATM   12  C   UNL     1       5.618   8.500 -20.172  1.00  0.00     0.152 A 
HETATM   13  N   UNL     1       6.201   7.424 -19.637  1.00  0.00    -0.187 NA
HETATM   14  N   UNL     1       5.964   6.459 -20.539  1.00  0.00    -0.289 N 
HETATM   15  H   UNL     1       6.328   5.530 -20.353  1.00  0.00     0.188 HD
HETATM   16  C   UNL     1       5.245   6.886 -21.618  1.00  0.00     0.123 A 
ENDBRANCH   9  11
ENDBRANCH   1   5
BRANCH   2  17
HETATM   17  C   UNL     1       1.367   8.043 -27.437  1.00  0.00     0.075 C 
HETATM   18  C   UNL     1       0.190   7.925 -28.072  1.00  0.00     0.017 C 
BRANCH  18  19
HETATM   19  C   UNL     1      -0.005   7.235 -29.355  1.00  0.00    -0.035 A 
HETATM   20  C   UNL     1      -0.739   7.886 -30.359  1.00  0.00     0.021 A 
HETATM   21  C   UNL     1      -0.986   7.215 -31.546  1.00  0.00    -0.022 A 
HETATM   22  C   UNL     1      -0.513   5.929 -31.748  1.00  0.00     0.075 A 
HETATM   23  C   UNL     1      -1.674   7.678 -32.771  1.00  0.00     0.068 C 
HETATM   24  O   UNL     1      -0.837   5.410 -32.973  1.00  0.00    -0.350 OA
HETATM   25  C   UNL     1       0.216   5.262 -30.787  1.00  0.00     0.038 A 
HETATM   26  C   UNL     1      -1.836   6.330 -33.475  1.00  0.00     0.180 C 
HETATM   27  C   UNL     1       0.459   5.920 -29.577  1.00  0.00     0.014 A 
ENDBRANCH  18  19
ENDBRANCH   2  17
TORSDOF 4
ENDMDL
MODEL 7
REMARK VINA RESULT:      -8.2      2.825      3.468
REMARK  4 active torsions:
REMARK  status: ('A' for Active; 'I' for Inactive)
REMARK    1  A    between atoms: C_3  and  N_4 
REMARK       I    between atoms: N_4  and  C_5 
REMARK    2  A    between atoms: C_5  and  C_6 
REMARK    3  A    between atoms: C_7  and  C_8 
REMARK    4  A    between atoms: C_19  and  C_20 
ROOT
HETATM    1  N   UNL     1      -6.908   1.493 -33.470  1.00  0.00    -0.324 N 
HETATM    2  C   UNL     1      -7.690   1.949 -32.427  1.00  0.00     0.245 C 
HETATM    3  O   UNL     1      -7.612   1.625 -31.249  1.00  0.00    -0.268 OA
HETATM    4  H   UNL     1      -7.071   1.894 -34.383  1.00  0.00     0.169 HD
ENDROOT
BRANCH   1   5
HETATM    5  C   UNL     1      -5.899   0.505 -33.412  1.00  0.00     0.035 A 
HETATM    6  C   UNL     1      -4.627   0.722 -32.880  1.00  0.00     0.029 A 
HETATM    7  C   UNL     1      -3.693  -0.314 -32.833  1.00  0.00     0.003 A 
HETATM    8  C   UNL     1      -4.019  -1.578 -33.321  1.00  0.00     0.012 A 
HETATM    9  C   UNL     1      -5.285  -1.820 -33.866  1.00  0.00    -0.021 A 
HETATM   10  C   UNL     1      -6.218  -0.771 -33.903  1.00  0.00     0.042 A 
BRANCH   9  11
HETATM   11  C   UNL     1      -5.616  -3.142 -34.369  1.00  0.00     0.010 A 
HETATM   12  C   UNL     1      -4.829  -4.312 -34.481  1.00  0.00     0.152 A 
HETATM   13  N   UNL     1      -5.496  -5.336 -35.021  1.00  0.00    -0.187 NA
HETATM   14  N   UNL     1      -6.712  -4.823 -35.266  1.00  0.00    -0.289 N 
HETATM   15  H   UNL     1      -7.407  -5.424 -35.696  1.00  0.00     0.188 HD
HETATM   16  C   UNL     1      -6.837  -3.516 -34.893  1.00  0.00     0.123 A 
ENDBRANCH   9  11
ENDBRANCH   1   5
BRANCH   2  17
HETATM   17  C   UNL     1      -8.713   2.933 -32.886  1.00  0.00     0.075 C 
HETATM   18  C   UNL     1      -9.401   2.693 -34.014  1.00  0.00     0.017 C 
BRANCH  18  19
HETATM   19  C   UNL     1     -10.407   3.596 -34.590  1.00  0.00    -0.035 A 
HETATM   20  C   UNL     1     -10.049   4.934 -34.822  1.00  0.00     0.021 A 
HETATM   21  C   UNL     1     -11.012   5.808 -35.300  1.00  0.00    -0.022 A 
HETATM   22  C   UNL     1     -12.303   5.377 -35.553  1.00  0.00     0.075 A 
HETATM   23  C   UNL     1     -10.893   7.234 -35.677  1.00  0.00     0.068 C 
HETATM   24  O   UNL     1     -13.129   6.361 -36.026  1.00  0.00    -0.350 OA
HETATM   25  C   UNL     1     -12.687   4.070 -35.343  1.00  0.00     0.038 A 
HETATM   26  C   UNL     1     -12.380   7.576 -35.782  1.00  0.00     0.180 C 
HETATM   27  C   UNL     1     -11.732   3.178 -34.845  1.00  0.00     0.014 A 
ENDBRANCH  18  19
ENDBRANCH   2  17
TORSDOF 4
ENDMDL
MODEL 8
REMARK VINA RESULT:      -8.1      5.408      9.325
REMARK  4 active torsions:
REMARK  status: ('A' for Active; 'I' for Inactive)
REMARK    1  A    between atoms: C_3  and  N_4 
REMARK       I    between atoms: N_4  and  C_5 
REMARK    2  A    between atoms: C_5  and  C_6 
REMARK    3  A    between atoms: C_7  and  C_8 
REMARK    4  A    between atoms: C_19  and  C_20 
ROOT
HETATM    1  N   UNL     1      -5.201   2.116 -32.759  1.00  0.00    -0.324 N 
HETATM    2  C   UNL     1      -4.879   3.414 -33.106  1.00  0.00     0.245 C 
HETATM    3  O   UNL     1      -5.239   4.023 -34.104  1.00  0.00    -0.268 OA
HETATM    4  H   UNL     1      -4.856   1.772 -31.874  1.00  0.00     0.169 HD
ENDROOT
BRANCH   1   5
HETATM    5  C   UNL     1      -5.958   1.194 -33.517  1.00  0.00     0.035 A 
HETATM    6  C   UNL     1      -7.120   1.527 -34.213  1.00  0.00     0.029 A 
HETATM    7  C   UNL     1      -7.798   0.564 -34.963  1.00  0.00     0.003 A 
HETATM    8  C   UNL     1      -7.323  -0.745 -35.020  1.00  0.00     0.012 A 
HETATM    9  C   UNL     1      -6.165  -1.107 -34.325  1.00  0.00    -0.021 A 
HETATM   10  C   UNL     1      -5.488  -0.128 -33.578  1.00  0.00     0.042 A 
BRANCH   9  11
HETATM   11  C   UNL     1      -5.676  -2.473 -34.394  1.00  0.00     0.010 A 
HETATM   12  C   UNL     1      -4.410  -3.019 -34.074  1.00  0.00     0.152 A 
HETATM   13  N   UNL     1      -4.342  -4.335 -34.294  1.00  0.00    -0.187 NA
HETATM   14  N   UNL     1      -5.562  -4.636 -34.766  1.00  0.00    -0.289 N 
HETATM   15  H   UNL     1      -5.752  -5.600 -35.020  1.00  0.00     0.188 HD
HETATM   16  C   UNL     1      -6.397  -3.560 -34.843  1.00  0.00     0.123 A 
ENDBRANCH   9  11
ENDBRANCH   1   5
BRANCH   2  17
HETATM   17  C   UNL     1      -3.987   4.055 -32.096  1.00  0.00     0.075 C 
HETATM   18  C   UNL     1      -4.112   5.368 -31.845  1.00  0.00     0.017 C 
BRANCH  18  19
HETATM   19  C   UNL     1      -3.275   6.124 -30.903  1.00  0.00    -0.035 A 
HETATM   20  C   UNL     1      -1.885   6.140 -31.108  1.00  0.00     0.021 A 
HETATM   21  C   UNL     1      -1.082   6.792 -30.186  1.00  0.00    -0.022 A 
HETATM   22  C   UNL     1      -1.633   7.425 -29.084  1.00  0.00     0.075 A 
HETATM   23  C   UNL     1       0.382   7.006 -30.188  1.00  0.00     0.068 C 
HETATM   24  O   UNL     1      -0.706   8.025 -28.275  1.00  0.00    -0.350 OA
HETATM   25  C   UNL     1      -2.992   7.434 -28.855  1.00  0.00     0.038 A 
HETATM   26  C   UNL     1       0.553   7.487 -28.747  1.00  0.00     0.180 C 
HETATM   27  C   UNL     1      -3.815   6.767 -29.767  1.00  0.00     0.014 A 
ENDBRANCH  18  19
ENDBRANCH   2  17
TORSDOF 4
ENDMDL
MODEL 9
REMARK VINA RESULT:      -8.0      6.539     10.270
REMARK  4 active torsions:
REMARK  status: ('A' for Active; 'I' for Inactive)
REMARK    1  A    between atoms: C_3  and  N_4 
REMARK       I    between atoms: N_4  and  C_5 
REMARK    2  A    between atoms: C_5  and  C_6 
REMARK    3  A    between atoms: C_7  and  C_8 
REMARK    4  A    between atoms: C_19  and  C_20 
ROOT
HETATM    1  N   UNL     1      -4.403   3.252 -32.020  1.00  0.00    -0.324 N 
HETATM    2  C   UNL     1      -3.220   3.897 -32.321  1.00  0.00     0.245 C 
HETATM    3  O   UNL     1      -2.489   3.688 -33.280  1.00  0.00    -0.268 OA
HETATM    4  H   UNL     1      -4.915   3.573 -31.209  1.00  0.00     0.169 HD
ENDROOT
BRANCH   1   5
HETATM    5  C   UNL     1      -4.985   2.168 -32.716  1.00  0.00     0.035 A 
HETATM    6  C   UNL     1      -6.074   2.292 -33.578  1.00  0.00     0.029 A 
HETATM    7  C   UNL     1      -6.577   1.177 -34.252  1.00  0.00     0.003 A 
HETATM    8  C   UNL     1      -5.996  -0.077 -34.065  1.00  0.00     0.012 A 
HETATM    9  C   UNL     1      -4.908  -0.230 -33.200  1.00  0.00    -0.021 A 
HETATM   10  C   UNL     1      -4.409   0.901 -32.532  1.00  0.00     0.042 A 
BRANCH   9  11
HETATM   11  C   UNL     1      -4.308  -1.540 -33.016  1.00  0.00     0.010 A 
HETATM   12  C   UNL     1      -3.464  -2.034 -31.993  1.00  0.00     0.152 A 
HETATM   13  N   UNL     1      -3.099  -3.304 -32.190  1.00  0.00    -0.187 NA
HETATM   14  N   UNL     1      -3.700  -3.626 -33.346  1.00  0.00    -0.289 N 
HETATM   15  H   UNL     1      -3.559  -4.561 -33.715  1.00  0.00     0.188 HD
HETATM   16  C   UNL     1      -4.437  -2.608 -33.879  1.00  0.00     0.123 A 
ENDBRANCH   9  11
ENDBRANCH   1   5
BRANCH   2  17
HETATM   17  C   UNL     1      -2.878   4.937 -31.308  1.00  0.00     0.075 C 
HETATM   18  C   UNL     1      -1.614   5.383 -31.219  1.00  0.00     0.017 C 
BRANCH  18  19
HETATM   19  C   UNL     1      -1.143   6.376 -30.244  1.00  0.00    -0.035 A 
HETATM   20  C   UNL     1      -2.072   7.288 -29.717  1.00  0.00     0.021 A 
HETATM   21  C   UNL     1      -1.624   8.271 -28.850  1.00  0.00    -0.022 A 
HETATM   22  C   UNL     1      -0.287   8.355 -28.499  1.00  0.00     0.075 A 
HETATM   23  C   UNL     1      -2.384   9.308 -28.118  1.00  0.00     0.068 C 
HETATM   24  O   UNL     1      -0.009   9.377 -27.631  1.00  0.00    -0.350 OA
HETATM   25  C   UNL     1       0.651   7.473 -28.992  1.00  0.00     0.038 A 
HETATM   26  C   UNL     1      -1.214  10.178 -27.658  1.00  0.00     0.180 C 
HETATM   27  C   UNL     1       0.217   6.485 -29.882  1.00  0.00     0.014 A 
ENDBRANCH  18  19
ENDBRANCH   2  17
TORSDOF 4
ENDMDL
MODEL 10
REMARK VINA RESULT:      -7.9      5.305      7.273
REMARK  4 active torsions:
REMARK  status: ('A' for Active; 'I' for Inactive)
REMARK    1  A    between atoms: C_3  and  N_4 
REMARK       I    between atoms: N_4  and  C_5 
REMARK    2  A    between atoms: C_5  and  C_6 
REMARK    3  A    between atoms: C_7  and  C_8 
REMARK    4  A    between atoms: C_19  and  C_20 
ROOT
HETATM    1  N   UNL     1      -4.533   3.648 -33.103  1.00  0.00    -0.324 N 
HETATM    2  C   UNL     1      -5.793   4.013 -33.531  1.00  0.00     0.245 C 
HETATM    3  O   UNL     1      -6.111   5.055 -34.090  1.00  0.00    -0.268 OA
HETATM    4  H   UNL     1      -4.428   2.729 -32.695  1.00  0.00     0.169 HD
ENDROOT
BRANCH   1   5
HETATM    5  C   UNL     1      -3.354   4.427 -33.156  1.00  0.00     0.035 A 
HETATM    6  C   UNL     1      -2.875   5.034 -34.317  1.00  0.00     0.029 A 
HETATM    7  C   UNL     1      -1.717   5.812 -34.284  1.00  0.00     0.003 A 
HETATM    8  C   UNL     1      -1.021   5.988 -33.088  1.00  0.00     0.012 A 
HETATM    9  C   UNL     1      -1.477   5.383 -31.911  1.00  0.00    -0.021 A 
HETATM   10  C   UNL     1      -2.647   4.607 -31.957  1.00  0.00     0.042 A 
BRANCH   9  11
HETATM   11  C   UNL     1      -0.747   5.575 -30.669  1.00  0.00     0.010 A 
HETATM   12  C   UNL     1      -0.777   6.637 -29.735  1.00  0.00     0.152 A 
HETATM   13  N   UNL     1       0.067   6.454 -28.715  1.00  0.00    -0.187 NA
HETATM   14  N   UNL     1       0.648   5.277 -28.998  1.00  0.00    -0.289 N 
HETATM   15  H   UNL     1       1.351   4.924 -28.356  1.00  0.00     0.188 HD
HETATM   16  C   UNL     1       0.195   4.709 -30.153  1.00  0.00     0.123 A 
ENDBRANCH   9  11
ENDBRANCH   1   5
BRANCH   2  17
HETATM   17  C   UNL     1      -6.810   2.964 -33.230  1.00  0.00     0.075 C 
HETATM   18  C   UNL     1      -7.903   2.861 -34.004  1.00  0.00     0.017 C 
BRANCH  18  19
HETATM   19  C   UNL     1      -8.991   1.897 -33.793  1.00  0.00    -0.035 A 
HETATM   20  C   UNL     1     -10.233   2.147 -34.400  1.00  0.00     0.021 A 
HETATM   21  C   UNL     1     -11.284   1.280 -34.150  1.00  0.00    -0.022 A 
HETATM   22  C   UNL     1     -11.119   0.180 -33.325  1.00  0.00     0.075 A 
HETATM   23  C   UNL     1     -12.660   1.276 -34.695  1.00  0.00     0.068 C 
HETATM   24  O   UNL     1     -12.251  -0.578 -33.186  1.00  0.00    -0.350 OA
HETATM   25  C   UNL     1      -9.914  -0.099 -32.718  1.00  0.00     0.038 A 
HETATM   26  C   UNL     1     -13.291   0.265 -33.738  1.00  0.00     0.180 C 
HETATM   27  C   UNL     1      -8.847   0.776 -32.946  1.00  0.00     0.014 A 
ENDBRANCH  18  19
ENDBRANCH   2  17
TORSDOF 4
ENDMDL
