MODEL 1
REMARK VINA RESULT:      -9.3      0.000      0.000
REMARK  9 active torsions:
REMARK  status: ('A' for Active; 'I' for Inactive)
REMARK    1  A    between atoms: C_2  and  O_3 
REMARK    2  A    between atoms: O_3  and  C_4 
REMARK    3  A    between atoms: C_5  and  N_6 
REMARK       I    between atoms: N_6  and  C_7 
REMARK    4  A    between atoms: C_7  and  C_8 
REMARK    5  A    between atoms: C_11  and  N_12 
REMARK    6  A    between atoms: C_17  and  N_18 
REMARK       I    between atoms: N_18  and  C_19 
REMARK    7  A    between atoms: C_19  and  C_20 
REMARK    8  A    between atoms: C_23  and  N_24 
REMARK    9  A    between atoms: C_29  and  C_30 
REMARK       I    between atoms: C_30  and  N_31 
ROOT
HETATM    1  C   UNL     1      -5.510   2.400 -32.603  1.00  0.00     0.111 A 
HETATM    2  C   UNL     1      -5.978   1.140 -32.180  1.00  0.00     0.071 A 
HETATM    3  C   UNL     1      -7.357   0.893 -32.111  1.00  0.00     0.062 A 
HETATM    4  C   UNL     1      -8.267   1.889 -32.487  1.00  0.00     0.038 A 
HETATM    5  C   UNL     1      -7.786   3.133 -32.916  1.00  0.00     0.049 A 
HETATM    6  C   UNL     1      -6.413   3.387 -33.012  1.00  0.00     0.069 A 
ENDROOT
BRANCH   2   7
HETATM    7  N   UNL     1      -4.992   0.151 -31.933  1.00  0.00    -0.320 N 
HETATM    8  C   UNL     1      -4.240  -0.517 -32.868  1.00  0.00     0.256 C 
HETATM    9  O   UNL     1      -3.017  -0.389 -32.878  1.00  0.00    -0.267 OA
HETATM   10  H   UNL     1      -4.463   0.361 -31.091  1.00  0.00     0.169 HD
BRANCH   8  11
HETATM   11  C   UNL     1      -4.887  -1.588 -33.685  1.00  0.00     0.032 A 
HETATM   12  C   UNL     1      -4.212  -2.806 -33.831  1.00  0.00     0.019 A 
HETATM   13  C   UNL     1      -4.845  -3.905 -34.422  1.00  0.00     0.024 A 
HETATM   14  C   UNL     1      -6.145  -3.797 -34.919  1.00  0.00     0.005 A 
HETATM   15  C   UNL     1      -6.829  -2.590 -34.744  1.00  0.00     0.024 A 
HETATM   16  C   UNL     1      -6.203  -1.487 -34.149  1.00  0.00     0.019 A 
BRANCH  14  17
HETATM   17  N   UNL     1      -6.832  -4.939 -35.346  1.00  0.00    -0.303 NA
HETATM   18  H   UNL     1      -6.627  -5.769 -34.798  1.00  0.00     0.124 HD
HETATM   19  H   UNL     1      -6.767  -5.111 -36.344  1.00  0.00     0.124 HD
ENDBRANCH  14  17
ENDBRANCH   8  11
ENDBRANCH   2   7
BRANCH   1  20
HETATM   20  O   UNL     1      -4.145   2.586 -32.651  1.00  0.00    -0.348 OA
BRANCH  20  21
HETATM   21  C   UNL     1      -3.643   3.166 -31.434  1.00  0.00     0.171 C 
HETATM   22  C   UNL     1      -2.583   4.208 -31.742  1.00  0.00     0.034 C 
ENDBRANCH  20  21
ENDBRANCH   1  20
BRANCH   6  23
HETATM   23  C   UNL     1      -6.015   4.688 -33.608  1.00  0.00     0.252 C 
HETATM   24  N   UNL     1      -5.012   4.679 -34.534  1.00  0.00    -0.366 N 
HETATM   25  H   UNL     1      -4.548   3.826 -34.822  1.00  0.00     0.159 HD
HETATM   26  H   UNL     1      -4.769   5.548 -34.989  1.00  0.00     0.159 HD
HETATM   27  O   UNL     1      -6.598   5.726 -33.318  1.00  0.00    -0.268 OA
ENDBRANCH   6  23
BRANCH   4  28
HETATM   28  N   UNL     1      -9.668   1.718 -32.549  1.00  0.00    -0.323 N 
HETATM   29  C   UNL     1     -10.425   1.296 -33.626  1.00  0.00     0.256 C 
HETATM   30  O   UNL     1      -9.989   0.815 -34.664  1.00  0.00    -0.267 OA
HETATM   31  H   UNL     1     -10.170   1.966 -31.707  1.00  0.00     0.169 HD
BRANCH  29  32
HETATM   32  C   UNL     1     -11.910   1.445 -33.465  1.00  0.00     0.032 A 
HETATM   33  C   UNL     1     -12.509   2.647 -33.062  1.00  0.00     0.019 A 
HETATM   34  C   UNL     1     -13.902   2.737 -32.946  1.00  0.00     0.024 A 
HETATM   35  C   UNL     1     -14.718   1.635 -33.208  1.00  0.00     0.005 A 
HETATM   36  C   UNL     1     -14.122   0.467 -33.692  1.00  0.00     0.024 A 
HETATM   37  C   UNL     1     -12.730   0.364 -33.802  1.00  0.00     0.019 A 
BRANCH  35  38
HETATM   38  N   UNL     1     -16.108   1.777 -33.223  1.00  0.00    -0.303 NA
HETATM   39  H   UNL     1     -16.427   2.740 -33.265  1.00  0.00     0.124 HD
HETATM   40  H   UNL     1     -16.587   1.245 -32.502  1.00  0.00     0.124 HD
ENDBRANCH  35  38
ENDBRANCH  29  32
ENDBRANCH   4  28
TORSDOF 9
ENDMDL
MODEL 2
REMARK VINA RESULT:      -9.3      1.852      5.351
REMARK  9 active torsions:
REMARK  status: ('A' for Active; 'I' for Inactive)
REMARK    1  A    between atoms: C_2  and  O_3 
REMARK    2  A    between atoms: O_3  and  C_4 
REMARK    3  A    between atoms: C_5  and  N_6 
REMARK       I    between atoms: N_6  and  C_7 
REMARK    4  A    between atoms: C_7  and  C_8 
REMARK    5  A    between atoms: C_11  and  N_12 
REMARK    6  A    between atoms: C_17  and  N_18 
REMARK       I    between atoms: N_18  and  C_19 
REMARK    7  A    between atoms: C_19  and  C_20 
REMARK    8  A    between atoms: C_23  and  N_24 
REMARK    9  A    between atoms: C_29  and  C_30 
REMARK       I    between atoms: C_30  and  N_31 
ROOT
HETATM    1  C   UNL     1      -5.094  -0.912 -33.365  1.00  0.00     0.111 A 
HETATM    2  C   UNL     1      -5.560   0.273 -32.762  1.00  0.00     0.071 A 
HETATM    3  C   UNL     1      -6.871   0.710 -33.000  1.00  0.00     0.062 A 
HETATM    4  C   UNL     1      -7.725  -0.045 -33.815  1.00  0.00     0.038 A 
HETATM    5  C   UNL     1      -7.250  -1.228 -34.398  1.00  0.00     0.049 A 
HETATM    6  C   UNL     1      -5.951  -1.688 -34.151  1.00  0.00     0.069 A 
ENDROOT
BRANCH   2   7
HETATM    7  N   UNL     1      -4.674   0.913 -31.859  1.00  0.00    -0.320 N 
HETATM    8  C   UNL     1      -4.750   2.207 -31.402  1.00  0.00     0.256 C 
HETATM    9  O   UNL     1      -4.916   2.426 -30.204  1.00  0.00    -0.267 OA
HETATM   10  H   UNL     1      -4.353   0.269 -31.140  1.00  0.00     0.169 HD
BRANCH   8  11
HETATM   11  C   UNL     1      -4.369   3.321 -32.322  1.00  0.00     0.032 A 
HETATM   12  C   UNL     1      -3.007   3.595 -32.498  1.00  0.00     0.019 A 
HETATM   13  C   UNL     1      -2.583   4.495 -33.481  1.00  0.00     0.024 A 
HETATM   14  C   UNL     1      -3.510   5.171 -34.278  1.00  0.00     0.005 A 
HETATM   15  C   UNL     1      -4.867   4.872 -34.122  1.00  0.00     0.024 A 
HETATM   16  C   UNL     1      -5.298   3.969 -33.143  1.00  0.00     0.019 A 
BRANCH  14  17
HETATM   17  N   UNL     1      -3.077   5.930 -35.370  1.00  0.00    -0.303 NA
HETATM   18  H   UNL     1      -3.826   6.415 -35.855  1.00  0.00     0.124 HD
HETATM   19  H   UNL     1      -2.468   5.426 -36.007  1.00  0.00     0.124 HD
ENDBRANCH  14  17
ENDBRANCH   8  11
ENDBRANCH   2   7
BRANCH   1  20
HETATM   20  O   UNL     1      -3.797  -1.293 -33.095  1.00  0.00    -0.348 OA
BRANCH  20  21
HETATM   21  C   UNL     1      -3.682  -1.913 -31.802  1.00  0.00     0.171 C 
HETATM   22  C   UNL     1      -2.974  -3.251 -31.918  1.00  0.00     0.034 C 
ENDBRANCH  20  21
ENDBRANCH   1  20
BRANCH   6  23
HETATM   23  C   UNL     1      -5.599  -3.021 -34.707  1.00  0.00     0.252 C 
HETATM   24  N   UNL     1      -4.316  -3.207 -35.136  1.00  0.00    -0.366 N 
HETATM   25  H   UNL     1      -3.614  -2.479 -35.079  1.00  0.00     0.159 HD
HETATM   26  H   UNL     1      -4.047  -4.124 -35.465  1.00  0.00     0.159 HD
HETATM   27  O   UNL     1      -6.415  -3.935 -34.735  1.00  0.00    -0.268 OA
ENDBRANCH   6  23
BRANCH   4  28
HETATM   28  N   UNL     1      -9.088   0.246 -34.044  1.00  0.00    -0.323 N 
HETATM   29  C   UNL     1      -9.969   0.902 -33.205  1.00  0.00     0.256 C 
HETATM   30  O   UNL     1      -9.670   1.511 -32.186  1.00  0.00    -0.267 OA
HETATM   31  H   UNL     1      -9.460  -0.096 -34.920  1.00  0.00     0.169 HD
BRANCH  29  32
HETATM   32  C   UNL     1     -11.410   0.849 -33.619  1.00  0.00     0.032 A 
HETATM   33  C   UNL     1     -12.238  -0.248 -33.339  1.00  0.00     0.019 A 
HETATM   34  C   UNL     1     -13.582  -0.237 -33.733  1.00  0.00     0.024 A 
HETATM   35  C   UNL     1     -14.119   0.850 -34.425  1.00  0.00     0.005 A 
HETATM   36  C   UNL     1     -13.314   1.975 -34.624  1.00  0.00     0.024 A 
HETATM   37  C   UNL     1     -11.967   1.970 -34.244  1.00  0.00     0.019 A 
BRANCH  35  38
HETATM   38  N   UNL     1     -15.491   0.907 -34.688  1.00  0.00    -0.303 NA
HETATM   39  H   UNL     1     -15.730   1.409 -35.538  1.00  0.00     0.124 HD
HETATM   40  H   UNL     1     -16.053   1.203 -33.896  1.00  0.00     0.124 HD
ENDBRANCH  35  38
ENDBRANCH  29  32
ENDBRANCH   4  28
TORSDOF 9
ENDMDL
MODEL 3
REMARK VINA RESULT:      -9.2      1.224      1.455
REMARK  9 active torsions:
REMARK  status: ('A' for Active; 'I' for Inactive)
REMARK    1  A    between atoms: C_2  and  O_3 
REMARK    2  A    between atoms: O_3  and  C_4 
REMARK    3  A    between atoms: C_5  and  N_6 
REMARK       I    between atoms: N_6  and  C_7 
REMARK    4  A    between atoms: C_7  and  C_8 
REMARK    5  A    between atoms: C_11  and  N_12 
REMARK    6  A    between atoms: C_17  and  N_18 
REMARK       I    between atoms: N_18  and  C_19 
REMARK    7  A    between atoms: C_19  and  C_20 
REMARK    8  A    between atoms: C_23  and  N_24 
REMARK    9  A    between atoms: C_29  and  C_30 
REMARK       I    between atoms: C_30  and  N_31 
ROOT
HETATM    1  C   UNL     1      -5.683   2.030 -31.254  1.00  0.00     0.111 A 
HETATM    2  C   UNL     1      -6.012   0.682 -31.500  1.00  0.00     0.071 A 
HETATM    3  C   UNL     1      -7.331   0.330 -31.819  1.00  0.00     0.062 A 
HETATM    4  C   UNL     1      -8.316   1.321 -31.918  1.00  0.00     0.038 A 
HETATM    5  C   UNL     1      -7.972   2.659 -31.682  1.00  0.00     0.049 A 
HETATM    6  C   UNL     1      -6.655   3.028 -31.385  1.00  0.00     0.069 A 
ENDROOT
BRANCH   2   7
HETATM    7  N   UNL     1      -4.935  -0.240 -31.496  1.00  0.00    -0.320 N 
HETATM    8  C   UNL     1      -4.235  -0.698 -32.587  1.00  0.00     0.256 C 
HETATM    9  O   UNL     1      -3.033  -0.461 -32.688  1.00  0.00    -0.267 OA
HETATM   10  H   UNL     1      -4.339  -0.107 -30.683  1.00  0.00     0.169 HD
BRANCH   8  11
HETATM   11  C   UNL     1      -4.881  -1.694 -33.494  1.00  0.00     0.032 A 
HETATM   12  C   UNL     1      -4.229  -2.915 -33.706  1.00  0.00     0.019 A 
HETATM   13  C   UNL     1      -4.868  -3.954 -34.390  1.00  0.00     0.024 A 
HETATM   14  C   UNL     1      -6.151  -3.781 -34.914  1.00  0.00     0.005 A 
HETATM   15  C   UNL     1      -6.812  -2.573 -34.674  1.00  0.00     0.024 A 
HETATM   16  C   UNL     1      -6.180  -1.530 -33.986  1.00  0.00     0.019 A 
BRANCH  14  17
HETATM   17  N   UNL     1      -6.849  -4.874 -35.439  1.00  0.00    -0.303 NA
HETATM   18  H   UNL     1      -6.780  -4.959 -36.448  1.00  0.00     0.124 HD
HETATM   19  H   UNL     1      -7.807  -4.948 -35.110  1.00  0.00     0.124 HD
ENDBRANCH  14  17
ENDBRANCH   8  11
ENDBRANCH   2   7
BRANCH   1  20
HETATM   20  O   UNL     1      -4.372   2.317 -30.945  1.00  0.00    -0.348 OA
BRANCH  20  21
HETATM   21  C   UNL     1      -3.664   2.858 -32.075  1.00  0.00     0.171 C 
HETATM   22  C   UNL     1      -2.679   3.921 -31.623  1.00  0.00     0.034 C 
ENDBRANCH  20  21
ENDBRANCH   1  20
BRANCH   6  23
HETATM   23  C   UNL     1      -6.376   4.484 -31.290  1.00  0.00     0.252 C 
HETATM   24  N   UNL     1      -5.939   4.966 -30.090  1.00  0.00    -0.366 N 
HETATM   25  H   UNL     1      -5.798   4.368 -29.284  1.00  0.00     0.159 HD
HETATM   26  H   UNL     1      -5.692   5.944 -30.025  1.00  0.00     0.159 HD
HETATM   27  O   UNL     1      -6.487   5.219 -32.265  1.00  0.00    -0.268 OA
ENDBRANCH   6  23
BRANCH   4  28
HETATM   28  N   UNL     1      -9.650   1.094 -32.326  1.00  0.00    -0.323 N 
HETATM   29  C   UNL     1     -10.124   0.904 -33.610  1.00  0.00     0.256 C 
HETATM   30  O   UNL     1      -9.439   0.713 -34.607  1.00  0.00    -0.267 OA
HETATM   31  H   UNL     1     -10.335   1.102 -31.582  1.00  0.00     0.169 HD
BRANCH  29  32
HETATM   32  C   UNL     1     -11.618   0.928 -33.753  1.00  0.00     0.032 A 
HETATM   33  C   UNL     1     -12.418  -0.198 -33.514  1.00  0.00     0.019 A 
HETATM   34  C   UNL     1     -13.811  -0.115 -33.643  1.00  0.00     0.024 A 
HETATM   35  C   UNL     1     -14.427   1.076 -34.030  1.00  0.00     0.005 A 
HETATM   36  C   UNL     1     -13.633   2.216 -34.182  1.00  0.00     0.024 A 
HETATM   37  C   UNL     1     -12.240   2.141 -34.065  1.00  0.00     0.019 A 
BRANCH  35  38
HETATM   38  N   UNL     1     -15.820   1.182 -34.021  1.00  0.00    -0.303 NA
HETATM   39  H   UNL     1     -16.301   0.322 -33.773  1.00  0.00     0.124 HD
HETATM   40  H   UNL     1     -16.209   1.612 -34.855  1.00  0.00     0.124 HD
ENDBRANCH  35  38
ENDBRANCH  29  32
ENDBRANCH   4  28
TORSDOF 9
ENDMDL
MODEL 4
REMARK VINA RESULT:      -9.2      4.501      8.039
REMARK  9 active torsions:
REMARK  status: ('A' for Active; 'I' for Inactive)
REMARK    1  A    between atoms: C_2  and  O_3 
REMARK    2  A    between atoms: O_3  and  C_4 
REMARK    3  A    between atoms: C_5  and  N_6 
REMARK       I    between atoms: N_6  and  C_7 
REMARK    4  A    between atoms: C_7  and  C_8 
REMARK    5  A    between atoms: C_11  and  N_12 
REMARK    6  A    between atoms: C_17  and  N_18 
REMARK       I    between atoms: N_18  and  C_19 
REMARK    7  A    between atoms: C_19  and  C_20 
REMARK    8  A    between atoms: C_23  and  N_24 
REMARK    9  A    between atoms: C_29  and  C_30 
REMARK       I    between atoms: C_30  and  N_31 
ROOT
HETATM    1  C   UNL     1      -4.373   4.675 -31.275  1.00  0.00     0.111 A 
HETATM    2  C   UNL     1      -3.757   4.263 -32.474  1.00  0.00     0.071 A 
HETATM    3  C   UNL     1      -3.947   2.957 -32.946  1.00  0.00     0.062 A 
HETATM    4  C   UNL     1      -4.769   2.069 -32.240  1.00  0.00     0.038 A 
HETATM    5  C   UNL     1      -5.383   2.496 -31.055  1.00  0.00     0.049 A 
HETATM    6  C   UNL     1      -5.222   3.805 -30.584  1.00  0.00     0.069 A 
ENDROOT
BRANCH   2   7
HETATM    7  N   UNL     1      -3.041   5.257 -33.188  1.00  0.00    -0.320 N 
HETATM    8  C   UNL     1      -1.676   5.368 -33.307  1.00  0.00     0.256 C 
HETATM    9  O   UNL     1      -1.147   5.274 -34.413  1.00  0.00    -0.267 OA
HETATM   10  H   UNL     1      -3.524   5.517 -34.044  1.00  0.00     0.169 HD
BRANCH   8  11
HETATM   11  C   UNL     1      -0.886   5.859 -32.138  1.00  0.00     0.032 A 
HETATM   12  C   UNL     1      -1.111   7.167 -31.692  1.00  0.00     0.019 A 
HETATM   13  C   UNL     1      -0.544   7.619 -30.495  1.00  0.00     0.024 A 
HETATM   14  C   UNL     1       0.293   6.790 -29.744  1.00  0.00     0.005 A 
HETATM   15  C   UNL     1       0.490   5.475 -30.174  1.00  0.00     0.024 A 
HETATM   16  C   UNL     1      -0.078   5.014 -31.369  1.00  0.00     0.019 A 
BRANCH  14  17
HETATM   17  N   UNL     1       0.711   7.184 -28.469  1.00  0.00    -0.303 NA
HETATM   18  H   UNL     1       0.439   8.130 -28.221  1.00  0.00     0.124 HD
HETATM   19  H   UNL     1       1.693   7.004 -28.282  1.00  0.00     0.124 HD
ENDBRANCH  14  17
ENDBRANCH   8  11
ENDBRANCH   2   7
BRANCH   1  20
HETATM   20  O   UNL     1      -4.150   5.970 -30.860  1.00  0.00    -0.348 OA
BRANCH  20  21
HETATM   21  C   UNL     1      -5.155   6.870 -31.361  1.00  0.00     0.171 C 
HETATM   22  C   UNL     1      -5.581   7.845 -30.278  1.00  0.00     0.034 C 
ENDBRANCH  20  21
ENDBRANCH   1  20
BRANCH   6  23
HETATM   23  C   UNL     1      -6.027   4.190 -29.396  1.00  0.00     0.252 C 
HETATM   24  N   UNL     1      -5.363   4.719 -28.327  1.00  0.00    -0.366 N 
HETATM   25  H   UNL     1      -4.359   4.858 -28.327  1.00  0.00     0.159 HD
HETATM   26  H   UNL     1      -5.903   5.037 -27.534  1.00  0.00     0.159 HD
HETATM   27  O   UNL     1      -7.248   4.083 -29.392  1.00  0.00    -0.268 OA
ENDBRANCH   6  23
BRANCH   4  28
HETATM   28  N   UNL     1      -5.108   0.767 -32.671  1.00  0.00    -0.323 N 
HETATM   29  C   UNL     1      -4.259  -0.299 -32.901  1.00  0.00     0.256 C 
HETATM   30  O   UNL     1      -3.077  -0.354 -32.589  1.00  0.00    -0.267 OA
HETATM   31  H   UNL     1      -6.090   0.619 -32.859  1.00  0.00     0.169 HD
BRANCH  29  32
HETATM   32  C   UNL     1      -4.883  -1.481 -33.584  1.00  0.00     0.032 A 
HETATM   33  C   UNL     1      -4.175  -2.662 -33.848  1.00  0.00     0.019 A 
HETATM   34  C   UNL     1      -4.812  -3.742 -34.472  1.00  0.00     0.024 A 
HETATM   35  C   UNL     1      -6.150  -3.661 -34.860  1.00  0.00     0.005 A 
HETATM   36  C   UNL     1      -6.874  -2.515 -34.517  1.00  0.00     0.024 A 
HETATM   37  C   UNL     1      -6.244  -1.426 -33.903  1.00  0.00     0.019 A 
BRANCH  35  38
HETATM   38  N   UNL     1      -6.809  -4.790 -35.354  1.00  0.00    -0.303 NA
HETATM   39  H   UNL     1      -7.619  -5.071 -34.809  1.00  0.00     0.124 HD
HETATM   40  H   UNL     1      -6.195  -5.572 -35.559  1.00  0.00     0.124 HD
ENDBRANCH  35  38
ENDBRANCH  29  32
ENDBRANCH   4  28
TORSDOF 9
ENDMDL
MODEL 5
REMARK VINA RESULT:      -9.1      4.045      7.756
REMARK  9 active torsions:
REMARK  status: ('A' for Active; 'I' for Inactive)
REMARK    1  A    between atoms: C_2  and  O_3 
REMARK    2  A    between atoms: O_3  and  C_4 
REMARK    3  A    between atoms: C_5  and  N_6 
REMARK       I    between atoms: N_6  and  C_7 
REMARK    4  A    between atoms: C_7  and  C_8 
REMARK    5  A    between atoms: C_11  and  N_12 
REMARK    6  A    between atoms: C_17  and  N_18 
REMARK       I    between atoms: N_18  and  C_19 
REMARK    7  A    between atoms: C_19  and  C_20 
REMARK    8  A    between atoms: C_23  and  N_24 
REMARK    9  A    between atoms: C_29  and  C_30 
REMARK       I    between atoms: C_30  and  N_31 
ROOT
HETATM    1  C   UNL     1      -6.031   4.455 -31.671  1.00  0.00     0.111 A 
HETATM    2  C   UNL     1      -5.200   4.316 -32.801  1.00  0.00     0.071 A 
HETATM    3  C   UNL     1      -4.901   3.040 -33.297  1.00  0.00     0.062 A 
HETATM    4  C   UNL     1      -5.449   1.904 -32.687  1.00  0.00     0.038 A 
HETATM    5  C   UNL     1      -6.282   2.058 -31.570  1.00  0.00     0.049 A 
HETATM    6  C   UNL     1      -6.608   3.327 -31.078  1.00  0.00     0.069 A 
ENDROOT
BRANCH   2   7
HETATM    7  N   UNL     1      -4.786   5.518 -33.430  1.00  0.00    -0.320 N 
HETATM    8  C   UNL     1      -3.556   5.780 -33.982  1.00  0.00     0.256 C 
HETATM    9  O   UNL     1      -3.461   6.013 -35.186  1.00  0.00    -0.267 OA
HETATM   10  H   UNL     1      -5.545   5.935 -33.962  1.00  0.00     0.169 HD
BRANCH   8  11
HETATM   11  C   UNL     1      -2.396   6.038 -33.076  1.00  0.00     0.032 A 
HETATM   12  C   UNL     1      -2.292   7.300 -32.480  1.00  0.00     0.019 A 
HETATM   13  C   UNL     1      -1.341   7.541 -31.482  1.00  0.00     0.024 A 
HETATM   14  C   UNL     1      -0.447   6.541 -31.092  1.00  0.00     0.005 A 
HETATM   15  C   UNL     1      -0.574   5.272 -31.665  1.00  0.00     0.024 A 
HETATM   16  C   UNL     1      -1.527   5.023 -32.661  1.00  0.00     0.019 A 
BRANCH  14  17
HETATM   17  N   UNL     1       0.378   6.731 -29.979  1.00  0.00    -0.303 NA
HETATM   18  H   UNL     1       1.271   7.161 -30.199  1.00  0.00     0.124 HD
HETATM   19  H   UNL     1       0.481   5.906 -29.395  1.00  0.00     0.124 HD
ENDBRANCH  14  17
ENDBRANCH   8  11
ENDBRANCH   2   7
BRANCH   1  20
HETATM   20  O   UNL     1      -6.291   5.733 -31.227  1.00  0.00    -0.348 OA
BRANCH  20  21
HETATM   21  C   UNL     1      -5.235   6.230 -30.385  1.00  0.00     0.171 C 
HETATM   22  C   UNL     1      -5.548   7.641 -29.920  1.00  0.00     0.034 C 
ENDBRANCH  20  21
ENDBRANCH   1  20
BRANCH   6  23
HETATM   23  C   UNL     1      -7.607   3.379 -29.979  1.00  0.00     0.252 C 
HETATM   24  N   UNL     1      -7.214   3.929 -28.793  1.00  0.00    -0.366 N 
HETATM   25  H   UNL     1      -6.282   4.299 -28.649  1.00  0.00     0.159 HD
HETATM   26  H   UNL     1      -7.898   4.022 -28.055  1.00  0.00     0.159 HD
HETATM   27  O   UNL     1      -8.757   2.988 -30.145  1.00  0.00    -0.268 OA
ENDBRANCH   6  23
BRANCH   4  28
HETATM   28  N   UNL     1      -5.295   0.582 -33.159  1.00  0.00    -0.323 N 
HETATM   29  C   UNL     1      -6.034  -0.065 -34.131  1.00  0.00     0.256 C 
HETATM   30  O   UNL     1      -6.839   0.463 -34.888  1.00  0.00    -0.267 OA
HETATM   31  H   UNL     1      -4.571   0.043 -32.702  1.00  0.00     0.169 HD
BRANCH  29  32
HETATM   32  C   UNL     1      -5.793  -1.541 -34.246  1.00  0.00     0.032 A 
HETATM   33  C   UNL     1      -6.779  -2.437 -34.684  1.00  0.00     0.019 A 
HETATM   34  C   UNL     1      -6.495  -3.804 -34.790  1.00  0.00     0.024 A 
HETATM   35  C   UNL     1      -5.238  -4.305 -34.447  1.00  0.00     0.005 A 
HETATM   36  C   UNL     1      -4.234  -3.399 -34.094  1.00  0.00     0.024 A 
HETATM   37  C   UNL     1      -4.512  -2.032 -33.975  1.00  0.00     0.019 A 
BRANCH  35  38
HETATM   38  N   UNL     1      -4.926  -5.646 -34.689  1.00  0.00    -0.303 NA
HETATM   39  H   UNL     1      -5.597  -6.305 -34.304  1.00  0.00     0.124 HD
HETATM   40  H   UNL     1      -3.968  -5.896 -34.461  1.00  0.00     0.124 HD
ENDBRANCH  35  38
ENDBRANCH  29  32
ENDBRANCH   4  28
TORSDOF 9
ENDMDL
MODEL 6
REMARK VINA RESULT:      -9.0      2.251      7.950
REMARK  9 active torsions:
REMARK  status: ('A' for Active; 'I' for Inactive)
REMARK    1  A    between atoms: C_2  and  O_3 
REMARK    2  A    between atoms: O_3  and  C_4 
REMARK    3  A    between atoms: C_5  and  N_6 
REMARK       I    between atoms: N_6  and  C_7 
REMARK    4  A    between atoms: C_7  and  C_8 
REMARK    5  A    between atoms: C_11  and  N_12 
REMARK    6  A    between atoms: C_17  and  N_18 
REMARK       I    between atoms: N_18  and  C_19 
REMARK    7  A    between atoms: C_19  and  C_20 
REMARK    8  A    between atoms: C_23  and  N_24 
REMARK    9  A    between atoms: C_29  and  C_30 
REMARK       I    between atoms: C_30  and  N_31 
ROOT
HETATM    1  C   UNL     1     -11.200   2.307 -33.308  1.00  0.00     0.111 A 
HETATM    2  C   UNL     1      -9.869   2.770 -33.251  1.00  0.00     0.071 A 
HETATM    3  C   UNL     1      -8.808   1.855 -33.275  1.00  0.00     0.062 A 
HETATM    4  C   UNL     1      -9.069   0.482 -33.381  1.00  0.00     0.038 A 
HETATM    5  C   UNL     1     -10.396   0.038 -33.448  1.00  0.00     0.049 A 
HETATM    6  C   UNL     1     -11.465   0.942 -33.449  1.00  0.00     0.069 A 
ENDROOT
BRANCH   2   7
HETATM    7  N   UNL     1      -9.690   4.177 -33.266  1.00  0.00    -0.320 N 
HETATM    8  C   UNL     1      -8.650   4.872 -33.834  1.00  0.00     0.256 C 
HETATM    9  O   UNL     1      -8.866   5.655 -34.757  1.00  0.00    -0.267 OA
HETATM   10  H   UNL     1     -10.579   4.660 -33.370  1.00  0.00     0.169 HD
BRANCH   8  11
HETATM   11  C   UNL     1      -7.320   4.866 -33.153  1.00  0.00     0.032 A 
HETATM   12  C   UNL     1      -7.290   5.013 -31.761  1.00  0.00     0.019 A 
HETATM   13  C   UNL     1      -6.099   4.828 -31.051  1.00  0.00     0.024 A 
HETATM   14  C   UNL     1      -4.907   4.538 -31.719  1.00  0.00     0.005 A 
HETATM   15  C   UNL     1      -4.945   4.360 -33.105  1.00  0.00     0.024 A 
HETATM   16  C   UNL     1      -6.135   4.539 -33.822  1.00  0.00     0.019 A 
BRANCH  14  17
HETATM   17  N   UNL     1      -3.764   4.182 -30.995  1.00  0.00    -0.303 NA
HETATM   18  H   UNL     1      -3.912   3.416 -30.345  1.00  0.00     0.124 HD
HETATM   19  H   UNL     1      -3.288   4.967 -30.562  1.00  0.00     0.124 HD
ENDBRANCH  14  17
ENDBRANCH   8  11
ENDBRANCH   2   7
BRANCH   1  20
HETATM   20  O   UNL     1     -12.202   3.253 -33.282  1.00  0.00    -0.348 OA
BRANCH  20  21
HETATM   21  C   UNL     1     -12.554   3.618 -31.935  1.00  0.00     0.171 C 
HETATM   22  C   UNL     1     -14.063   3.646 -31.772  1.00  0.00     0.034 C 
ENDBRANCH  20  21
ENDBRANCH   1  20
BRANCH   6  23
HETATM   23  C   UNL     1     -12.820   0.371 -33.662  1.00  0.00     0.252 C 
HETATM   24  N   UNL     1     -13.725   1.131 -34.346  1.00  0.00    -0.366 N 
HETATM   25  H   UNL     1     -13.499   2.050 -34.707  1.00  0.00     0.159 HD
HETATM   26  H   UNL     1     -14.633   0.735 -34.547  1.00  0.00     0.159 HD
HETATM   27  O   UNL     1     -13.102  -0.760 -33.283  1.00  0.00    -0.268 OA
ENDBRANCH   6  23
BRANCH   4  28
HETATM   28  N   UNL     1      -8.080  -0.518 -33.511  1.00  0.00    -0.323 N 
HETATM   29  C   UNL     1      -7.151  -0.668 -34.524  1.00  0.00     0.256 C 
HETATM   30  O   UNL     1      -6.903   0.154 -35.396  1.00  0.00    -0.267 OA
HETATM   31  H   UNL     1      -8.080  -1.220 -32.783  1.00  0.00     0.169 HD
BRANCH  29  32
HETATM   32  C   UNL     1      -6.392  -1.963 -34.512  1.00  0.00     0.032 A 
HETATM   33  C   UNL     1      -5.027  -2.036 -34.201  1.00  0.00     0.019 A 
HETATM   34  C   UNL     1      -4.371  -3.274 -34.187  1.00  0.00     0.024 A 
HETATM   35  C   UNL     1      -5.053  -4.451 -34.498  1.00  0.00     0.005 A 
HETATM   36  C   UNL     1      -6.430  -4.383 -34.721  1.00  0.00     0.024 A 
HETATM   37  C   UNL     1      -7.093  -3.150 -34.748  1.00  0.00     0.019 A 
BRANCH  35  38
HETATM   38  N   UNL     1      -4.422  -5.689 -34.345  1.00  0.00    -0.303 NA
HETATM   39  H   UNL     1      -3.512  -5.640 -33.898  1.00  0.00     0.124 HD
HETATM   40  H   UNL     1      -4.405  -6.253 -35.190  1.00  0.00     0.124 HD
ENDBRANCH  35  38
ENDBRANCH  29  32
ENDBRANCH   4  28
TORSDOF 9
ENDMDL
MODEL 7
REMARK VINA RESULT:      -8.9      2.992      7.370
REMARK  9 active torsions:
REMARK  status: ('A' for Active; 'I' for Inactive)
REMARK    1  A    between atoms: C_2  and  O_3 
REMARK    2  A    between atoms: O_3  and  C_4 
REMARK    3  A    between atoms: C_5  and  N_6 
REMARK       I    between atoms: N_6  and  C_7 
REMARK    4  A    between atoms: C_7  and  C_8 
REMARK    5  A    between atoms: C_11  and  N_12 
REMARK    6  A    between atoms: C_17  and  N_18 
REMARK       I    between atoms: N_18  and  C_19 
REMARK    7  A    between atoms: C_19  and  C_20 
REMARK    8  A    between atoms: C_23  and  N_24 
REMARK    9  A    between atoms: C_29  and  C_30 
REMARK       I    between atoms: C_30  and  N_31 
ROOT
HETATM    1  C   UNL     1      -7.278   3.730 -30.798  1.00  0.00     0.111 A 
HETATM    2  C   UNL     1      -5.888   3.534 -30.921  1.00  0.00     0.071 A 
HETATM    3  C   UNL     1      -5.394   2.314 -31.405  1.00  0.00     0.062 A 
HETATM    4  C   UNL     1      -6.282   1.302 -31.790  1.00  0.00     0.038 A 
HETATM    5  C   UNL     1      -7.662   1.515 -31.672  1.00  0.00     0.049 A 
HETATM    6  C   UNL     1      -8.170   2.736 -31.212  1.00  0.00     0.069 A 
ENDROOT
BRANCH   2   7
HETATM    7  N   UNL     1      -5.065   4.649 -30.624  1.00  0.00    -0.320 N 
HETATM    8  C   UNL     1      -4.681   5.647 -31.487  1.00  0.00     0.256 C 
HETATM    9  O   UNL     1      -5.024   6.808 -31.275  1.00  0.00    -0.267 OA
HETATM   10  H   UNL     1      -5.242   4.998 -29.686  1.00  0.00     0.169 HD
BRANCH   8  11
HETATM   11  C   UNL     1      -3.641   5.351 -32.518  1.00  0.00     0.032 A 
HETATM   12  C   UNL     1      -4.018   5.384 -33.866  1.00  0.00     0.019 A 
HETATM   13  C   UNL     1      -3.055   5.301 -34.877  1.00  0.00     0.024 A 
HETATM   14  C   UNL     1      -1.704   5.138 -34.565  1.00  0.00     0.005 A 
HETATM   15  C   UNL     1      -1.325   5.137 -33.219  1.00  0.00     0.024 A 
HETATM   16  C   UNL     1      -2.284   5.224 -32.201  1.00  0.00     0.019 A 
BRANCH  14  17
HETATM   17  N   UNL     1      -0.734   5.233 -35.568  1.00  0.00    -0.303 NA
HETATM   18  H   UNL     1      -0.992   5.850 -36.331  1.00  0.00     0.124 HD
HETATM   19  H   UNL     1      -0.391   4.336 -35.898  1.00  0.00     0.124 HD
ENDBRANCH  14  17
ENDBRANCH   8  11
ENDBRANCH   2   7
BRANCH   1  20
HETATM   20  O   UNL     1      -7.706   4.948 -30.316  1.00  0.00    -0.348 OA
BRANCH  20  21
HETATM   21  C   UNL     1      -8.287   5.757 -31.355  1.00  0.00     0.171 C 
HETATM   22  C   UNL     1      -9.345   6.680 -30.777  1.00  0.00     0.034 C 
ENDBRANCH  20  21
ENDBRANCH   1  20
BRANCH   6  23
HETATM   23  C   UNL     1      -9.646   2.903 -31.258  1.00  0.00     0.252 C 
HETATM   24  N   UNL     1     -10.302   3.049 -30.070  1.00  0.00    -0.366 N 
HETATM   25  H   UNL     1      -9.818   3.052 -29.180  1.00  0.00     0.159 HD
HETATM   26  H   UNL     1     -11.299   3.219 -30.087  1.00  0.00     0.159 HD
HETATM   27  O   UNL     1     -10.248   2.958 -32.324  1.00  0.00    -0.268 OA
ENDBRANCH   6  23
BRANCH   4  28
HETATM   28  N   UNL     1      -5.900   0.076 -32.380  1.00  0.00    -0.323 N 
HETATM   29  C   UNL     1      -6.018  -0.303 -33.704  1.00  0.00     0.256 C 
HETATM   30  O   UNL     1      -6.307   0.434 -34.638  1.00  0.00    -0.267 OA
HETATM   31  H   UNL     1      -5.523  -0.610 -31.740  1.00  0.00     0.169 HD
BRANCH  29  32
HETATM   32  C   UNL     1      -5.749  -1.753 -33.983  1.00  0.00     0.032 A 
HETATM   33  C   UNL     1      -6.694  -2.593 -34.589  1.00  0.00     0.019 A 
HETATM   34  C   UNL     1      -6.384  -3.936 -34.844  1.00  0.00     0.024 A 
HETATM   35  C   UNL     1      -5.144  -4.467 -34.487  1.00  0.00     0.005 A 
HETATM   36  C   UNL     1      -4.177  -3.605 -33.963  1.00  0.00     0.024 A 
HETATM   37  C   UNL     1      -4.480  -2.265 -33.695  1.00  0.00     0.019 A 
BRANCH  35  38
HETATM   38  N   UNL     1      -4.799  -5.766 -34.871  1.00  0.00    -0.303 NA
HETATM   39  H   UNL     1      -5.083  -6.484 -34.211  1.00  0.00     0.124 HD
HETATM   40  H   UNL     1      -3.830  -5.870 -35.157  1.00  0.00     0.124 HD
ENDBRANCH  35  38
ENDBRANCH  29  32
ENDBRANCH   4  28
TORSDOF 9
ENDMDL
MODEL 8
REMARK VINA RESULT:      -8.8      2.269      6.907
REMARK  9 active torsions:
REMARK  status: ('A' for Active; 'I' for Inactive)
REMARK    1  A    between atoms: C_2  and  O_3 
REMARK    2  A    between atoms: O_3  and  C_4 
REMARK    3  A    between atoms: C_5  and  N_6 
REMARK       I    between atoms: N_6  and  C_7 
REMARK    4  A    between atoms: C_7  and  C_8 
REMARK    5  A    between atoms: C_11  and  N_12 
REMARK    6  A    between atoms: C_17  and  N_18 
REMARK       I    between atoms: N_18  and  C_19 
REMARK    7  A    between atoms: C_19  and  C_20 
REMARK    8  A    between atoms: C_23  and  N_24 
REMARK    9  A    between atoms: C_29  and  C_30 
REMARK       I    between atoms: C_30  and  N_31 
ROOT
HETATM    1  C   UNL     1      -6.239   4.503 -31.840  1.00  0.00     0.111 A 
HETATM    2  C   UNL     1      -7.353   3.655 -32.007  1.00  0.00     0.071 A 
HETATM    3  C   UNL     1      -7.181   2.371 -32.543  1.00  0.00     0.062 A 
HETATM    4  C   UNL     1      -5.900   1.922 -32.888  1.00  0.00     0.038 A 
HETATM    5  C   UNL     1      -4.801   2.772 -32.706  1.00  0.00     0.049 A 
HETATM    6  C   UNL     1      -4.954   4.048 -32.150  1.00  0.00     0.069 A 
ENDROOT
BRANCH   2   7
HETATM    7  N   UNL     1      -8.594   4.141 -31.522  1.00  0.00    -0.320 N 
HETATM    8  C   UNL     1      -9.760   3.430 -31.374  1.00  0.00     0.256 C 
HETATM    9  O   UNL     1     -10.250   3.279 -30.257  1.00  0.00    -0.267 OA
HETATM   10  H   UNL     1      -8.458   4.818 -30.776  1.00  0.00     0.169 HD
BRANCH   8  11
HETATM   11  C   UNL     1     -10.551   3.077 -32.592  1.00  0.00     0.032 A 
HETATM   12  C   UNL     1     -11.098   4.120 -33.349  1.00  0.00     0.019 A 
HETATM   13  C   UNL     1     -11.685   3.865 -34.593  1.00  0.00     0.024 A 
HETATM   14  C   UNL     1     -11.776   2.562 -35.086  1.00  0.00     0.005 A 
HETATM   15  C   UNL     1     -11.201   1.526 -34.344  1.00  0.00     0.024 A 
HETATM   16  C   UNL     1     -10.608   1.774 -33.100  1.00  0.00     0.019 A 
BRANCH  14  17
HETATM   17  N   UNL     1     -12.201   2.335 -36.400  1.00  0.00    -0.303 NA
HETATM   18  H   UNL     1     -12.111   1.369 -36.699  1.00  0.00     0.124 HD
HETATM   19  H   UNL     1     -11.815   2.986 -37.077  1.00  0.00     0.124 HD
ENDBRANCH  14  17
ENDBRANCH   8  11
ENDBRANCH   2   7
BRANCH   1  20
HETATM   20  O   UNL     1      -6.469   5.754 -31.308  1.00  0.00    -0.348 OA
BRANCH  20  21
HETATM   21  C   UNL     1      -6.538   6.763 -32.332  1.00  0.00     0.171 C 
HETATM   22  C   UNL     1      -7.524   7.849 -31.938  1.00  0.00     0.034 C 
ENDBRANCH  20  21
ENDBRANCH   1  20
BRANCH   6  23
HETATM   23  C   UNL     1      -3.708   4.809 -31.874  1.00  0.00     0.252 C 
HETATM   24  N   UNL     1      -3.540   5.311 -30.616  1.00  0.00    -0.366 N 
HETATM   25  H   UNL     1      -4.225   5.175 -29.882  1.00  0.00     0.159 HD
HETATM   26  H   UNL     1      -2.674   5.783 -30.398  1.00  0.00     0.159 HD
HETATM   27  O   UNL     1      -2.840   4.941 -32.729  1.00  0.00    -0.268 OA
ENDBRANCH   6  23
BRANCH   4  28
HETATM   28  N   UNL     1      -5.598   0.619 -33.343  1.00  0.00    -0.323 N 
HETATM   29  C   UNL     1      -6.239  -0.106 -34.330  1.00  0.00     0.256 C 
HETATM   30  O   UNL     1      -7.070   0.332 -35.116  1.00  0.00    -0.267 OA
HETATM   31  H   UNL     1      -4.837   0.160 -32.860  1.00  0.00     0.169 HD
BRANCH  29  32
HETATM   32  C   UNL     1      -5.845  -1.551 -34.424  1.00  0.00     0.032 A 
HETATM   33  C   UNL     1      -4.566  -2.010 -34.079  1.00  0.00     0.019 A 
HETATM   34  C   UNL     1      -4.258  -3.373 -34.168  1.00  0.00     0.024 A 
HETATM   35  C   UNL     1      -5.204  -4.296 -34.616  1.00  0.00     0.005 A 
HETATM   36  C   UNL     1      -6.501  -3.846 -34.875  1.00  0.00     0.024 A 
HETATM   37  C   UNL     1      -6.817  -2.484 -34.799  1.00  0.00     0.019 A 
BRANCH  35  38
HETATM   38  N   UNL     1      -4.928  -5.666 -34.568  1.00  0.00    -0.303 NA
HETATM   39  H   UNL     1      -5.729  -6.243 -34.328  1.00  0.00     0.124 HD
HETATM   40  H   UNL     1      -4.106  -5.904 -34.021  1.00  0.00     0.124 HD
ENDBRANCH  35  38
ENDBRANCH  29  32
ENDBRANCH   4  28
TORSDOF 9
ENDMDL
MODEL 9
REMARK VINA RESULT:      -8.6      2.896      7.929
REMARK  9 active torsions:
REMARK  status: ('A' for Active; 'I' for Inactive)
REMARK    1  A    between atoms: C_2  and  O_3 
REMARK    2  A    between atoms: O_3  and  C_4 
REMARK    3  A    between atoms: C_5  and  N_6 
REMARK       I    between atoms: N_6  and  C_7 
REMARK    4  A    between atoms: C_7  and  C_8 
REMARK    5  A    between atoms: C_11  and  N_12 
REMARK    6  A    between atoms: C_17  and  N_18 
REMARK       I    between atoms: N_18  and  C_19 
REMARK    7  A    between atoms: C_19  and  C_20 
REMARK    8  A    between atoms: C_23  and  N_24 
REMARK    9  A    between atoms: C_29  and  C_30 
REMARK       I    between atoms: C_30  and  N_31 
ROOT
HETATM    1  C   UNL     1      -8.703   3.340 -31.146  1.00  0.00     0.111 A 
HETATM    2  C   UNL     1      -9.469   2.445 -31.921  1.00  0.00     0.071 A 
HETATM    3  C   UNL     1      -8.861   1.321 -32.497  1.00  0.00     0.062 A 
HETATM    4  C   UNL     1      -7.499   1.073 -32.282  1.00  0.00     0.038 A 
HETATM    5  C   UNL     1      -6.753   1.965 -31.500  1.00  0.00     0.049 A 
HETATM    6  C   UNL     1      -7.352   3.079 -30.899  1.00  0.00     0.069 A 
ENDROOT
BRANCH   2   7
HETATM    7  N   UNL     1     -10.861   2.704 -31.990  1.00  0.00    -0.320 N 
HETATM    8  C   UNL     1     -11.627   2.814 -33.126  1.00  0.00     0.256 C 
HETATM    9  O   UNL     1     -12.538   2.014 -33.332  1.00  0.00    -0.267 OA
HETATM   10  H   UNL     1     -11.360   2.243 -31.233  1.00  0.00     0.169 HD
BRANCH   8  11
HETATM   11  C   UNL     1     -11.513   4.051 -33.957  1.00  0.00     0.032 A 
HETATM   12  C   UNL     1     -12.439   5.078 -33.740  1.00  0.00     0.019 A 
HETATM   13  C   UNL     1     -12.272   6.327 -34.350  1.00  0.00     0.024 A 
HETATM   14  C   UNL     1     -11.205   6.559 -35.221  1.00  0.00     0.005 A 
HETATM   15  C   UNL     1     -10.265   5.543 -35.410  1.00  0.00     0.024 A 
HETATM   16  C   UNL     1     -10.423   4.292 -34.800  1.00  0.00     0.019 A 
BRANCH  14  17
HETATM   17  N   UNL     1     -10.946   7.853 -35.685  1.00  0.00    -0.303 NA
HETATM   18  H   UNL     1     -11.390   8.583 -35.136  1.00  0.00     0.124 HD
HETATM   19  H   UNL     1     -11.099   7.973 -36.681  1.00  0.00     0.124 HD
ENDBRANCH  14  17
ENDBRANCH   8  11
ENDBRANCH   2   7
BRANCH   1  20
HETATM   20  O   UNL     1      -9.354   4.427 -30.604  1.00  0.00    -0.348 OA
BRANCH  20  21
HETATM   21  C   UNL     1      -9.282   5.575 -31.468  1.00  0.00     0.171 C 
HETATM   22  C   UNL     1     -10.141   6.702 -30.923  1.00  0.00     0.034 C 
ENDBRANCH  20  21
ENDBRANCH   1  20
BRANCH   6  23
HETATM   23  C   UNL     1      -6.500   3.879 -29.981  1.00  0.00     0.252 C 
HETATM   24  N   UNL     1      -7.045   4.265 -28.790  1.00  0.00    -0.366 N 
HETATM   25  H   UNL     1      -7.990   4.020 -28.521  1.00  0.00     0.159 HD
HETATM   26  H   UNL     1      -6.460   4.762 -28.132  1.00  0.00     0.159 HD
HETATM   27  O   UNL     1      -5.336   4.142 -30.259  1.00  0.00    -0.268 OA
ENDBRANCH   6  23
BRANCH   4  28
HETATM   28  N   UNL     1      -6.808  -0.074 -32.730  1.00  0.00    -0.323 N 
HETATM   29  C   UNL     1      -6.505  -0.429 -34.032  1.00  0.00     0.256 C 
HETATM   30  O   UNL     1      -6.623   0.289 -35.016  1.00  0.00    -0.267 OA
HETATM   31  H   UNL     1      -6.531  -0.721 -32.004  1.00  0.00     0.169 HD
BRANCH  29  32
HETATM   32  C   UNL     1      -5.976  -1.822 -34.211  1.00  0.00     0.032 A 
HETATM   33  C   UNL     1      -4.671  -2.187 -33.854  1.00  0.00     0.019 A 
HETATM   34  C   UNL     1      -4.234  -3.506 -34.025  1.00  0.00     0.024 A 
HETATM   35  C   UNL     1      -5.077  -4.476 -34.570  1.00  0.00     0.005 A 
HETATM   36  C   UNL     1      -6.402  -4.129 -34.844  1.00  0.00     0.024 A 
HETATM   37  C   UNL     1      -6.845  -2.810 -34.685  1.00  0.00     0.019 A 
BRANCH  35  38
HETATM   38  N   UNL     1      -4.676  -5.815 -34.607  1.00  0.00    -0.303 NA
HETATM   39  H   UNL     1      -4.160  -6.118 -33.786  1.00  0.00     0.124 HD
HETATM   40  H   UNL     1      -4.216  -6.087 -35.471  1.00  0.00     0.124 HD
ENDBRANCH  35  38
ENDBRANCH  29  32
ENDBRANCH   4  28
TORSDOF 9
ENDMDL
MODEL 10
REMARK VINA RESULT:      -8.4      2.679      7.679
REMARK  9 active torsions:
REMARK  status: ('A' for Active; 'I' for Inactive)
REMARK    1  A    between atoms: C_2  and  O_3 
REMARK    2  A    between atoms: O_3  and  C_4 
REMARK    3  A    between atoms: C_5  and  N_6 
REMARK       I    between atoms: N_6  and  C_7 
REMARK    4  A    between atoms: C_7  and  C_8 
REMARK    5  A    between atoms: C_11  and  N_12 
REMARK    6  A    between atoms: C_17  and  N_18 
REMARK       I    between atoms: N_18  and  C_19 
REMARK    7  A    between atoms: C_19  and  C_20 
REMARK    8  A    between atoms: C_23  and  N_24 
REMARK    9  A    between atoms: C_29  and  C_30 
REMARK       I    between atoms: C_30  and  N_31 
ROOT
HETATM    1  C   UNL     1      -8.951   3.257 -34.184  1.00  0.00     0.111 A 
HETATM    2  C   UNL     1      -7.821   2.413 -34.208  1.00  0.00     0.071 A 
HETATM    3  C   UNL     1      -6.545   2.945 -33.975  1.00  0.00     0.062 A 
HETATM    4  C   UNL     1      -6.396   4.309 -33.693  1.00  0.00     0.038 A 
HETATM    5  C   UNL     1      -7.529   5.133 -33.661  1.00  0.00     0.049 A 
HETATM    6  C   UNL     1      -8.811   4.612 -33.869  1.00  0.00     0.069 A 
ENDROOT
BRANCH   2   7
HETATM    7  N   UNL     1      -8.072   1.028 -34.382  1.00  0.00    -0.320 N 
HETATM    8  C   UNL     1      -7.900   0.033 -33.451  1.00  0.00     0.256 C 
HETATM    9  O   UNL     1      -8.867  -0.617 -33.061  1.00  0.00    -0.267 OA
HETATM   10  H   UNL     1      -8.891   0.873 -34.965  1.00  0.00     0.169 HD
BRANCH   8  11
HETATM   11  C   UNL     1      -6.513  -0.418 -33.123  1.00  0.00     0.032 A 
HETATM   12  C   UNL     1      -5.992  -0.089 -31.866  1.00  0.00     0.019 A 
HETATM   13  C   UNL     1      -4.781  -0.639 -31.432  1.00  0.00     0.024 A 
HETATM   14  C   UNL     1      -4.046  -1.490 -32.259  1.00  0.00     0.005 A 
HETATM   15  C   UNL     1      -4.583  -1.842 -33.501  1.00  0.00     0.024 A 
HETATM   16  C   UNL     1      -5.797  -1.299 -33.941  1.00  0.00     0.019 A 
BRANCH  14  17
HETATM   17  N   UNL     1      -2.932  -2.171 -31.756  1.00  0.00    -0.303 NA
HETATM   18  H   UNL     1      -2.974  -3.177 -31.886  1.00  0.00     0.124 HD
HETATM   19  H   UNL     1      -2.687  -1.916 -30.804  1.00  0.00     0.124 HD
ENDBRANCH  14  17
ENDBRANCH   8  11
ENDBRANCH   2   7
BRANCH   1  20
HETATM   20  O   UNL     1     -10.179   2.678 -34.421  1.00  0.00    -0.348 OA
BRANCH  20  21
HETATM   21  C   UNL     1     -10.855   2.345 -33.195  1.00  0.00     0.171 C 
HETATM   22  C   UNL     1     -12.335   2.667 -33.303  1.00  0.00     0.034 C 
ENDBRANCH  20  21
ENDBRANCH   1  20
BRANCH   6  23
HETATM   23  C   UNL     1      -9.950   5.547 -33.677  1.00  0.00     0.252 C 
HETATM   24  N   UNL     1     -10.804   5.726 -34.727  1.00  0.00    -0.366 N 
HETATM   25  H   UNL     1     -10.687   5.244 -35.610  1.00  0.00     0.159 HD
HETATM   26  H   UNL     1     -11.614   6.316 -34.593  1.00  0.00     0.159 HD
HETATM   27  O   UNL     1     -10.145   6.100 -32.601  1.00  0.00    -0.268 OA
ENDBRANCH   6  23
BRANCH   4  28
HETATM   28  N   UNL     1      -5.175   4.932 -33.347  1.00  0.00    -0.323 N 
HETATM   29  C   UNL     1      -4.136   5.288 -34.187  1.00  0.00     0.256 C 
HETATM   30  O   UNL     1      -4.173   5.292 -35.410  1.00  0.00    -0.267 OA
HETATM   31  H   UNL     1      -5.046   5.107 -32.360  1.00  0.00     0.169 HD
BRANCH  29  32
HETATM   32  C   UNL     1      -2.872   5.711 -33.499  1.00  0.00     0.032 A 
HETATM   33  C   UNL     1      -2.262   6.952 -33.734  1.00  0.00     0.019 A 
HETATM   34  C   UNL     1      -1.092   7.304 -33.050  1.00  0.00     0.024 A 
HETATM   35  C   UNL     1      -0.500   6.427 -32.140  1.00  0.00     0.005 A 
HETATM   36  C   UNL     1      -1.158   5.230 -31.846  1.00  0.00     0.024 A 
HETATM   37  C   UNL     1      -2.322   4.864 -32.531  1.00  0.00     0.019 A 
BRANCH  35  38
HETATM   38  N   UNL     1       0.586   6.845 -31.365  1.00  0.00    -0.303 NA
HETATM   39  H   UNL     1       0.673   7.854 -31.281  1.00  0.00     0.124 HD
HETATM   40  H   UNL     1       1.467   6.405 -31.613  1.00  0.00     0.124 HD
ENDBRANCH  35  38
ENDBRANCH  29  32
ENDBRANCH   4  28
TORSDOF 9
ENDMDL
