MODEL 1
REMARK VINA RESULT:     -11.0      0.000      0.000
REMARK  11 active torsions:
REMARK  status: ('A' for Active; 'I' for Inactive)
REMARK    1  A    between atoms: C_6  and  O_9 
REMARK    2  A    between atoms: O_9  and  C_10 
REMARK    3  A    between atoms: C_10  and  C_12 
REMARK    4  A    between atoms: C_12  and  C_13 
REMARK    5  A    between atoms: C_16  and  N_17 
REMARK       I    between atoms: N_17  and  C_18 
REMARK    6  A    between atoms: C_18  and  C_20 
REMARK    7  A    between atoms: C_24  and  C_26 
REMARK    8  A    between atoms: C_28  and  C_34 
REMARK    9  A    between atoms: C_31  and  C_32 
REMARK   10  A    between atoms: C_32  and  N_33 
REMARK       I    between atoms: C_34  and  N_36 
REMARK   11  A    between atoms: N_36  and  C_37 
ROOT
HETATM    1  C   UNL     1      -1.173   5.105 -32.359  1.00  0.00     0.033 A 
HETATM    2  C   UNL     1      -1.067   5.750 -33.594  1.00  0.00     0.017 A 
HETATM    3  C   UNL     1      -2.087   5.608 -34.529  1.00  0.00     0.002 A 
HETATM    4  C   UNL     1      -3.219   4.847 -34.221  1.00  0.00     0.012 A 
HETATM    5  C   UNL     1      -3.340   4.168 -32.992  1.00  0.00    -0.024 A 
HETATM    6  C   UNL     1      -2.269   4.271 -32.088  1.00  0.00     0.029 A 
ENDROOT
BRANCH   1   7
HETATM    7  C   UNL     1      -0.197   5.367 -31.265  1.00  0.00     0.256 C 
HETATM    8  N   UNL     1      -0.615   6.345 -30.378  1.00  0.00    -0.323 N 
HETATM    9  H   UNL     1      -1.517   6.765 -30.559  1.00  0.00     0.169 HD
HETATM   10  O   UNL     1       0.809   4.676 -31.193  1.00  0.00    -0.267 OA
BRANCH   8  11
HETATM   11  C   UNL     1      -0.005   6.731 -29.167  1.00  0.00     0.035 A 
HETATM   12  C   UNL     1      -0.209   6.089 -27.948  1.00  0.00     0.030 A 
HETATM   13  C   UNL     1       0.406   6.564 -26.783  1.00  0.00     0.010 A 
HETATM   14  C   UNL     1       1.235   7.693 -26.819  1.00  0.00    -0.049 A 
HETATM   15  C   UNL     1       1.457   8.324 -28.048  1.00  0.00     0.010 A 
HETATM   16  C   UNL     1       0.841   7.846 -29.208  1.00  0.00     0.030 A 
BRANCH  14  17
HETATM   17  C   UNL     1       1.895   8.203 -25.562  1.00  0.00     0.149 C 
BRANCH  17  18
HETATM   18  C   UNL     1       1.101   9.284 -24.864  1.00  0.00     0.263 C 
HETATM   19  O   UNL     1      -0.008   9.689 -25.182  1.00  0.00    -0.265 OA
BRANCH  18  20
HETATM   20  O   UNL     1       1.779   9.728 -23.759  1.00  0.00    -0.316 OA
BRANCH  20  21
HETATM   21  C   UNL     1       3.038   9.078 -23.513  1.00  0.00     0.135 C 
HETATM   22  C   UNL     1       4.187  10.080 -23.626  1.00  0.00     0.060 C 
HETATM   23  C   UNL     1       5.511   9.426 -23.272  1.00  0.00     0.237 C 
HETATM   24  N   UNL     1       5.452   8.803 -21.896  1.00  0.00    -0.075 N 
HETATM   25  C   UNL     1       5.551   9.802 -20.774  1.00  0.00     0.269 C 
HETATM   26  C   UNL     1       4.308   7.829 -21.744  1.00  0.00     0.237 C 
HETATM   27  H   UNL     1       6.308   8.236 -21.815  1.00  0.00     0.279 HD
HETATM   28  C   UNL     1       2.986   8.483 -22.108  1.00  0.00     0.060 C 
ENDBRANCH  20  21
ENDBRANCH  18  20
ENDBRANCH  17  18
ENDBRANCH  14  17
ENDBRANCH   8  11
ENDBRANCH   1   7
BRANCH   5  29
HETATM   29  C   UNL     1      -4.580   3.416 -32.663  1.00  0.00    -0.017 A 
HETATM   30  C   UNL     1      -4.525   2.001 -32.607  1.00  0.00     0.030 A 
HETATM   31  C   UNL     1      -5.668   1.229 -32.359  1.00  0.00     0.033 A 
HETATM   32  C   UNL     1      -6.883   1.862 -32.108  1.00  0.00     0.017 A 
HETATM   33  C   UNL     1      -6.961   3.251 -32.138  1.00  0.00     0.011 A 
HETATM   34  C   UNL     1      -5.841   4.045 -32.464  1.00  0.00    -0.020 A 
BRANCH  31  35
HETATM   35  C   UNL     1      -5.667  -0.256 -32.455  1.00  0.00     0.256 C 
HETATM   36  O   UNL     1      -6.014  -0.897 -31.469  1.00  0.00    -0.267 OA
HETATM   37  N   UNL     1      -5.253  -0.786 -33.662  1.00  0.00    -0.320 N 
HETATM   38  H   UNL     1      -4.832  -0.159 -34.340  1.00  0.00     0.169 HD
BRANCH  37  39
HETATM   39  C   UNL     1      -5.244  -2.156 -34.019  1.00  0.00     0.076 A 
HETATM   40  C   UNL     1      -4.179  -3.023 -33.778  1.00  0.00     0.052 A 
HETATM   41  C   UNL     1      -4.300  -4.351 -34.168  1.00  0.00     0.118 A 
HETATM   42  N   UNL     1      -5.395  -4.866 -34.771  1.00  0.00    -0.270 NA
HETATM   43  C   UNL     1      -6.417  -4.009 -34.990  1.00  0.00     0.160 A 
HETATM   44  C   UNL     1      -6.385  -2.673 -34.634  1.00  0.00     0.160 A 
HETATM   45  F   UNL     1      -7.440  -1.881 -34.877  1.00  0.00    -0.202 F 
ENDBRANCH  37  39
ENDBRANCH  31  35
BRANCH  34  46
HETATM   46  C   UNL     1      -6.034   5.548 -32.575  1.00  0.00     0.306 C 
BRANCH  46  47
HETATM   47  N   UNL     1      -7.182   5.932 -33.397  1.00  0.00     0.082 N 
HETATM   48  H   UNL     1      -8.032   5.600 -32.943  1.00  0.00     0.313 HD
HETATM   49  H   UNL     1      -7.127   5.448 -34.291  1.00  0.00     0.313 HD
ENDBRANCH  46  47
ENDBRANCH  34  46
ENDBRANCH   5  29
TORSDOF 11
ENDMDL
MODEL 2
REMARK VINA RESULT:     -10.3      2.296      3.507
REMARK  11 active torsions:
REMARK  status: ('A' for Active; 'I' for Inactive)
REMARK    1  A    between atoms: C_6  and  O_9 
REMARK    2  A    between atoms: O_9  and  C_10 
REMARK    3  A    between atoms: C_10  and  C_12 
REMARK    4  A    between atoms: C_12  and  C_13 
REMARK    5  A    between atoms: C_16  and  N_17 
REMARK       I    between atoms: N_17  and  C_18 
REMARK    6  A    between atoms: C_18  and  C_20 
REMARK    7  A    between atoms: C_24  and  C_26 
REMARK    8  A    between atoms: C_28  and  C_34 
REMARK    9  A    between atoms: C_31  and  C_32 
REMARK   10  A    between atoms: C_32  and  N_33 
REMARK       I    between atoms: C_34  and  N_36 
REMARK   11  A    between atoms: N_36  and  C_37 
ROOT
HETATM    1  C   UNL     1      -1.865   5.736 -31.739  1.00  0.00     0.033 A 
HETATM    2  C   UNL     1      -1.089   5.874 -32.893  1.00  0.00     0.017 A 
HETATM    3  C   UNL     1      -1.470   5.213 -34.056  1.00  0.00     0.002 A 
HETATM    4  C   UNL     1      -2.636   4.440 -34.073  1.00  0.00     0.012 A 
HETATM    5  C   UNL     1      -3.423   4.266 -32.917  1.00  0.00    -0.024 A 
HETATM    6  C   UNL     1      -2.983   4.888 -31.736  1.00  0.00     0.029 A 
ENDROOT
BRANCH   1   7
HETATM    7  C   UNL     1      -1.597   6.557 -30.526  1.00  0.00     0.256 C 
HETATM    8  N   UNL     1      -0.446   6.186 -29.853  1.00  0.00    -0.323 N 
HETATM    9  H   UNL     1       0.082   5.419 -30.248  1.00  0.00     0.169 HD
HETATM   10  O   UNL     1      -2.335   7.500 -30.278  1.00  0.00    -0.267 OA
BRANCH   8  11
HETATM   11  C   UNL     1       0.167   6.838 -28.763  1.00  0.00     0.035 A 
HETATM   12  C   UNL     1       0.980   7.962 -28.880  1.00  0.00     0.030 A 
HETATM   13  C   UNL     1       1.583   8.524 -27.746  1.00  0.00     0.010 A 
HETATM   14  C   UNL     1       1.383   7.964 -26.477  1.00  0.00    -0.049 A 
HETATM   15  C   UNL     1       0.549   6.848 -26.359  1.00  0.00     0.010 A 
HETATM   16  C   UNL     1      -0.051   6.291 -27.492  1.00  0.00     0.030 A 
BRANCH  14  17
HETATM   17  C   UNL     1       2.035   8.570 -25.260  1.00  0.00     0.149 C 
BRANCH  17  18
HETATM   18  C   UNL     1       1.390   9.863 -24.814  1.00  0.00     0.263 C 
HETATM   19  O   UNL     1       1.919  10.966 -24.788  1.00  0.00    -0.265 OA
BRANCH  18  20
HETATM   20  O   UNL     1       0.077   9.648 -24.487  1.00  0.00    -0.316 OA
BRANCH  20  21
HETATM   21  C   UNL     1      -0.833  10.681 -24.903  1.00  0.00     0.135 C 
HETATM   22  C   UNL     1      -1.177  10.527 -26.384  1.00  0.00     0.060 C 
HETATM   23  C   UNL     1      -2.213  11.552 -26.808  1.00  0.00     0.237 C 
HETATM   24  N   UNL     1      -3.447  11.460 -25.940  1.00  0.00    -0.075 N 
HETATM   25  C   UNL     1      -4.341  10.296 -26.279  1.00  0.00     0.269 C 
HETATM   26  C   UNL     1      -3.136  11.580 -24.468  1.00  0.00     0.237 C 
HETATM   27  H   UNL     1      -4.008  12.293 -26.172  1.00  0.00     0.279 HD
HETATM   28  C   UNL     1      -2.093  10.560 -24.048  1.00  0.00     0.060 C 
ENDBRANCH  20  21
ENDBRANCH  18  20
ENDBRANCH  17  18
ENDBRANCH  14  17
ENDBRANCH   8  11
ENDBRANCH   1   7
BRANCH   5  29
HETATM   29  C   UNL     1      -4.689   3.490 -32.975  1.00  0.00    -0.017 A 
HETATM   30  C   UNL     1      -4.643   2.090 -32.758  1.00  0.00     0.030 A 
HETATM   31  C   UNL     1      -5.792   1.292 -32.855  1.00  0.00     0.033 A 
HETATM   32  C   UNL     1      -7.022   1.888 -33.120  1.00  0.00     0.017 A 
HETATM   33  C   UNL     1      -7.099   3.262 -33.318  1.00  0.00     0.011 A 
HETATM   34  C   UNL     1      -5.945   4.075 -33.304  1.00  0.00    -0.020 A 
BRANCH  31  35
HETATM   35  C   UNL     1      -5.740  -0.194 -32.790  1.00  0.00     0.256 C 
HETATM   36  O   UNL     1      -6.064  -0.736 -31.740  1.00  0.00    -0.267 OA
HETATM   37  N   UNL     1      -5.308  -0.837 -33.935  1.00  0.00    -0.320 N 
HETATM   38  H   UNL     1      -4.909  -0.273 -34.679  1.00  0.00     0.169 HD
BRANCH  37  39
HETATM   39  C   UNL     1      -5.253  -2.237 -34.142  1.00  0.00     0.076 A 
HETATM   40  C   UNL     1      -4.140  -3.027 -33.863  1.00  0.00     0.052 A 
HETATM   41  C   UNL     1      -4.218  -4.394 -34.101  1.00  0.00     0.118 A 
HETATM   42  N   UNL     1      -5.314  -5.016 -34.590  1.00  0.00    -0.270 NA
HETATM   43  C   UNL     1      -6.383  -4.231 -34.850  1.00  0.00     0.160 A 
HETATM   44  C   UNL     1      -6.396  -2.863 -34.641  1.00  0.00     0.160 A 
HETATM   45  F   UNL     1      -7.496  -2.146 -34.916  1.00  0.00    -0.202 F 
ENDBRANCH  37  39
ENDBRANCH  31  35
BRANCH  34  46
HETATM   46  C   UNL     1      -6.101   5.551 -33.630  1.00  0.00     0.306 C 
BRANCH  46  47
HETATM   47  N   UNL     1      -7.289   6.160 -33.029  1.00  0.00     0.082 N 
HETATM   48  H   UNL     1      -7.117   7.158 -32.909  1.00  0.00     0.313 HD
HETATM   49  H   UNL     1      -7.422   5.777 -32.095  1.00  0.00     0.313 HD
ENDBRANCH  46  47
ENDBRANCH  34  46
ENDBRANCH   5  29
TORSDOF 11
ENDMDL
MODEL 3
REMARK VINA RESULT:     -10.1      2.605      4.088
REMARK  11 active torsions:
REMARK  status: ('A' for Active; 'I' for Inactive)
REMARK    1  A    between atoms: C_6  and  O_9 
REMARK    2  A    between atoms: O_9  and  C_10 
REMARK    3  A    between atoms: C_10  and  C_12 
REMARK    4  A    between atoms: C_12  and  C_13 
REMARK    5  A    between atoms: C_16  and  N_17 
REMARK       I    between atoms: N_17  and  C_18 
REMARK    6  A    between atoms: C_18  and  C_20 
REMARK    7  A    between atoms: C_24  and  C_26 
REMARK    8  A    between atoms: C_28  and  C_34 
REMARK    9  A    between atoms: C_31  and  C_32 
REMARK   10  A    between atoms: C_32  and  N_33 
REMARK       I    between atoms: C_34  and  N_36 
REMARK   11  A    between atoms: N_36  and  C_37 
ROOT
HETATM    1  C   UNL     1      -2.226   5.018 -31.441  1.00  0.00     0.033 A 
HETATM    2  C   UNL     1      -1.759   5.272 -32.734  1.00  0.00     0.017 A 
HETATM    3  C   UNL     1      -2.210   4.486 -33.790  1.00  0.00     0.002 A 
HETATM    4  C   UNL     1      -3.144   3.471 -33.558  1.00  0.00     0.012 A 
HETATM    5  C   UNL     1      -3.612   3.180 -32.262  1.00  0.00    -0.024 A 
HETATM    6  C   UNL     1      -3.093   3.941 -31.200  1.00  0.00     0.029 A 
ENDROOT
BRANCH   1   7
HETATM    7  C   UNL     1      -1.910   5.936 -30.313  1.00  0.00     0.256 C 
HETATM    8  N   UNL     1      -0.639   5.753 -29.793  1.00  0.00    -0.323 N 
HETATM    9  H   UNL     1      -0.072   5.036 -30.227  1.00  0.00     0.169 HD
HETATM   10  O   UNL     1      -2.726   6.793 -30.001  1.00  0.00    -0.267 OA
BRANCH   8  11
HETATM   11  C   UNL     1       0.022   6.539 -28.827  1.00  0.00     0.035 A 
HETATM   12  C   UNL     1       0.724   7.707 -29.115  1.00  0.00     0.030 A 
HETATM   13  C   UNL     1       1.387   8.406 -28.099  1.00  0.00     0.010 A 
HETATM   14  C   UNL     1       1.360   7.944 -26.776  1.00  0.00    -0.049 A 
HETATM   15  C   UNL     1       0.637   6.783 -26.485  1.00  0.00     0.010 A 
HETATM   16  C   UNL     1      -0.024   6.088 -27.502  1.00  0.00     0.030 A 
BRANCH  14  17
HETATM   17  C   UNL     1       2.077   8.699 -25.685  1.00  0.00     0.149 C 
BRANCH  17  18
HETATM   18  C   UNL     1       1.144   9.443 -24.756  1.00  0.00     0.263 C 
HETATM   19  O   UNL     1       0.019   9.840 -25.025  1.00  0.00    -0.265 OA
BRANCH  18  20
HETATM   20  O   UNL     1       1.714   9.571 -23.516  1.00  0.00    -0.316 OA
BRANCH  20  21
HETATM   21  C   UNL     1       3.093   9.172 -23.435  1.00  0.00     0.135 C 
HETATM   22  C   UNL     1       3.999  10.398 -23.327  1.00  0.00     0.060 C 
HETATM   23  C   UNL     1       5.448   9.984 -23.140  1.00  0.00     0.237 C 
HETATM   24  N   UNL     1       5.598   9.076 -21.941  1.00  0.00    -0.075 N 
HETATM   25  C   UNL     1       5.550   9.802 -20.622  1.00  0.00     0.269 C 
HETATM   26  C   UNL     1       4.694   7.870 -22.005  1.00  0.00     0.237 C 
HETATM   27  H   UNL     1       6.557   8.705 -21.997  1.00  0.00     0.279 HD
HETATM   28  C   UNL     1       3.246   8.285 -22.200  1.00  0.00     0.060 C 
ENDBRANCH  20  21
ENDBRANCH  18  20
ENDBRANCH  17  18
ENDBRANCH  14  17
ENDBRANCH   8  11
ENDBRANCH   1   7
BRANCH   5  29
HETATM   29  C   UNL     1      -4.650   2.136 -32.049  1.00  0.00    -0.017 A 
HETATM   30  C   UNL     1      -5.999   2.442 -32.357  1.00  0.00     0.030 A 
HETATM   31  C   UNL     1      -7.033   1.524 -32.126  1.00  0.00     0.033 A 
HETATM   32  C   UNL     1      -6.729   0.258 -31.631  1.00  0.00     0.017 A 
HETATM   33  C   UNL     1      -5.411  -0.075 -31.339  1.00  0.00     0.011 A 
HETATM   34  C   UNL     1      -4.364   0.859 -31.488  1.00  0.00    -0.020 A 
BRANCH  31  35
HETATM   35  C   UNL     1      -8.469   1.880 -32.289  1.00  0.00     0.256 C 
HETATM   36  O   UNL     1      -9.050   2.377 -31.332  1.00  0.00    -0.267 OA
HETATM   37  N   UNL     1      -9.028   1.598 -33.521  1.00  0.00    -0.320 N 
HETATM   38  H   UNL     1      -8.491   1.035 -34.173  1.00  0.00     0.169 HD
BRANCH  37  39
HETATM   39  C   UNL     1     -10.342   1.918 -33.940  1.00  0.00     0.076 A 
HETATM   40  C   UNL     1     -10.686   3.084 -34.621  1.00  0.00     0.052 A 
HETATM   41  C   UNL     1     -12.013   3.275 -34.987  1.00  0.00     0.118 A 
HETATM   42  N   UNL     1     -13.004   2.395 -34.725  1.00  0.00    -0.270 NA
HETATM   43  C   UNL     1     -12.648   1.269 -34.067  1.00  0.00     0.160 A 
HETATM   44  C   UNL     1     -11.352   0.995 -33.667  1.00  0.00     0.160 A 
HETATM   45  F   UNL     1     -11.069  -0.147 -33.022  1.00  0.00    -0.202 F 
ENDBRANCH  37  39
ENDBRANCH  31  35
BRANCH  34  46
HETATM   46  C   UNL     1      -2.968   0.450 -31.050  1.00  0.00     0.306 C 
BRANCH  46  47
HETATM   47  N   UNL     1      -2.615  -0.921 -31.426  1.00  0.00     0.082 N 
HETATM   48  H   UNL     1      -1.603  -0.981 -31.522  1.00  0.00     0.313 HD
HETATM   49  H   UNL     1      -3.005  -1.124 -32.344  1.00  0.00     0.313 HD
ENDBRANCH  46  47
ENDBRANCH  34  46
ENDBRANCH   5  29
TORSDOF 11
ENDMDL
MODEL 4
REMARK VINA RESULT:      -9.9      1.743      2.098
REMARK  11 active torsions:
REMARK  status: ('A' for Active; 'I' for Inactive)
REMARK    1  A    between atoms: C_6  and  O_9 
REMARK    2  A    between atoms: O_9  and  C_10 
REMARK    3  A    between atoms: C_10  and  C_12 
REMARK    4  A    between atoms: C_12  and  C_13 
REMARK    5  A    between atoms: C_16  and  N_17 
REMARK       I    between atoms: N_17  and  C_18 
REMARK    6  A    between atoms: C_18  and  C_20 
REMARK    7  A    between atoms: C_24  and  C_26 
REMARK    8  A    between atoms: C_28  and  C_34 
REMARK    9  A    between atoms: C_31  and  C_32 
REMARK   10  A    between atoms: C_32  and  N_33 
REMARK       I    between atoms: C_34  and  N_36 
REMARK   11  A    between atoms: N_36  and  C_37 
ROOT
HETATM    1  C   UNL     1      -1.400   5.650 -31.349  1.00  0.00     0.033 A 
HETATM    2  C   UNL     1      -0.700   5.945 -32.522  1.00  0.00     0.017 A 
HETATM    3  C   UNL     1      -1.118   5.387 -33.726  1.00  0.00     0.002 A 
HETATM    4  C   UNL     1      -2.246   4.560 -33.761  1.00  0.00     0.012 A 
HETATM    5  C   UNL     1      -2.955   4.229 -32.589  1.00  0.00    -0.024 A 
HETATM    6  C   UNL     1      -2.476   4.750 -31.374  1.00  0.00     0.029 A 
ENDROOT
BRANCH   1   7
HETATM    7  C   UNL     1      -1.100   6.356 -30.073  1.00  0.00     0.256 C 
HETATM    8  N   UNL     1      -2.016   7.348 -29.765  1.00  0.00    -0.323 N 
HETATM    9  H   UNL     1      -2.776   7.482 -30.419  1.00  0.00     0.169 HD
HETATM   10  O   UNL     1      -0.161   5.971 -29.391  1.00  0.00    -0.267 OA
BRANCH   8  11
HETATM   11  C   UNL     1      -2.108   8.102 -28.577  1.00  0.00     0.035 A 
HETATM   12  C   UNL     1      -2.822   7.704 -27.450  1.00  0.00     0.030 A 
HETATM   13  C   UNL     1      -2.894   8.534 -26.324  1.00  0.00     0.010 A 
HETATM   14  C   UNL     1      -2.253   9.780 -26.310  1.00  0.00    -0.049 A 
HETATM   15  C   UNL     1      -1.517  10.169 -27.435  1.00  0.00     0.010 A 
HETATM   16  C   UNL     1      -1.448   9.337 -28.556  1.00  0.00     0.030 A 
BRANCH  14  17
HETATM   17  C   UNL     1      -2.334  10.672 -25.097  1.00  0.00     0.149 C 
BRANCH  17  18
HETATM   18  C   UNL     1      -1.511  10.174 -23.930  1.00  0.00     0.263 C 
HETATM   19  O   UNL     1      -1.906   9.468 -23.014  1.00  0.00    -0.265 OA
BRANCH  18  20
HETATM   20  O   UNL     1      -0.209  10.582 -24.063  1.00  0.00    -0.316 OA
BRANCH  20  21
HETATM   21  C   UNL     1       0.767   9.525 -24.033  1.00  0.00     0.135 C 
HETATM   22  C   UNL     1       1.645   9.573 -25.283  1.00  0.00     0.060 C 
HETATM   23  C   UNL     1       2.741   8.525 -25.213  1.00  0.00     0.237 C 
HETATM   24  N   UNL     1       3.560   8.685 -23.953  1.00  0.00    -0.075 N 
HETATM   25  C   UNL     1       4.542   9.826 -24.010  1.00  0.00     0.269 C 
HETATM   26  C   UNL     1       2.716   8.671 -22.701  1.00  0.00     0.237 C 
HETATM   27  H   UNL     1       4.148   7.841 -23.898  1.00  0.00     0.279 HD
HETATM   28  C   UNL     1       1.615   9.715 -22.777  1.00  0.00     0.060 C 
ENDBRANCH  20  21
ENDBRANCH  18  20
ENDBRANCH  17  18
ENDBRANCH  14  17
ENDBRANCH   8  11
ENDBRANCH   1   7
BRANCH   5  29
HETATM   29  C   UNL     1      -4.186   3.398 -32.660  1.00  0.00    -0.017 A 
HETATM   30  C   UNL     1      -4.072   1.994 -32.505  1.00  0.00     0.030 A 
HETATM   31  C   UNL     1      -5.185   1.149 -32.618  1.00  0.00     0.033 A 
HETATM   32  C   UNL     1      -6.446   1.699 -32.835  1.00  0.00     0.017 A 
HETATM   33  C   UNL     1      -6.589   3.075 -32.971  1.00  0.00     0.011 A 
HETATM   34  C   UNL     1      -5.473   3.939 -32.941  1.00  0.00    -0.020 A 
BRANCH  31  35
HETATM   35  C   UNL     1      -5.064  -0.335 -32.621  1.00  0.00     0.256 C 
HETATM   36  O   UNL     1      -4.920  -0.902 -31.544  1.00  0.00    -0.267 OA
HETATM   37  N   UNL     1      -5.111  -0.945 -33.859  1.00  0.00    -0.320 N 
HETATM   38  H   UNL     1      -5.065  -0.357 -34.685  1.00  0.00     0.169 HD
BRANCH  37  39
HETATM   39  C   UNL     1      -5.101  -2.339 -34.109  1.00  0.00     0.076 A 
HETATM   40  C   UNL     1      -4.032  -3.181 -33.807  1.00  0.00     0.052 A 
HETATM   41  C   UNL     1      -4.151  -4.536 -34.092  1.00  0.00     0.118 A 
HETATM   42  N   UNL     1      -5.247  -5.099 -34.648  1.00  0.00    -0.270 NA
HETATM   43  C   UNL     1      -6.273  -4.265 -34.929  1.00  0.00     0.160 A 
HETATM   44  C   UNL     1      -6.242  -2.905 -34.677  1.00  0.00     0.160 A 
HETATM   45  F   UNL     1      -7.301  -2.136 -34.976  1.00  0.00    -0.202 F 
ENDBRANCH  37  39
ENDBRANCH  31  35
BRANCH  34  46
HETATM   46  C   UNL     1      -5.702   5.419 -33.199  1.00  0.00     0.306 C 
BRANCH  46  47
HETATM   47  N   UNL     1      -7.082   5.742 -33.567  1.00  0.00     0.082 N 
HETATM   48  H   UNL     1      -7.431   6.454 -32.927  1.00  0.00     0.313 HD
HETATM   49  H   UNL     1      -7.664   4.919 -33.427  1.00  0.00     0.313 HD
ENDBRANCH  46  47
ENDBRANCH  34  46
ENDBRANCH   5  29
TORSDOF 11
ENDMDL
MODEL 5
REMARK VINA RESULT:      -9.3      6.372      9.563
REMARK  11 active torsions:
REMARK  status: ('A' for Active; 'I' for Inactive)
REMARK    1  A    between atoms: C_6  and  O_9 
REMARK    2  A    between atoms: O_9  and  C_10 
REMARK    3  A    between atoms: C_10  and  C_12 
REMARK    4  A    between atoms: C_12  and  C_13 
REMARK    5  A    between atoms: C_16  and  N_17 
REMARK       I    between atoms: N_17  and  C_18 
REMARK    6  A    between atoms: C_18  and  C_20 
REMARK    7  A    between atoms: C_24  and  C_26 
REMARK    8  A    between atoms: C_28  and  C_34 
REMARK    9  A    between atoms: C_31  and  C_32 
REMARK   10  A    between atoms: C_32  and  N_33 
REMARK       I    between atoms: C_34  and  N_36 
REMARK   11  A    between atoms: N_36  and  C_37 
ROOT
HETATM    1  C   UNL     1      -4.133   6.043 -29.876  1.00  0.00     0.033 A 
HETATM    2  C   UNL     1      -2.823   6.376 -30.231  1.00  0.00     0.017 A 
HETATM    3  C   UNL     1      -2.215   5.720 -31.296  1.00  0.00     0.002 A 
HETATM    4  C   UNL     1      -2.924   4.754 -32.020  1.00  0.00     0.012 A 
HETATM    5  C   UNL     1      -4.236   4.384 -31.668  1.00  0.00    -0.024 A 
HETATM    6  C   UNL     1      -4.808   5.012 -30.548  1.00  0.00     0.029 A 
ENDROOT
BRANCH   1   7
HETATM    7  C   UNL     1      -4.884   6.835 -28.863  1.00  0.00     0.256 C 
HETATM    8  N   UNL     1      -6.177   7.141 -29.252  1.00  0.00    -0.323 N 
HETATM    9  H   UNL     1      -6.470   6.800 -30.157  1.00  0.00     0.169 HD
HETATM   10  O   UNL     1      -4.353   7.071 -27.786  1.00  0.00    -0.267 OA
BRANCH   8  11
HETATM   11  C   UNL     1      -7.191   7.747 -28.481  1.00  0.00     0.035 A 
HETATM   12  C   UNL     1      -7.089   9.012 -27.908  1.00  0.00     0.030 A 
HETATM   13  C   UNL     1      -8.130   9.522 -27.122  1.00  0.00     0.010 A 
HETATM   14  C   UNL     1      -9.291   8.770 -26.894  1.00  0.00    -0.049 A 
HETATM   15  C   UNL     1      -9.400   7.508 -27.488  1.00  0.00     0.010 A 
HETATM   16  C   UNL     1      -8.359   7.003 -28.272  1.00  0.00     0.030 A 
BRANCH  14  17
HETATM   17  C   UNL     1     -10.408   9.321 -26.045  1.00  0.00     0.149 C 
BRANCH  17  18
HETATM   18  C   UNL     1     -11.065   8.280 -25.167  1.00  0.00     0.263 C 
HETATM   19  O   UNL     1     -10.584   7.768 -24.166  1.00  0.00    -0.265 OA
BRANCH  18  20
HETATM   20  O   UNL     1     -12.333   8.015 -25.616  1.00  0.00    -0.316 OA
BRANCH  20  21
HETATM   21  C   UNL     1     -13.186   7.342 -24.673  1.00  0.00     0.135 C 
HETATM   22  C   UNL     1     -13.978   8.356 -23.849  1.00  0.00     0.060 C 
HETATM   23  C   UNL     1     -14.953   7.654 -22.921  1.00  0.00     0.237 C 
HETATM   24  N   UNL     1     -15.868   6.735 -23.698  1.00  0.00    -0.075 N 
HETATM   25  C   UNL     1     -16.964   7.456 -24.438  1.00  0.00     0.269 C 
HETATM   26  C   UNL     1     -15.114   5.740 -24.545  1.00  0.00     0.237 C 
HETATM   27  H   UNL     1     -16.361   6.175 -22.987  1.00  0.00     0.279 HD
HETATM   28  C   UNL     1     -14.133   6.443 -25.466  1.00  0.00     0.060 C 
ENDBRANCH  20  21
ENDBRANCH  18  20
ENDBRANCH  17  18
ENDBRANCH  14  17
ENDBRANCH   8  11
ENDBRANCH   1   7
BRANCH   5  29
HETATM   29  C   UNL     1      -4.990   3.400 -32.490  1.00  0.00    -0.017 A 
HETATM   30  C   UNL     1      -4.776   2.017 -32.265  1.00  0.00     0.030 A 
HETATM   31  C   UNL     1      -5.411   1.038 -33.042  1.00  0.00     0.033 A 
HETATM   32  C   UNL     1      -6.315   1.424 -34.028  1.00  0.00     0.017 A 
HETATM   33  C   UNL     1      -6.558   2.775 -34.257  1.00  0.00     0.011 A 
HETATM   34  C   UNL     1      -5.872   3.779 -33.541  1.00  0.00    -0.020 A 
BRANCH  31  35
HETATM   35  C   UNL     1      -5.080  -0.409 -32.932  1.00  0.00     0.256 C 
HETATM   36  O   UNL     1      -4.652  -0.820 -31.860  1.00  0.00    -0.267 OA
HETATM   37  N   UNL     1      -5.275  -1.164 -34.072  1.00  0.00    -0.320 N 
HETATM   38  H   UNL     1      -5.472  -0.678 -34.940  1.00  0.00     0.169 HD
BRANCH  37  39
HETATM   39  C   UNL     1      -5.111  -2.566 -34.188  1.00  0.00     0.076 A 
HETATM   40  C   UNL     1      -3.983  -3.262 -33.757  1.00  0.00     0.052 A 
HETATM   41  C   UNL     1      -3.949  -4.642 -33.918  1.00  0.00     0.118 A 
HETATM   42  N   UNL     1      -4.950  -5.364 -34.470  1.00  0.00    -0.270 NA
HETATM   43  C   UNL     1      -6.036  -4.669 -34.877  1.00  0.00     0.160 A 
HETATM   44  C   UNL     1      -6.156  -3.296 -34.754  1.00  0.00     0.160 A 
HETATM   45  F   UNL     1      -7.267  -2.673 -35.175  1.00  0.00    -0.202 F 
ENDBRANCH  37  39
ENDBRANCH  31  35
BRANCH  34  46
HETATM   46  C   UNL     1      -6.119   5.229 -33.921  1.00  0.00     0.306 C 
BRANCH  46  47
HETATM   47  N   UNL     1      -7.247   5.835 -33.212  1.00  0.00     0.082 N 
HETATM   48  H   UNL     1      -6.938   6.718 -32.805  1.00  0.00     0.313 HD
HETATM   49  H   UNL     1      -7.509   5.236 -32.432  1.00  0.00     0.313 HD
ENDBRANCH  46  47
ENDBRANCH  34  46
ENDBRANCH   5  29
TORSDOF 11
ENDMDL
MODEL 6
REMARK VINA RESULT:      -9.2      5.389      9.857
REMARK  11 active torsions:
REMARK  status: ('A' for Active; 'I' for Inactive)
REMARK    1  A    between atoms: C_6  and  O_9 
REMARK    2  A    between atoms: O_9  and  C_10 
REMARK    3  A    between atoms: C_10  and  C_12 
REMARK    4  A    between atoms: C_12  and  C_13 
REMARK    5  A    between atoms: C_16  and  N_17 
REMARK       I    between atoms: N_17  and  C_18 
REMARK    6  A    between atoms: C_18  and  C_20 
REMARK    7  A    between atoms: C_24  and  C_26 
REMARK    8  A    between atoms: C_28  and  C_34 
REMARK    9  A    between atoms: C_31  and  C_32 
REMARK   10  A    between atoms: C_32  and  N_33 
REMARK       I    between atoms: C_34  and  N_36 
REMARK   11  A    between atoms: N_36  and  C_37 
ROOT
HETATM    1  C   UNL     1      -8.477   2.001 -33.628  1.00  0.00     0.033 A 
HETATM    2  C   UNL     1      -9.047   0.726 -33.573  1.00  0.00     0.017 A 
HETATM    3  C   UNL     1     -10.425   0.599 -33.428  1.00  0.00     0.002 A 
HETATM    4  C   UNL     1     -11.231   1.741 -33.366  1.00  0.00     0.012 A 
HETATM    5  C   UNL     1     -10.679   3.037 -33.396  1.00  0.00    -0.024 A 
HETATM    6  C   UNL     1      -9.279   3.142 -33.475  1.00  0.00     0.029 A 
ENDROOT
BRANCH   1   7
HETATM    7  C   UNL     1      -7.037   2.188 -33.956  1.00  0.00     0.256 C 
HETATM    8  N   UNL     1      -6.550   3.435 -33.601  1.00  0.00    -0.323 N 
HETATM    9  H   UNL     1      -7.205   4.069 -33.163  1.00  0.00     0.169 HD
HETATM   10  O   UNL     1      -6.408   1.246 -34.416  1.00  0.00    -0.267 OA
BRANCH   8  11
HETATM   11  C   UNL     1      -5.214   3.885 -33.640  1.00  0.00     0.035 A 
HETATM   12  C   UNL     1      -4.229   3.491 -32.738  1.00  0.00     0.030 A 
HETATM   13  C   UNL     1      -2.934   4.019 -32.825  1.00  0.00     0.010 A 
HETATM   14  C   UNL     1      -2.606   4.954 -33.816  1.00  0.00    -0.049 A 
HETATM   15  C   UNL     1      -3.591   5.332 -34.734  1.00  0.00     0.010 A 
HETATM   16  C   UNL     1      -4.881   4.802 -34.644  1.00  0.00     0.030 A 
BRANCH  14  17
HETATM   17  C   UNL     1      -1.212   5.521 -33.905  1.00  0.00     0.149 C 
BRANCH  17  18
HETATM   18  C   UNL     1      -1.135   6.986 -33.538  1.00  0.00     0.263 C 
HETATM   19  O   UNL     1      -1.776   7.895 -34.047  1.00  0.00    -0.265 OA
BRANCH  18  20
HETATM   20  O   UNL     1      -0.271   7.167 -32.490  1.00  0.00    -0.316 OA
BRANCH  20  21
HETATM   21  C   UNL     1      -0.557   6.380 -31.321  1.00  0.00     0.135 C 
HETATM   22  C   UNL     1       0.710   5.688 -30.819  1.00  0.00     0.060 C 
HETATM   23  C   UNL     1       0.439   4.935 -29.529  1.00  0.00     0.237 C 
HETATM   24  N   UNL     1      -0.142   5.856 -28.480  1.00  0.00    -0.075 N 
HETATM   25  C   UNL     1       0.877   6.759 -27.836  1.00  0.00     0.269 C 
HETATM   26  C   UNL     1      -1.379   6.577 -28.957  1.00  0.00     0.237 C 
HETATM   27  H   UNL     1      -0.459   5.239 -27.719  1.00  0.00     0.279 HD
HETATM   28  C   UNL     1      -1.109   7.322 -30.252  1.00  0.00     0.060 C 
ENDBRANCH  20  21
ENDBRANCH  18  20
ENDBRANCH  17  18
ENDBRANCH  14  17
ENDBRANCH   8  11
ENDBRANCH   1   7
BRANCH   5  29
HETATM   29  C   UNL     1     -11.560   4.234 -33.389  1.00  0.00    -0.017 A 
HETATM   30  C   UNL     1     -11.863   4.865 -34.621  1.00  0.00     0.030 A 
HETATM   31  C   UNL     1     -12.640   6.030 -34.680  1.00  0.00     0.033 A 
HETATM   32  C   UNL     1     -13.175   6.559 -33.508  1.00  0.00     0.017 A 
HETATM   33  C   UNL     1     -12.910   5.948 -32.286  1.00  0.00     0.011 A 
HETATM   34  C   UNL     1     -12.066   4.821 -32.194  1.00  0.00    -0.020 A 
BRANCH  31  35
HETATM   35  C   UNL     1     -12.836   6.798 -35.940  1.00  0.00     0.256 C 
HETATM   36  O   UNL     1     -13.683   6.399 -36.731  1.00  0.00    -0.267 OA
HETATM   37  N   UNL     1     -12.021   7.900 -36.112  1.00  0.00    -0.320 N 
HETATM   38  H   UNL     1     -11.248   8.029 -35.467  1.00  0.00     0.169 HD
BRANCH  37  39
HETATM   39  C   UNL     1     -12.076   8.827 -37.181  1.00  0.00     0.076 A 
HETATM   40  C   UNL     1     -13.185   9.618 -37.476  1.00  0.00     0.052 A 
HETATM   41  C   UNL     1     -13.108  10.499 -38.549  1.00  0.00     0.118 A 
HETATM   42  N   UNL     1     -12.017  10.642 -39.333  1.00  0.00    -0.270 NA
HETATM   43  C   UNL     1     -10.952   9.868 -39.027  1.00  0.00     0.160 A 
HETATM   44  C   UNL     1     -10.939   8.967 -37.977  1.00  0.00     0.160 A 
HETATM   45  F   UNL     1      -9.843   8.235 -37.726  1.00  0.00    -0.202 F 
ENDBRANCH  37  39
ENDBRANCH  31  35
BRANCH  34  46
HETATM   46  C   UNL     1     -11.744   4.274 -30.813  1.00  0.00     0.306 C 
BRANCH  46  47
HETATM   47  N   UNL     1     -10.539   4.857 -30.220  1.00  0.00     0.082 N 
HETATM   48  H   UNL     1      -9.734   4.303 -30.510  1.00  0.00     0.313 HD
HETATM   49  H   UNL     1     -10.595   4.775 -29.207  1.00  0.00     0.313 HD
ENDBRANCH  46  47
ENDBRANCH  34  46
ENDBRANCH   5  29
TORSDOF 11
ENDMDL
MODEL 7
REMARK VINA RESULT:      -9.2      4.958     13.408
REMARK  11 active torsions:
REMARK  status: ('A' for Active; 'I' for Inactive)
REMARK    1  A    between atoms: C_6  and  O_9 
REMARK    2  A    between atoms: O_9  and  C_10 
REMARK    3  A    between atoms: C_10  and  C_12 
REMARK    4  A    between atoms: C_12  and  C_13 
REMARK    5  A    between atoms: C_16  and  N_17 
REMARK       I    between atoms: N_17  and  C_18 
REMARK    6  A    between atoms: C_18  and  C_20 
REMARK    7  A    between atoms: C_24  and  C_26 
REMARK    8  A    between atoms: C_28  and  C_34 
REMARK    9  A    between atoms: C_31  and  C_32 
REMARK   10  A    between atoms: C_32  and  N_33 
REMARK       I    between atoms: C_34  and  N_36 
REMARK   11  A    between atoms: N_36  and  C_37 
ROOT
HETATM    1  C   UNL     1      -5.803   2.622 -32.773  1.00  0.00     0.033 A 
HETATM    2  C   UNL     1      -5.337   1.314 -32.615  1.00  0.00     0.017 A 
HETATM    3  C   UNL     1      -3.980   1.094 -32.399  1.00  0.00     0.002 A 
HETATM    4  C   UNL     1      -3.099   2.178 -32.315  1.00  0.00     0.012 A 
HETATM    5  C   UNL     1      -3.541   3.504 -32.495  1.00  0.00    -0.024 A 
HETATM    6  C   UNL     1      -4.904   3.699 -32.778  1.00  0.00     0.029 A 
ENDROOT
BRANCH   1   7
HETATM    7  C   UNL     1      -7.261   2.919 -32.831  1.00  0.00     0.256 C 
HETATM    8  N   UNL     1      -7.936   2.180 -33.788  1.00  0.00    -0.323 N 
HETATM    9  H   UNL     1      -7.383   1.529 -34.330  1.00  0.00     0.169 HD
HETATM   10  O   UNL     1      -7.739   3.694 -32.015  1.00  0.00    -0.267 OA
BRANCH   8  11
HETATM   11  C   UNL     1      -9.328   2.112 -34.006  1.00  0.00     0.035 A 
HETATM   12  C   UNL     1     -10.048   3.032 -34.763  1.00  0.00     0.030 A 
HETATM   13  C   UNL     1     -11.437   2.912 -34.894  1.00  0.00     0.010 A 
HETATM   14  C   UNL     1     -12.129   1.869 -34.265  1.00  0.00    -0.049 A 
HETATM   15  C   UNL     1     -11.402   0.933 -33.523  1.00  0.00     0.010 A 
HETATM   16  C   UNL     1     -10.015   1.056 -33.394  1.00  0.00     0.030 A 
BRANCH  14  17
HETATM   17  C   UNL     1     -13.625   1.744 -34.407  1.00  0.00     0.149 C 
BRANCH  17  18
HETATM   18  C   UNL     1     -14.385   2.211 -33.186  1.00  0.00     0.263 C 
HETATM   19  O   UNL     1     -15.036   1.509 -32.424  1.00  0.00    -0.265 OA
BRANCH  18  20
HETATM   20  O   UNL     1     -14.200   3.556 -33.000  1.00  0.00    -0.316 OA
BRANCH  20  21
HETATM   21  C   UNL     1     -13.655   3.927 -31.722  1.00  0.00     0.135 C 
HETATM   22  C   UNL     1     -12.228   4.450 -31.881  1.00  0.00     0.060 C 
HETATM   23  C   UNL     1     -11.680   4.937 -30.551  1.00  0.00     0.237 C 
HETATM   24  N   UNL     1     -12.589   5.980 -29.943  1.00  0.00    -0.075 N 
HETATM   25  C   UNL     1     -12.465   7.337 -30.583  1.00  0.00     0.269 C 
HETATM   26  C   UNL     1     -14.013   5.502 -29.800  1.00  0.00     0.237 C 
HETATM   27  H   UNL     1     -12.246   6.116 -28.981  1.00  0.00     0.279 HD
HETATM   28  C   UNL     1     -14.557   5.008 -31.129  1.00  0.00     0.060 C 
ENDBRANCH  20  21
ENDBRANCH  18  20
ENDBRANCH  17  18
ENDBRANCH  14  17
ENDBRANCH   8  11
ENDBRANCH   1   7
BRANCH   5  29
HETATM   29  C   UNL     1      -2.597   4.642 -32.340  1.00  0.00    -0.017 A 
HETATM   30  C   UNL     1      -2.326   5.132 -31.039  1.00  0.00     0.030 A 
HETATM   31  C   UNL     1      -1.491   6.238 -30.828  1.00  0.00     0.033 A 
HETATM   32  C   UNL     1      -0.867   6.845 -31.915  1.00  0.00     0.017 A 
HETATM   33  C   UNL     1      -1.101   6.372 -33.202  1.00  0.00     0.011 A 
HETATM   34  C   UNL     1      -1.998   5.311 -33.446  1.00  0.00    -0.020 A 
BRANCH  31  35
HETATM   35  C   UNL     1      -1.320   6.868 -29.490  1.00  0.00     0.256 C 
HETATM   36  O   UNL     1      -2.293   6.907 -28.745  1.00  0.00    -0.267 OA
HETATM   37  N   UNL     1      -0.065   7.373 -29.212  1.00  0.00    -0.320 N 
HETATM   38  H   UNL     1       0.607   7.430 -29.971  1.00  0.00     0.169 HD
BRANCH  37  39
HETATM   39  C   UNL     1       0.360   7.939 -27.985  1.00  0.00     0.076 A 
HETATM   40  C   UNL     1       1.251   7.326 -27.106  1.00  0.00     0.052 A 
HETATM   41  C   UNL     1       1.598   7.993 -25.937  1.00  0.00     0.118 A 
HETATM   42  N   UNL     1       1.125   9.211 -25.592  1.00  0.00    -0.270 NA
HETATM   43  C   UNL     1       0.265   9.788 -26.461  1.00  0.00     0.160 A 
HETATM   44  C   UNL     1      -0.133   9.199 -27.648  1.00  0.00     0.160 A 
HETATM   45  F   UNL     1      -0.986   9.834 -28.467  1.00  0.00    -0.202 F 
ENDBRANCH  37  39
ENDBRANCH  31  35
BRANCH  34  46
HETATM   46  C   UNL     1      -2.276   4.921 -34.888  1.00  0.00     0.306 C 
BRANCH  46  47
HETATM   47  N   UNL     1      -3.514   5.493 -35.421  1.00  0.00     0.082 N 
HETATM   48  H   UNL     1      -3.964   4.798 -36.014  1.00  0.00     0.313 HD
HETATM   49  H   UNL     1      -3.283   6.280 -36.024  1.00  0.00     0.313 HD
ENDBRANCH  46  47
ENDBRANCH  34  46
ENDBRANCH   5  29
TORSDOF 11
ENDMDL
MODEL 8
REMARK VINA RESULT:      -9.1      3.759     13.595
REMARK  11 active torsions:
REMARK  status: ('A' for Active; 'I' for Inactive)
REMARK    1  A    between atoms: C_6  and  O_9 
REMARK    2  A    between atoms: O_9  and  C_10 
REMARK    3  A    between atoms: C_10  and  C_12 
REMARK    4  A    between atoms: C_12  and  C_13 
REMARK    5  A    between atoms: C_16  and  N_17 
REMARK       I    between atoms: N_17  and  C_18 
REMARK    6  A    between atoms: C_18  and  C_20 
REMARK    7  A    between atoms: C_24  and  C_26 
REMARK    8  A    between atoms: C_28  and  C_34 
REMARK    9  A    between atoms: C_31  and  C_32 
REMARK   10  A    between atoms: C_32  and  N_33 
REMARK       I    between atoms: C_34  and  N_36 
REMARK   11  A    between atoms: N_36  and  C_37 
ROOT
HETATM    1  C   UNL     1      -1.834   6.245 -30.605  1.00  0.00     0.033 A 
HETATM    2  C   UNL     1      -0.624   6.249 -31.304  1.00  0.00     0.017 A 
HETATM    3  C   UNL     1       0.489   6.865 -30.742  1.00  0.00     0.002 A 
HETATM    4  C   UNL     1       0.400   7.450 -29.474  1.00  0.00     0.012 A 
HETATM    5  C   UNL     1      -0.813   7.480 -28.758  1.00  0.00    -0.024 A 
HETATM    6  C   UNL     1      -1.941   6.910 -29.373  1.00  0.00     0.029 A 
ENDROOT
BRANCH   1   7
HETATM    7  C   UNL     1      -2.999   5.452 -31.083  1.00  0.00     0.256 C 
HETATM    8  N   UNL     1      -3.941   5.209 -30.097  1.00  0.00    -0.323 N 
HETATM    9  H   UNL     1      -3.746   5.589 -29.181  1.00  0.00     0.169 HD
HETATM   10  O   UNL     1      -3.070   5.162 -32.269  1.00  0.00    -0.267 OA
BRANCH   8  11
HETATM   11  C   UNL     1      -5.214   4.619 -30.244  1.00  0.00     0.035 A 
HETATM   12  C   UNL     1      -5.494   3.283 -29.972  1.00  0.00     0.030 A 
HETATM   13  C   UNL     1      -6.780   2.769 -30.184  1.00  0.00     0.010 A 
HETATM   14  C   UNL     1      -7.806   3.586 -30.677  1.00  0.00    -0.049 A 
HETATM   15  C   UNL     1      -7.528   4.933 -30.929  1.00  0.00     0.010 A 
HETATM   16  C   UNL     1      -6.244   5.442 -30.715  1.00  0.00     0.030 A 
BRANCH  14  17
HETATM   17  C   UNL     1      -9.188   3.029 -30.906  1.00  0.00     0.149 C 
BRANCH  17  18
HETATM   18  C   UNL     1      -9.402   2.514 -32.312  1.00  0.00     0.263 C 
HETATM   19  O   UNL     1      -9.775   3.169 -33.275  1.00  0.00    -0.265 OA
BRANCH  18  20
HETATM   20  O   UNL     1      -9.060   1.189 -32.387  1.00  0.00    -0.316 OA
BRANCH  20  21
HETATM   21  C   UNL     1      -7.873   0.908 -33.150  1.00  0.00     0.135 C 
HETATM   22  C   UNL     1      -6.989  -0.096 -32.412  1.00  0.00     0.060 C 
HETATM   23  C   UNL     1      -5.784  -0.475 -33.255  1.00  0.00     0.237 C 
HETATM   24  N   UNL     1      -6.214  -1.002 -34.604  1.00  0.00    -0.075 N 
HETATM   25  C   UNL     1      -6.733  -2.416 -34.564  1.00  0.00     0.269 C 
HETATM   26  C   UNL     1      -7.114  -0.044 -35.345  1.00  0.00     0.237 C 
HETATM   27  H   UNL     1      -5.352  -1.060 -35.164  1.00  0.00     0.279 HD
HETATM   28  C   UNL     1      -8.314   0.341 -34.498  1.00  0.00     0.060 C 
ENDBRANCH  20  21
ENDBRANCH  18  20
ENDBRANCH  17  18
ENDBRANCH  14  17
ENDBRANCH   8  11
ENDBRANCH   1   7
BRANCH   5  29
HETATM   29  C   UNL     1      -0.868   8.053 -27.387  1.00  0.00    -0.017 A 
HETATM   30  C   UNL     1       0.300   8.647 -26.848  1.00  0.00     0.030 A 
HETATM   31  C   UNL     1       0.332   9.154 -25.542  1.00  0.00     0.033 A 
HETATM   32  C   UNL     1      -0.823   9.124 -24.765  1.00  0.00     0.017 A 
HETATM   33  C   UNL     1      -1.989   8.564 -25.276  1.00  0.00     0.011 A 
HETATM   34  C   UNL     1      -2.023   7.976 -26.559  1.00  0.00    -0.020 A 
BRANCH  31  35
HETATM   35  C   UNL     1       1.587   9.634 -24.901  1.00  0.00     0.256 C 
HETATM   36  O   UNL     1       1.832  10.834 -24.944  1.00  0.00    -0.267 OA
HETATM   37  N   UNL     1       2.382   8.664 -24.321  1.00  0.00    -0.320 N 
HETATM   38  H   UNL     1       2.155   7.691 -24.498  1.00  0.00     0.169 HD
BRANCH  37  39
HETATM   39  C   UNL     1       3.572   8.883 -23.586  1.00  0.00     0.076 A 
HETATM   40  C   UNL     1       4.764   9.343 -24.143  1.00  0.00     0.052 A 
HETATM   41  C   UNL     1       5.861   9.528 -23.309  1.00  0.00     0.118 A 
HETATM   42  N   UNL     1       5.849   9.290 -21.979  1.00  0.00    -0.270 NA
HETATM   43  C   UNL     1       4.681   8.848 -21.459  1.00  0.00     0.160 A 
HETATM   44  C   UNL     1       3.540   8.638 -22.213  1.00  0.00     0.160 A 
HETATM   45  F   UNL     1       2.413   8.204 -21.629  1.00  0.00    -0.202 F 
ENDBRANCH  37  39
ENDBRANCH  31  35
BRANCH  34  46
HETATM   46  C   UNL     1      -3.307   7.296 -27.003  1.00  0.00     0.306 C 
BRANCH  46  47
HETATM   47  N   UNL     1      -3.546   6.010 -26.344  1.00  0.00     0.082 N 
HETATM   48  H   UNL     1      -4.038   6.181 -25.468  1.00  0.00     0.313 HD
HETATM   49  H   UNL     1      -2.651   5.594 -26.095  1.00  0.00     0.313 HD
ENDBRANCH  46  47
ENDBRANCH  34  46
ENDBRANCH   5  29
TORSDOF 11
ENDMDL
MODEL 9
REMARK VINA RESULT:      -9.1      5.057     13.648
REMARK  11 active torsions:
REMARK  status: ('A' for Active; 'I' for Inactive)
REMARK    1  A    between atoms: C_6  and  O_9 
REMARK    2  A    between atoms: O_9  and  C_10 
REMARK    3  A    between atoms: C_10  and  C_12 
REMARK    4  A    between atoms: C_12  and  C_13 
REMARK    5  A    between atoms: C_16  and  N_17 
REMARK       I    between atoms: N_17  and  C_18 
REMARK    6  A    between atoms: C_18  and  C_20 
REMARK    7  A    between atoms: C_24  and  C_26 
REMARK    8  A    between atoms: C_28  and  C_34 
REMARK    9  A    between atoms: C_31  and  C_32 
REMARK   10  A    between atoms: C_32  and  N_33 
REMARK       I    between atoms: C_34  and  N_36 
REMARK   11  A    between atoms: N_36  and  C_37 
ROOT
HETATM    1  C   UNL     1      -5.446   2.595 -32.505  1.00  0.00     0.033 A 
HETATM    2  C   UNL     1      -4.787   1.400 -32.201  1.00  0.00     0.017 A 
HETATM    3  C   UNL     1      -3.432   1.427 -31.890  1.00  0.00     0.002 A 
HETATM    4  C   UNL     1      -2.745   2.645 -31.855  1.00  0.00     0.012 A 
HETATM    5  C   UNL     1      -3.379   3.860 -32.179  1.00  0.00    -0.024 A 
HETATM    6  C   UNL     1      -4.733   3.803 -32.555  1.00  0.00     0.029 A 
ENDROOT
BRANCH   1   7
HETATM    7  C   UNL     1      -6.925   2.640 -32.672  1.00  0.00     0.256 C 
HETATM    8  N   UNL     1      -7.450   1.488 -33.232  1.00  0.00    -0.323 N 
HETATM    9  H   UNL     1      -6.792   0.754 -33.459  1.00  0.00     0.169 HD
HETATM   10  O   UNL     1      -7.538   3.609 -32.247  1.00  0.00    -0.267 OA
BRANCH   8  11
HETATM   11  C   UNL     1      -8.809   1.148 -33.394  1.00  0.00     0.035 A 
HETATM   12  C   UNL     1      -9.710   1.870 -34.173  1.00  0.00     0.030 A 
HETATM   13  C   UNL     1     -11.054   1.484 -34.246  1.00  0.00     0.010 A 
HETATM   14  C   UNL     1     -11.520   0.368 -33.537  1.00  0.00    -0.049 A 
HETATM   15  C   UNL     1     -10.609  -0.368 -32.772  1.00  0.00     0.010 A 
HETATM   16  C   UNL     1      -9.268   0.020 -32.702  1.00  0.00     0.030 A 
BRANCH  14  17
HETATM   17  C   UNL     1     -12.968  -0.043 -33.616  1.00  0.00     0.149 C 
BRANCH  17  18
HETATM   18  C   UNL     1     -13.903   1.108 -33.914  1.00  0.00     0.263 C 
HETATM   19  O   UNL     1     -14.314   1.442 -35.017  1.00  0.00    -0.265 OA
BRANCH  18  20
HETATM   20  O   UNL     1     -14.292   1.714 -32.748  1.00  0.00    -0.316 OA
BRANCH  20  21
HETATM   21  C   UNL     1     -14.262   3.152 -32.769  1.00  0.00     0.135 C 
HETATM   22  C   UNL     1     -15.437   3.722 -31.974  1.00  0.00     0.060 C 
HETATM   23  C   UNL     1     -15.358   5.237 -31.906  1.00  0.00     0.237 C 
HETATM   24  N   UNL     1     -14.033   5.682 -31.333  1.00  0.00    -0.075 N 
HETATM   25  C   UNL     1     -13.938   5.528 -29.837  1.00  0.00     0.269 C 
HETATM   26  C   UNL     1     -12.852   5.111 -32.079  1.00  0.00     0.237 C 
HETATM   27  H   UNL     1     -13.993   6.699 -31.491  1.00  0.00     0.279 HD
HETATM   28  C   UNL     1     -12.937   3.596 -32.154  1.00  0.00     0.060 C 
ENDBRANCH  20  21
ENDBRANCH  18  20
ENDBRANCH  17  18
ENDBRANCH  14  17
ENDBRANCH   8  11
ENDBRANCH   1   7
BRANCH   5  29
HETATM   29  C   UNL     1      -2.644   5.148 -32.075  1.00  0.00    -0.017 A 
HETATM   30  C   UNL     1      -2.603   5.812 -30.824  1.00  0.00     0.030 A 
HETATM   31  C   UNL     1      -1.976   7.057 -30.671  1.00  0.00     0.033 A 
HETATM   32  C   UNL     1      -1.331   7.638 -31.759  1.00  0.00     0.017 A 
HETATM   33  C   UNL     1      -1.339   6.999 -32.994  1.00  0.00     0.011 A 
HETATM   34  C   UNL     1      -2.031   5.785 -33.191  1.00  0.00    -0.020 A 
BRANCH  31  35
HETATM   35  C   UNL     1      -2.060   7.844 -29.411  1.00  0.00     0.256 C 
HETATM   36  O   UNL     1      -1.773   9.035 -29.457  1.00  0.00    -0.267 OA
HETATM   37  N   UNL     1      -2.444   7.146 -28.283  1.00  0.00    -0.320 N 
HETATM   38  H   UNL     1      -2.491   6.134 -28.339  1.00  0.00     0.169 HD
BRANCH  37  39
HETATM   39  C   UNL     1      -2.673   7.690 -26.996  1.00  0.00     0.076 A 
HETATM   40  C   UNL     1      -1.672   8.199 -26.170  1.00  0.00     0.052 A 
HETATM   41  C   UNL     1      -2.030   8.717 -24.931  1.00  0.00     0.118 A 
HETATM   42  N   UNL     1      -3.298   8.761 -24.467  1.00  0.00    -0.270 NA
HETATM   43  C   UNL     1      -4.254   8.265 -25.286  1.00  0.00     0.160 A 
HETATM   44  C   UNL     1      -3.989   7.734 -26.535  1.00  0.00     0.160 A 
HETATM   45  F   UNL     1      -4.989   7.264 -27.298  1.00  0.00    -0.202 F 
ENDBRANCH  37  39
ENDBRANCH  31  35
BRANCH  34  46
HETATM   46  C   UNL     1      -2.077   5.203 -34.594  1.00  0.00     0.306 C 
BRANCH  46  47
HETATM   47  N   UNL     1      -3.301   5.535 -35.325  1.00  0.00     0.082 N 
HETATM   48  H   UNL     1      -4.063   5.630 -34.655  1.00  0.00     0.313 HD
HETATM   49  H   UNL     1      -3.547   4.755 -35.931  1.00  0.00     0.313 HD
ENDBRANCH  46  47
ENDBRANCH  34  46
ENDBRANCH   5  29
TORSDOF 11
ENDMDL
MODEL 10
REMARK VINA RESULT:      -9.1      4.636     14.420
REMARK  11 active torsions:
REMARK  status: ('A' for Active; 'I' for Inactive)
REMARK    1  A    between atoms: C_6  and  O_9 
REMARK    2  A    between atoms: O_9  and  C_10 
REMARK    3  A    between atoms: C_10  and  C_12 
REMARK    4  A    between atoms: C_12  and  C_13 
REMARK    5  A    between atoms: C_16  and  N_17 
REMARK       I    between atoms: N_17  and  C_18 
REMARK    6  A    between atoms: C_18  and  C_20 
REMARK    7  A    between atoms: C_24  and  C_26 
REMARK    8  A    between atoms: C_28  and  C_34 
REMARK    9  A    between atoms: C_31  and  C_32 
REMARK   10  A    between atoms: C_32  and  N_33 
REMARK       I    between atoms: C_34  and  N_36 
REMARK   11  A    between atoms: N_36  and  C_37 
ROOT
HETATM    1  C   UNL     1      -1.085   6.042 -30.357  1.00  0.00     0.033 A 
HETATM    2  C   UNL     1      -0.082   5.070 -30.399  1.00  0.00     0.017 A 
HETATM    3  C   UNL     1       0.843   4.997 -29.362  1.00  0.00     0.002 A 
HETATM    4  C   UNL     1       0.748   5.874 -28.276  1.00  0.00     0.012 A 
HETATM    5  C   UNL     1      -0.239   6.877 -28.220  1.00  0.00    -0.024 A 
HETATM    6  C   UNL     1      -1.122   6.976 -29.310  1.00  0.00     0.029 A 
ENDROOT
BRANCH   1   7
HETATM    7  C   UNL     1      -2.196   6.047 -31.348  1.00  0.00     0.256 C 
HETATM    8  N   UNL     1      -2.995   4.918 -31.285  1.00  0.00    -0.323 N 
HETATM    9  H   UNL     1      -2.749   4.227 -30.588  1.00  0.00     0.169 HD
HETATM   10  O   UNL     1      -2.357   7.036 -32.049  1.00  0.00    -0.267 OA
BRANCH   8  11
HETATM   11  C   UNL     1      -4.200   4.671 -31.975  1.00  0.00     0.035 A 
HETATM   12  C   UNL     1      -4.276   4.335 -33.324  1.00  0.00     0.030 A 
HETATM   13  C   UNL     1      -5.519   4.147 -33.940  1.00  0.00     0.010 A 
HETATM   14  C   UNL     1      -6.709   4.297 -33.215  1.00  0.00    -0.049 A 
HETATM   15  C   UNL     1      -6.631   4.614 -31.855  1.00  0.00     0.010 A 
HETATM   16  C   UNL     1      -5.388   4.800 -31.244  1.00  0.00     0.030 A 
BRANCH  14  17
HETATM   17  C   UNL     1      -8.046   4.096 -33.883  1.00  0.00     0.149 C 
BRANCH  17  18
HETATM   18  C   UNL     1      -8.540   2.668 -33.820  1.00  0.00     0.263 C 
HETATM   19  O   UNL     1      -7.981   1.686 -34.289  1.00  0.00    -0.265 OA
BRANCH  18  20
HETATM   20  O   UNL     1      -9.703   2.602 -33.099  1.00  0.00    -0.316 OA
BRANCH  20  21
HETATM   21  C   UNL     1     -10.906   2.804 -33.860  1.00  0.00     0.135 C 
HETATM   22  C   UNL     1     -11.492   1.463 -34.300  1.00  0.00     0.060 C 
HETATM   23  C   UNL     1     -12.814   1.661 -35.019  1.00  0.00     0.237 C 
HETATM   24  N   UNL     1     -13.785   2.434 -34.156  1.00  0.00    -0.075 N 
HETATM   25  C   UNL     1     -14.411   1.610 -33.061  1.00  0.00     0.269 C 
HETATM   26  C   UNL     1     -13.224   3.752 -33.681  1.00  0.00     0.237 C 
HETATM   27  H   UNL     1     -14.571   2.676 -34.777  1.00  0.00     0.279 HD
HETATM   28  C   UNL     1     -11.897   3.552 -32.971  1.00  0.00     0.060 C 
ENDBRANCH  20  21
ENDBRANCH  18  20
ENDBRANCH  17  18
ENDBRANCH  14  17
ENDBRANCH   8  11
ENDBRANCH   1   7
BRANCH   5  29
HETATM   29  C   UNL     1      -0.357   7.756 -27.028  1.00  0.00    -0.017 A 
HETATM   30  C   UNL     1       0.822   8.304 -26.464  1.00  0.00     0.030 A 
HETATM   31  C   UNL     1       0.786   9.093 -25.306  1.00  0.00     0.033 A 
HETATM   32  C   UNL     1      -0.440   9.395 -24.718  1.00  0.00     0.017 A 
HETATM   33  C   UNL     1      -1.614   8.887 -25.262  1.00  0.00     0.011 A 
HETATM   34  C   UNL     1      -1.597   8.025 -26.380  1.00  0.00    -0.020 A 
BRANCH  31  35
HETATM   35  C   UNL     1       2.021   9.543 -24.607  1.00  0.00     0.256 C 
HETATM   36  O   UNL     1       2.276  10.742 -24.606  1.00  0.00    -0.267 OA
HETATM   37  N   UNL     1       2.786   8.550 -24.027  1.00  0.00    -0.320 N 
HETATM   38  H   UNL     1       2.558   7.584 -24.240  1.00  0.00     0.169 HD
BRANCH  37  39
HETATM   39  C   UNL     1       3.951   8.737 -23.243  1.00  0.00     0.076 A 
HETATM   40  C   UNL     1       5.160   9.219 -23.739  1.00  0.00     0.052 A 
HETATM   41  C   UNL     1       6.228   9.369 -22.862  1.00  0.00     0.118 A 
HETATM   42  N   UNL     1       6.171   9.075 -21.544  1.00  0.00    -0.270 NA
HETATM   43  C   UNL     1       4.987   8.612 -21.083  1.00  0.00     0.160 A 
HETATM   44  C   UNL     1       3.872   8.435 -21.884  1.00  0.00     0.160 A 
HETATM   45  F   UNL     1       2.726   7.977 -21.357  1.00  0.00    -0.202 F 
ENDBRANCH  37  39
ENDBRANCH  31  35
BRANCH  34  46
HETATM   46  C   UNL     1      -2.913   7.431 -26.851  1.00  0.00     0.306 C 
BRANCH  46  47
HETATM   47  N   UNL     1      -3.217   6.131 -26.250  1.00  0.00     0.082 N 
HETATM   48  H   UNL     1      -2.345   5.618 -26.129  1.00  0.00     0.313 HD
HETATM   49  H   UNL     1      -3.782   5.588 -26.900  1.00  0.00     0.313 HD
ENDBRANCH  46  47
ENDBRANCH  34  46
ENDBRANCH   5  29
TORSDOF 11
ENDMDL
