MODEL 1
REMARK VINA RESULT:      -7.8      0.000      0.000
REMARK  7 active torsions:
REMARK  status: ('A' for Active; 'I' for Inactive)
REMARK    1  A    between atoms: C_2  and  C_3 
REMARK    2  A    between atoms: C_3  and  N_4 
REMARK    3  A    between atoms: C_7  and  C_8 
REMARK       I    between atoms: C_8  and  N_9 
REMARK    4  A    between atoms: N_9  and  C_10 
REMARK    5  A    between atoms: C_11  and  O_12 
REMARK    6  A    between atoms: C_16  and  C_17 
REMARK       I    between atoms: C_17  and  N_18 
REMARK    7  A    between atoms: C_23  and  C_24 
ROOT
HETATM    1  C   UNL     1      -6.511   2.039 -30.926  1.00  0.00     0.259 C 
HETATM    2  N   UNL     1      -7.320   1.156 -31.599  1.00  0.00    -0.320 N 
HETATM    3  O   UNL     1      -6.705   2.167 -29.715  1.00  0.00    -0.267 OA
HETATM    4  H   UNL     1      -8.178   0.967 -31.088  1.00  0.00     0.169 HD
ENDROOT
BRANCH   2   5
HETATM    5  C   UNL     1      -7.217   0.479 -32.827  1.00  0.00     0.069 A 
HETATM    6  C   UNL     1      -7.853   1.087 -33.932  1.00  0.00     0.095 A 
HETATM    7  C   UNL     1      -7.809   0.479 -35.186  1.00  0.00     0.040 A 
HETATM    8  C   UNL     1      -7.149  -0.741 -35.340  1.00  0.00     0.020 A 
HETATM    9  C   UNL     1      -6.556  -1.371 -34.240  1.00  0.00     0.034 A 
HETATM   10  C   UNL     1      -6.583  -0.758 -32.979  1.00  0.00     0.049 A 
BRANCH   6  11
HETATM   11  O   UNL     1      -8.495   2.274 -33.671  1.00  0.00    -0.354 OA
HETATM   12  C   UNL     1      -9.850   2.359 -34.102  1.00  0.00     0.210 C 
ENDBRANCH   6  11
BRANCH   9  13
HETATM   13  C   UNL     1      -5.923  -2.697 -34.465  1.00  0.00     0.251 C 
HETATM   14  N   UNL     1      -4.622  -2.835 -34.022  1.00  0.00    -0.361 N 
HETATM   15  C   UNL     1      -3.984  -4.128 -34.040  1.00  0.00     0.149 C 
HETATM   16  H   UNL     1      -4.233  -2.126 -33.416  1.00  0.00     0.162 HD
HETATM   17  O   UNL     1      -6.572  -3.611 -34.961  1.00  0.00    -0.268 OA
ENDBRANCH   9  13
ENDBRANCH   2   5
BRANCH   1  18
HETATM   18  C   UNL     1      -5.578   2.892 -31.654  1.00  0.00     0.076 A 
HETATM   19  C   UNL     1      -5.811   4.185 -32.177  1.00  0.00     0.158 A 
HETATM   20  N   UNL     1      -4.729   4.736 -32.717  1.00  0.00    -0.183 NA
HETATM   21  N   UNL     1      -3.757   3.820 -32.513  1.00  0.00    -0.268 N 
HETATM   22  C   UNL     1      -4.200   2.724 -31.808  1.00  0.00     0.052 A 
BRANCH  21  23
HETATM   23  C   UNL     1      -2.463   4.078 -33.134  1.00  0.00     0.106 C 
HETATM   24  C   UNL     1      -1.516   4.758 -32.144  1.00  0.00     0.034 C 
BRANCH  23  25
HETATM   25  C   UNL     1      -2.575   4.894 -34.441  1.00  0.00     0.022 C 
HETATM   26  C   UNL     1      -1.256   5.547 -34.837  1.00  0.00     0.007 C 
ENDBRANCH  23  25
ENDBRANCH  21  23
BRANCH  22  27
HETATM   27  C   UNL     1      -3.435   1.544 -31.202  1.00  0.00     0.038 A 
HETATM   28  C   UNL     1      -3.956   0.168 -30.890  1.00  0.00     0.011 A 
HETATM   29  C   UNL     1      -3.171   0.385 -32.141  1.00  0.00     0.011 A 
ENDBRANCH  22  27
ENDBRANCH   1  18
TORSDOF 7
ENDMDL
MODEL 2
REMARK VINA RESULT:      -7.6      1.209      2.465
REMARK  7 active torsions:
REMARK  status: ('A' for Active; 'I' for Inactive)
REMARK    1  A    between atoms: C_2  and  C_3 
REMARK    2  A    between atoms: C_3  and  N_4 
REMARK    3  A    between atoms: C_7  and  C_8 
REMARK       I    between atoms: C_8  and  N_9 
REMARK    4  A    between atoms: N_9  and  C_10 
REMARK    5  A    between atoms: C_11  and  O_12 
REMARK    6  A    between atoms: C_16  and  C_17 
REMARK       I    between atoms: C_17  and  N_18 
REMARK    7  A    between atoms: C_23  and  C_24 
ROOT
HETATM    1  C   UNL     1      -5.885   2.172 -30.788  1.00  0.00     0.259 C 
HETATM    2  N   UNL     1      -6.875   1.496 -31.456  1.00  0.00    -0.320 N 
HETATM    3  O   UNL     1      -6.050   2.362 -29.581  1.00  0.00    -0.267 OA
HETATM    4  H   UNL     1      -7.757   1.525 -30.952  1.00  0.00     0.169 HD
ENDROOT
BRANCH   2   5
HETATM    5  C   UNL     1      -6.928   0.794 -32.674  1.00  0.00     0.069 A 
HETATM    6  C   UNL     1      -7.727   1.363 -33.690  1.00  0.00     0.095 A 
HETATM    7  C   UNL     1      -7.843   0.729 -34.927  1.00  0.00     0.040 A 
HETATM    8  C   UNL     1      -7.182  -0.480 -35.149  1.00  0.00     0.020 A 
HETATM    9  C   UNL     1      -6.425  -1.072 -34.130  1.00  0.00     0.034 A 
HETATM   10  C   UNL     1      -6.292  -0.432 -32.890  1.00  0.00     0.049 A 
BRANCH   6  11
HETATM   11  O   UNL     1      -8.355   2.542 -33.365  1.00  0.00    -0.354 OA
HETATM   12  C   UNL     1      -9.493   2.881 -34.152  1.00  0.00     0.210 C 
ENDBRANCH   6  11
BRANCH   9  13
HETATM   13  C   UNL     1      -5.798  -2.388 -34.416  1.00  0.00     0.251 C 
HETATM   14  N   UNL     1      -6.656  -3.406 -34.782  1.00  0.00    -0.361 N 
HETATM   15  C   UNL     1      -6.129  -4.667 -35.244  1.00  0.00     0.149 C 
HETATM   16  H   UNL     1      -7.611  -3.180 -35.021  1.00  0.00     0.162 HD
HETATM   17  O   UNL     1      -4.578  -2.508 -34.380  1.00  0.00    -0.268 OA
ENDBRANCH   9  13
ENDBRANCH   2   5
BRANCH   1  18
HETATM   18  C   UNL     1      -4.770   2.768 -31.518  1.00  0.00     0.076 A 
HETATM   19  C   UNL     1      -3.576   2.141 -31.941  1.00  0.00     0.158 A 
HETATM   20  N   UNL     1      -2.792   2.937 -32.661  1.00  0.00    -0.183 NA
HETATM   21  N   UNL     1      -3.490   4.089 -32.754  1.00  0.00    -0.268 N 
HETATM   22  C   UNL     1      -4.723   4.014 -32.148  1.00  0.00     0.052 A 
BRANCH  21  23
HETATM   23  C   UNL     1      -2.814   5.224 -33.373  1.00  0.00     0.106 C 
HETATM   24  C   UNL     1      -3.071   5.248 -34.881  1.00  0.00     0.034 C 
BRANCH  23  25
HETATM   25  C   UNL     1      -1.301   5.261 -33.069  1.00  0.00     0.022 C 
HETATM   26  C   UNL     1      -0.915   6.428 -32.167  1.00  0.00     0.007 C 
ENDBRANCH  23  25
ENDBRANCH  21  23
BRANCH  22  27
HETATM   27  C   UNL     1      -5.905   4.987 -32.151  1.00  0.00     0.038 A 
HETATM   28  C   UNL     1      -5.938   6.399 -32.668  1.00  0.00     0.011 A 
HETATM   29  C   UNL     1      -6.492   5.299 -33.512  1.00  0.00     0.011 A 
ENDBRANCH  22  27
ENDBRANCH   1  18
TORSDOF 7
ENDMDL
MODEL 3
REMARK VINA RESULT:      -7.4      2.092      4.721
REMARK  7 active torsions:
REMARK  status: ('A' for Active; 'I' for Inactive)
REMARK    1  A    between atoms: C_2  and  C_3 
REMARK    2  A    between atoms: C_3  and  N_4 
REMARK    3  A    between atoms: C_7  and  C_8 
REMARK       I    between atoms: C_8  and  N_9 
REMARK    4  A    between atoms: N_9  and  C_10 
REMARK    5  A    between atoms: C_11  and  O_12 
REMARK    6  A    between atoms: C_16  and  C_17 
REMARK       I    between atoms: C_17  and  N_18 
REMARK    7  A    between atoms: C_23  and  C_24 
ROOT
HETATM    1  C   UNL     1      -3.343  -0.124 -31.336  1.00  0.00     0.259 C 
HETATM    2  N   UNL     1      -3.684  -1.244 -32.054  1.00  0.00    -0.320 N 
HETATM    3  O   UNL     1      -2.182  -0.050 -30.929  1.00  0.00    -0.267 OA
HETATM    4  H   UNL     1      -3.040  -2.012 -31.882  1.00  0.00     0.169 HD
ENDROOT
BRANCH   2   5
HETATM    5  C   UNL     1      -4.721  -1.550 -32.952  1.00  0.00     0.069 A 
HETATM    6  C   UNL     1      -4.583  -2.752 -33.682  1.00  0.00     0.095 A 
HETATM    7  C   UNL     1      -5.561  -3.128 -34.602  1.00  0.00     0.040 A 
HETATM    8  C   UNL     1      -6.668  -2.305 -34.809  1.00  0.00     0.020 A 
HETATM    9  C   UNL     1      -6.789  -1.091 -34.122  1.00  0.00     0.034 A 
HETATM   10  C   UNL     1      -5.817  -0.714 -33.185  1.00  0.00     0.049 A 
BRANCH   6  11
HETATM   11  O   UNL     1      -3.446  -3.480 -33.421  1.00  0.00    -0.354 OA
HETATM   12  C   UNL     1      -3.555  -4.889 -33.594  1.00  0.00     0.210 C 
ENDBRANCH   6  11
BRANCH   9  13
HETATM   13  C   UNL     1      -7.963  -0.236 -34.438  1.00  0.00     0.251 C 
HETATM   14  N   UNL     1      -8.871  -0.047 -33.415  1.00  0.00    -0.361 N 
HETATM   15  C   UNL     1      -9.948   0.901 -33.569  1.00  0.00     0.149 C 
HETATM   16  H   UNL     1      -8.618  -0.323 -32.477  1.00  0.00     0.162 HD
HETATM   17  O   UNL     1      -8.052   0.305 -35.535  1.00  0.00    -0.268 OA
ENDBRANCH   9  13
ENDBRANCH   2   5
BRANCH   1  18
HETATM   18  C   UNL     1      -4.362   0.846 -30.948  1.00  0.00     0.076 A 
HETATM   19  C   UNL     1      -5.310   0.739 -29.905  1.00  0.00     0.158 A 
HETATM   20  N   UNL     1      -6.049   1.833 -29.752  1.00  0.00    -0.183 NA
HETATM   21  N   UNL     1      -5.559   2.691 -30.674  1.00  0.00    -0.268 N 
HETATM   22  C   UNL     1      -4.490   2.172 -31.368  1.00  0.00     0.052 A 
BRANCH  21  23
HETATM   23  C   UNL     1      -6.275   3.950 -30.853  1.00  0.00     0.106 C 
HETATM   24  C   UNL     1      -6.561   4.604 -29.500  1.00  0.00     0.034 C 
BRANCH  23  25
HETATM   25  C   UNL     1      -7.572   3.792 -31.676  1.00  0.00     0.022 C 
HETATM   26  C   UNL     1      -7.299   3.601 -33.164  1.00  0.00     0.007 C 
ENDBRANCH  23  25
ENDBRANCH  21  23
BRANCH  22  27
HETATM   27  C   UNL     1      -3.524   2.826 -32.360  1.00  0.00     0.038 A 
HETATM   28  C   UNL     1      -3.550   4.236 -32.882  1.00  0.00     0.011 A 
HETATM   29  C   UNL     1      -2.607   3.882 -31.780  1.00  0.00     0.011 A 
ENDBRANCH  22  27
ENDBRANCH   1  18
TORSDOF 7
ENDMDL
MODEL 4
REMARK VINA RESULT:      -7.0      2.242      6.121
REMARK  7 active torsions:
REMARK  status: ('A' for Active; 'I' for Inactive)
REMARK    1  A    between atoms: C_2  and  C_3 
REMARK    2  A    between atoms: C_3  and  N_4 
REMARK    3  A    between atoms: C_7  and  C_8 
REMARK       I    between atoms: C_8  and  N_9 
REMARK    4  A    between atoms: N_9  and  C_10 
REMARK    5  A    between atoms: C_11  and  O_12 
REMARK    6  A    between atoms: C_16  and  C_17 
REMARK       I    between atoms: C_17  and  N_18 
REMARK    7  A    between atoms: C_23  and  C_24 
ROOT
HETATM    1  C   UNL     1      -8.762   2.188 -33.752  1.00  0.00     0.259 C 
HETATM    2  N   UNL     1      -8.349   3.246 -32.980  1.00  0.00    -0.320 N 
HETATM    3  O   UNL     1      -9.958   2.139 -34.044  1.00  0.00    -0.267 OA
HETATM    4  H   UNL     1      -9.124   3.671 -32.478  1.00  0.00     0.169 HD
ENDROOT
BRANCH   2   5
HETATM    5  C   UNL     1      -7.102   3.848 -32.734  1.00  0.00     0.069 A 
HETATM    6  C   UNL     1      -6.853   4.250 -31.403  1.00  0.00     0.095 A 
HETATM    7  C   UNL     1      -5.645   4.864 -31.072  1.00  0.00     0.040 A 
HETATM    8  C   UNL     1      -4.692   5.093 -32.064  1.00  0.00     0.020 A 
HETATM    9  C   UNL     1      -4.951   4.738 -33.393  1.00  0.00     0.034 A 
HETATM   10  C   UNL     1      -6.157   4.107 -33.731  1.00  0.00     0.049 A 
BRANCH   6  11
HETATM   11  O   UNL     1      -7.865   4.000 -30.506  1.00  0.00    -0.354 OA
HETATM   12  C   UNL     1      -8.301   5.113 -29.732  1.00  0.00     0.210 C 
ENDBRANCH   6  11
BRANCH   9  13
HETATM   13  C   UNL     1      -3.915   5.066 -34.407  1.00  0.00     0.251 C 
HETATM   14  N   UNL     1      -2.610   5.098 -33.958  1.00  0.00    -0.361 N 
HETATM   15  C   UNL     1      -1.524   5.238 -34.897  1.00  0.00     0.149 C 
HETATM   16  H   UNL     1      -2.397   4.723 -33.044  1.00  0.00     0.162 HD
HETATM   17  O   UNL     1      -4.235   5.231 -35.580  1.00  0.00    -0.268 OA
ENDBRANCH   9  13
ENDBRANCH   2   5
BRANCH   1  18
HETATM   18  C   UNL     1      -7.844   1.100 -34.070  1.00  0.00     0.076 A 
HETATM   19  C   UNL     1      -7.286   0.774 -35.328  1.00  0.00     0.158 A 
HETATM   20  N   UNL     1      -6.415  -0.228 -35.273  1.00  0.00    -0.183 NA
HETATM   21  N   UNL     1      -6.361  -0.544 -33.961  1.00  0.00    -0.268 N 
HETATM   22  C   UNL     1      -7.145   0.278 -33.183  1.00  0.00     0.052 A 
BRANCH  21  23
HETATM   23  C   UNL     1      -5.587  -1.726 -33.596  1.00  0.00     0.106 C 
HETATM   24  C   UNL     1      -4.156  -1.338 -33.218  1.00  0.00     0.034 C 
BRANCH  23  25
HETATM   25  C   UNL     1      -5.594  -2.812 -34.694  1.00  0.00     0.022 C 
HETATM   26  C   UNL     1      -6.814  -3.722 -34.608  1.00  0.00     0.007 C 
ENDBRANCH  23  25
ENDBRANCH  21  23
BRANCH  22  27
HETATM   27  C   UNL     1      -7.261   0.410 -31.662  1.00  0.00     0.038 A 
HETATM   28  C   UNL     1      -6.584  -0.422 -30.608  1.00  0.00     0.011 A 
HETATM   29  C   UNL     1      -6.022   0.918 -30.954  1.00  0.00     0.011 A 
ENDBRANCH  22  27
ENDBRANCH   1  18
TORSDOF 7
ENDMDL
MODEL 5
REMARK VINA RESULT:      -6.9      3.521      8.023
REMARK  7 active torsions:
REMARK  status: ('A' for Active; 'I' for Inactive)
REMARK    1  A    between atoms: C_2  and  C_3 
REMARK    2  A    between atoms: C_3  and  N_4 
REMARK    3  A    between atoms: C_7  and  C_8 
REMARK       I    between atoms: C_8  and  N_9 
REMARK    4  A    between atoms: N_9  and  C_10 
REMARK    5  A    between atoms: C_11  and  O_12 
REMARK    6  A    between atoms: C_16  and  C_17 
REMARK       I    between atoms: C_17  and  N_18 
REMARK    7  A    between atoms: C_23  and  C_24 
ROOT
HETATM    1  C   UNL     1      -4.384   5.601 -32.932  1.00  0.00     0.259 C 
HETATM    2  N   UNL     1      -3.681   6.619 -32.337  1.00  0.00    -0.320 N 
HETATM    3  O   UNL     1      -5.291   5.920 -33.702  1.00  0.00    -0.267 OA
HETATM    4  H   UNL     1      -4.199   7.493 -32.350  1.00  0.00     0.169 HD
ENDROOT
BRANCH   2   5
HETATM    5  C   UNL     1      -2.422   6.704 -31.716  1.00  0.00     0.069 A 
HETATM    6  C   UNL     1      -1.311   6.867 -32.573  1.00  0.00     0.095 A 
HETATM    7  C   UNL     1      -0.024   6.952 -32.043  1.00  0.00     0.040 A 
HETATM    8  C   UNL     1       0.163   6.857 -30.663  1.00  0.00     0.020 A 
HETATM    9  C   UNL     1      -0.930   6.650 -29.812  1.00  0.00     0.034 A 
HETATM   10  C   UNL     1      -2.228   6.579 -30.337  1.00  0.00     0.049 A 
BRANCH   6  11
HETATM   11  O   UNL     1      -1.598   6.927 -33.916  1.00  0.00    -0.354 OA
HETATM   12  C   UNL     1      -1.143   5.829 -34.701  1.00  0.00     0.210 C 
ENDBRANCH   6  11
BRANCH   9  13
HETATM   13  C   UNL     1      -0.651   6.498 -28.360  1.00  0.00     0.251 C 
HETATM   14  N   UNL     1      -1.712   6.727 -27.508  1.00  0.00    -0.361 N 
HETATM   15  C   UNL     1      -1.587   6.439 -26.100  1.00  0.00     0.149 C 
HETATM   16  H   UNL     1      -2.644   6.795 -27.893  1.00  0.00     0.162 HD
HETATM   17  O   UNL     1       0.456   6.126 -27.983  1.00  0.00    -0.268 OA
ENDBRANCH   9  13
ENDBRANCH   2   5
BRANCH   1  18
HETATM   18  C   UNL     1      -4.158   4.214 -32.536  1.00  0.00     0.076 A 
HETATM   19  C   UNL     1      -2.997   3.433 -32.736  1.00  0.00     0.158 A 
HETATM   20  N   UNL     1      -3.074   2.226 -32.184  1.00  0.00    -0.183 NA
HETATM   21  N   UNL     1      -4.280   2.221 -31.575  1.00  0.00    -0.268 N 
HETATM   22  C   UNL     1      -4.941   3.422 -31.692  1.00  0.00     0.052 A 
BRANCH  21  23
HETATM   23  C   UNL     1      -4.723   0.957 -30.995  1.00  0.00     0.106 C 
HETATM   24  C   UNL     1      -3.575  -0.054 -30.966  1.00  0.00     0.034 C 
BRANCH  23  25
HETATM   25  C   UNL     1      -5.960   0.369 -31.707  1.00  0.00     0.022 C 
HETATM   26  C   UNL     1      -5.616  -0.262 -33.051  1.00  0.00     0.007 C 
ENDBRANCH  23  25
ENDBRANCH  21  23
BRANCH  22  27
HETATM   27  C   UNL     1      -6.225   3.931 -31.032  1.00  0.00     0.038 A 
HETATM   28  C   UNL     1      -6.926   3.375 -29.823  1.00  0.00     0.011 A 
HETATM   29  C   UNL     1      -6.050   4.575 -29.672  1.00  0.00     0.011 A 
ENDBRANCH  22  27
ENDBRANCH   1  18
TORSDOF 7
ENDMDL
MODEL 6
REMARK VINA RESULT:      -6.9      2.143      6.249
REMARK  7 active torsions:
REMARK  status: ('A' for Active; 'I' for Inactive)
REMARK    1  A    between atoms: C_2  and  C_3 
REMARK    2  A    between atoms: C_3  and  N_4 
REMARK    3  A    between atoms: C_7  and  C_8 
REMARK       I    between atoms: C_8  and  N_9 
REMARK    4  A    between atoms: N_9  and  C_10 
REMARK    5  A    between atoms: C_11  and  O_12 
REMARK    6  A    between atoms: C_16  and  C_17 
REMARK       I    between atoms: C_17  and  N_18 
REMARK    7  A    between atoms: C_23  and  C_24 
ROOT
HETATM    1  C   UNL     1      -7.002   1.740 -31.516  1.00  0.00     0.259 C 
HETATM    2  N   UNL     1      -6.615   3.058 -31.526  1.00  0.00    -0.320 N 
HETATM    3  O   UNL     1      -8.117   1.487 -31.056  1.00  0.00    -0.267 OA
HETATM    4  H   UNL     1      -7.150   3.613 -30.864  1.00  0.00     0.169 HD
ENDROOT
BRANCH   2   5
HETATM    5  C   UNL     1      -5.646   3.786 -32.240  1.00  0.00     0.069 A 
HETATM    6  C   UNL     1      -6.044   4.292 -33.497  1.00  0.00     0.095 A 
HETATM    7  C   UNL     1      -5.143   5.018 -34.276  1.00  0.00     0.040 A 
HETATM    8  C   UNL     1      -3.843   5.227 -33.815  1.00  0.00     0.020 A 
HETATM    9  C   UNL     1      -3.429   4.689 -32.590  1.00  0.00     0.034 A 
HETATM   10  C   UNL     1      -4.334   3.971 -31.795  1.00  0.00     0.049 A 
BRANCH   6  11
HETATM   11  O   UNL     1      -7.338   4.013 -33.870  1.00  0.00    -0.354 OA
HETATM   12  C   UNL     1      -8.249   5.107 -33.830  1.00  0.00     0.210 C 
ENDBRANCH   6  11
BRANCH   9  13
HETATM   13  C   UNL     1      -2.014   4.899 -32.190  1.00  0.00     0.251 C 
HETATM   14  N   UNL     1      -1.782   5.086 -30.842  1.00  0.00    -0.361 N 
HETATM   15  C   UNL     1      -0.431   5.126 -30.337  1.00  0.00     0.149 C 
HETATM   16  H   UNL     1      -2.524   4.887 -30.185  1.00  0.00     0.162 HD
HETATM   17  O   UNL     1      -1.123   4.841 -33.031  1.00  0.00    -0.268 OA
ENDBRANCH   9  13
ENDBRANCH   2   5
BRANCH   1  18
HETATM   18  C   UNL     1      -6.062   0.688 -31.889  1.00  0.00     0.076 A 
HETATM   19  C   UNL     1      -4.942   0.227 -31.161  1.00  0.00     0.158 A 
HETATM   20  N   UNL     1      -4.332  -0.805 -31.734  1.00  0.00    -0.183 NA
HETATM   21  N   UNL     1      -5.078  -1.060 -32.830  1.00  0.00    -0.268 N 
HETATM   22  C   UNL     1      -6.177  -0.238 -32.928  1.00  0.00     0.052 A 
BRANCH  21  23
HETATM   23  C   UNL     1      -4.568  -2.064 -33.759  1.00  0.00     0.106 C 
HETATM   24  C   UNL     1      -5.721  -2.766 -34.479  1.00  0.00     0.034 C 
BRANCH  23  25
HETATM   25  C   UNL     1      -3.633  -3.089 -33.082  1.00  0.00     0.022 C 
HETATM   26  C   UNL     1      -3.656  -4.447 -33.774  1.00  0.00     0.007 C 
ENDBRANCH  23  25
ENDBRANCH  21  23
BRANCH  22  27
HETATM   27  C   UNL     1      -7.375  -0.272 -33.881  1.00  0.00     0.038 A 
HETATM   28  C   UNL     1      -8.140   0.893 -34.446  1.00  0.00     0.011 A 
HETATM   29  C   UNL     1      -7.106   0.220 -35.287  1.00  0.00     0.011 A 
ENDBRANCH  22  27
ENDBRANCH   1  18
TORSDOF 7
ENDMDL
MODEL 7
REMARK VINA RESULT:      -6.8      2.240      3.797
REMARK  7 active torsions:
REMARK  status: ('A' for Active; 'I' for Inactive)
REMARK    1  A    between atoms: C_2  and  C_3 
REMARK    2  A    between atoms: C_3  and  N_4 
REMARK    3  A    between atoms: C_7  and  C_8 
REMARK       I    between atoms: C_8  and  N_9 
REMARK    4  A    between atoms: N_9  and  C_10 
REMARK    5  A    between atoms: C_11  and  O_12 
REMARK    6  A    between atoms: C_16  and  C_17 
REMARK       I    between atoms: C_17  and  N_18 
REMARK    7  A    between atoms: C_23  and  C_24 
ROOT
HETATM    1  C   UNL     1      -6.960   4.526 -33.893  1.00  0.00     0.259 C 
HETATM    2  N   UNL     1      -7.332   3.221 -33.681  1.00  0.00    -0.320 N 
HETATM    3  O   UNL     1      -7.839   5.307 -34.263  1.00  0.00    -0.267 OA
HETATM    4  H   UNL     1      -8.197   2.992 -34.164  1.00  0.00     0.169 HD
ENDROOT
BRANCH   2   5
HETATM    5  C   UNL     1      -6.773   2.151 -32.959  1.00  0.00     0.069 A 
HETATM    6  C   UNL     1      -6.999   2.153 -31.564  1.00  0.00     0.095 A 
HETATM    7  C   UNL     1      -6.474   1.134 -30.770  1.00  0.00     0.040 A 
HETATM    8  C   UNL     1      -5.712   0.123 -31.356  1.00  0.00     0.020 A 
HETATM    9  C   UNL     1      -5.446   0.141 -32.731  1.00  0.00     0.034 A 
HETATM   10  C   UNL     1      -5.984   1.154 -33.538  1.00  0.00     0.049 A 
BRANCH   6  11
HETATM   11  O   UNL     1      -7.742   3.203 -31.082  1.00  0.00    -0.354 OA
HETATM   12  C   UNL     1      -7.559   3.518 -29.705  1.00  0.00     0.210 C 
ENDBRANCH   6  11
BRANCH   9  13
HETATM   13  C   UNL     1      -4.577  -0.934 -33.277  1.00  0.00     0.251 C 
HETATM   14  N   UNL     1      -5.223  -1.987 -33.893  1.00  0.00    -0.361 N 
HETATM   15  C   UNL     1      -4.464  -2.988 -34.602  1.00  0.00     0.149 C 
HETATM   16  H   UNL     1      -6.206  -1.898 -34.112  1.00  0.00     0.162 HD
HETATM   17  O   UNL     1      -3.357  -0.824 -33.221  1.00  0.00    -0.268 OA
ENDBRANCH   9  13
ENDBRANCH   2   5
BRANCH   1  18
HETATM   18  C   UNL     1      -5.555   4.916 -33.831  1.00  0.00     0.076 A 
HETATM   19  C   UNL     1      -4.590   4.852 -34.862  1.00  0.00     0.158 A 
HETATM   20  N   UNL     1      -3.414   5.362 -34.513  1.00  0.00    -0.183 NA
HETATM   21  N   UNL     1      -3.610   5.808 -33.254  1.00  0.00    -0.268 N 
HETATM   22  C   UNL     1      -4.906   5.633 -32.823  1.00  0.00     0.052 A 
BRANCH  21  23
HETATM   23  C   UNL     1      -2.438   6.298 -32.534  1.00  0.00     0.106 C 
HETATM   24  C   UNL     1      -1.552   7.136 -33.457  1.00  0.00     0.034 C 
BRANCH  23  25
HETATM   25  C   UNL     1      -1.628   5.166 -31.866  1.00  0.00     0.022 C 
HETATM   26  C   UNL     1      -0.206   5.593 -31.518  1.00  0.00     0.007 C 
ENDBRANCH  23  25
ENDBRANCH  21  23
BRANCH  22  27
HETATM   27  C   UNL     1      -5.622   6.131 -31.566  1.00  0.00     0.038 A 
HETATM   28  C   UNL     1      -5.201   7.238 -30.639  1.00  0.00     0.011 A 
HETATM   29  C   UNL     1      -6.247   7.507 -31.671  1.00  0.00     0.011 A 
ENDBRANCH  22  27
ENDBRANCH   1  18
TORSDOF 7
ENDMDL
MODEL 8
REMARK VINA RESULT:      -6.8     15.552     18.233
REMARK  7 active torsions:
REMARK  status: ('A' for Active; 'I' for Inactive)
REMARK    1  A    between atoms: C_2  and  C_3 
REMARK    2  A    between atoms: C_3  and  N_4 
REMARK    3  A    between atoms: C_7  and  C_8 
REMARK       I    between atoms: C_8  and  N_9 
REMARK    4  A    between atoms: N_9  and  C_10 
REMARK    5  A    between atoms: C_11  and  O_12 
REMARK    6  A    between atoms: C_16  and  C_17 
REMARK       I    between atoms: C_17  and  N_18 
REMARK    7  A    between atoms: C_23  and  C_24 
ROOT
HETATM    1  C   UNL     1      -3.409 -12.769 -38.646  1.00  0.00     0.259 C 
HETATM    2  N   UNL     1      -2.403 -13.250 -39.447  1.00  0.00    -0.320 N 
HETATM    3  O   UNL     1      -3.244 -11.655 -38.146  1.00  0.00    -0.267 OA
HETATM    4  H   UNL     1      -1.520 -12.780 -39.266  1.00  0.00     0.169 HD
ENDROOT
BRANCH   2   5
HETATM    5  C   UNL     1      -2.335 -14.244 -40.439  1.00  0.00     0.069 A 
HETATM    6  C   UNL     1      -1.366 -15.254 -40.248  1.00  0.00     0.095 A 
HETATM    7  C   UNL     1      -1.223 -16.274 -41.188  1.00  0.00     0.040 A 
HETATM    8  C   UNL     1      -2.031 -16.284 -42.326  1.00  0.00     0.020 A 
HETATM    9  C   UNL     1      -2.963 -15.261 -42.543  1.00  0.00     0.034 A 
HETATM   10  C   UNL     1      -3.121 -14.241 -41.595  1.00  0.00     0.049 A 
BRANCH   6  11
HETATM   11  O   UNL     1      -0.605 -15.142 -39.108  1.00  0.00    -0.354 OA
HETATM   12  C   UNL     1       0.796 -14.979 -39.306  1.00  0.00     0.210 C 
ENDBRANCH   6  11
BRANCH   9  13
HETATM   13  C   UNL     1      -3.746 -15.302 -43.805  1.00  0.00     0.251 C 
HETATM   14  N   UNL     1      -3.994 -16.555 -44.329  1.00  0.00    -0.361 N 
HETATM   15  C   UNL     1      -4.887 -16.708 -45.452  1.00  0.00     0.149 C 
HETATM   16  H   UNL     1      -3.810 -17.369 -43.760  1.00  0.00     0.162 HD
HETATM   17  O   UNL     1      -4.186 -14.264 -44.289  1.00  0.00    -0.268 OA
ENDBRANCH   9  13
ENDBRANCH   2   5
BRANCH   1  18
HETATM   18  C   UNL     1      -4.542 -13.617 -38.289  1.00  0.00     0.076 A 
HETATM   19  C   UNL     1      -4.585 -14.647 -37.322  1.00  0.00     0.158 A 
HETATM   20  N   UNL     1      -5.793 -15.179 -37.174  1.00  0.00    -0.183 NA
HETATM   21  N   UNL     1      -6.571 -14.467 -38.019  1.00  0.00    -0.268 N 
HETATM   22  C   UNL     1      -5.881 -13.462 -38.658  1.00  0.00     0.052 A 
BRANCH  21  23
HETATM   23  C   UNL     1      -7.947 -14.920 -38.193  1.00  0.00     0.106 C 
HETATM   24  C   UNL     1      -8.095 -15.707 -39.496  1.00  0.00     0.034 C 
BRANCH  23  25
HETATM   25  C   UNL     1      -8.972 -13.768 -38.122  1.00  0.00     0.022 C 
HETATM   26  C   UNL     1      -9.885 -13.723 -39.343  1.00  0.00     0.007 C 
ENDBRANCH  23  25
ENDBRANCH  21  23
BRANCH  22  27
HETATM   27  C   UNL     1      -6.370 -12.317 -39.549  1.00  0.00     0.038 A 
HETATM   28  C   UNL     1      -5.653 -11.673 -40.703  1.00  0.00     0.011 A 
HETATM   29  C   UNL     1      -6.706 -12.696 -40.976  1.00  0.00     0.011 A 
ENDBRANCH  22  27
ENDBRANCH   1  18
TORSDOF 7
ENDMDL
MODEL 9
REMARK VINA RESULT:      -6.8      1.862      4.264
REMARK  7 active torsions:
REMARK  status: ('A' for Active; 'I' for Inactive)
REMARK    1  A    between atoms: C_2  and  C_3 
REMARK    2  A    between atoms: C_3  and  N_4 
REMARK    3  A    between atoms: C_7  and  C_8 
REMARK       I    between atoms: C_8  and  N_9 
REMARK    4  A    between atoms: N_9  and  C_10 
REMARK    5  A    between atoms: C_11  and  O_12 
REMARK    6  A    between atoms: C_16  and  C_17 
REMARK       I    between atoms: C_17  and  N_18 
REMARK    7  A    between atoms: C_23  and  C_24 
ROOT
HETATM    1  C   UNL     1      -5.727   0.792 -30.201  1.00  0.00     0.259 C 
HETATM    2  N   UNL     1      -6.949   0.502 -30.756  1.00  0.00    -0.320 N 
HETATM    3  O   UNL     1      -5.505   0.354 -29.071  1.00  0.00    -0.267 OA
HETATM    4  H   UNL     1      -7.632   0.246 -30.048  1.00  0.00     0.169 HD
ENDROOT
BRANCH   2   5
HETATM    5  C   UNL     1      -7.448   0.493 -32.071  1.00  0.00     0.069 A 
HETATM    6  C   UNL     1      -6.851  -0.428 -32.960  1.00  0.00     0.095 A 
HETATM    7  C   UNL     1      -7.279  -0.498 -34.286  1.00  0.00     0.040 A 
HETATM    8  C   UNL     1      -8.286   0.357 -34.733  1.00  0.00     0.020 A 
HETATM    9  C   UNL     1      -8.849   1.304 -33.869  1.00  0.00     0.034 A 
HETATM   10  C   UNL     1      -8.435   1.369 -32.531  1.00  0.00     0.049 A 
BRANCH   6  11
HETATM   11  O   UNL     1      -5.853  -1.210 -32.428  1.00  0.00    -0.354 OA
HETATM   12  C   UNL     1      -4.832  -1.620 -33.333  1.00  0.00     0.210 C 
ENDBRANCH   6  11
BRANCH   9  13
HETATM   13  C   UNL     1      -9.874   2.223 -34.429  1.00  0.00     0.251 C 
HETATM   14  N   UNL     1     -11.039   1.635 -34.881  1.00  0.00    -0.361 N 
HETATM   15  C   UNL     1     -12.156   2.455 -35.281  1.00  0.00     0.149 C 
HETATM   16  H   UNL     1     -11.223   0.670 -34.647  1.00  0.00     0.162 HD
HETATM   17  O   UNL     1      -9.685   3.435 -34.414  1.00  0.00    -0.268 OA
ENDBRANCH   9  13
ENDBRANCH   2   5
BRANCH   1  18
HETATM   18  C   UNL     1      -4.809   1.710 -30.869  1.00  0.00     0.076 A 
HETATM   19  C   UNL     1      -3.614   1.396 -31.556  1.00  0.00     0.158 A 
HETATM   20  N   UNL     1      -3.045   2.451 -32.128  1.00  0.00    -0.183 NA
HETATM   21  N   UNL     1      -3.891   3.469 -31.857  1.00  0.00    -0.268 N 
HETATM   22  C   UNL     1      -5.009   3.061 -31.166  1.00  0.00     0.052 A 
BRANCH  21  23
HETATM   23  C   UNL     1      -3.457   4.810 -32.236  1.00  0.00     0.106 C 
HETATM   24  C   UNL     1      -4.248   5.309 -33.446  1.00  0.00     0.034 C 
BRANCH  23  25
HETATM   25  C   UNL     1      -1.937   4.899 -32.492  1.00  0.00     0.022 C 
HETATM   26  C   UNL     1      -1.607   5.217 -33.946  1.00  0.00     0.007 C 
ENDBRANCH  23  25
ENDBRANCH  21  23
BRANCH  22  27
HETATM   27  C   UNL     1      -6.294   3.809 -30.803  1.00  0.00     0.038 A 
HETATM   28  C   UNL     1      -7.010   3.828 -29.481  1.00  0.00     0.011 A 
HETATM   29  C   UNL     1      -6.125   4.973 -29.849  1.00  0.00     0.011 A 
ENDBRANCH  22  27
ENDBRANCH   1  18
TORSDOF 7
ENDMDL
MODEL 10
REMARK VINA RESULT:      -6.7      4.154      6.522
REMARK  7 active torsions:
REMARK  status: ('A' for Active; 'I' for Inactive)
REMARK    1  A    between atoms: C_2  and  C_3 
REMARK    2  A    between atoms: C_3  and  N_4 
REMARK    3  A    between atoms: C_7  and  C_8 
REMARK       I    between atoms: C_8  and  N_9 
REMARK    4  A    between atoms: N_9  and  C_10 
REMARK    5  A    between atoms: C_11  and  O_12 
REMARK    6  A    between atoms: C_16  and  C_17 
REMARK       I    between atoms: C_17  and  N_18 
REMARK    7  A    between atoms: C_23  and  C_24 
ROOT
HETATM    1  C   UNL     1      -2.348   7.952 -31.724  1.00  0.00     0.259 C 
HETATM    2  N   UNL     1      -3.004   7.033 -32.505  1.00  0.00    -0.320 N 
HETATM    3  O   UNL     1      -1.995   9.001 -32.267  1.00  0.00    -0.267 OA
HETATM    4  H   UNL     1      -2.830   7.187 -33.495  1.00  0.00     0.169 HD
ENDROOT
BRANCH   2   5
HETATM    5  C   UNL     1      -3.844   5.939 -32.230  1.00  0.00     0.069 A 
HETATM    6  C   UNL     1      -5.178   6.245 -31.884  1.00  0.00     0.095 A 
HETATM    7  C   UNL     1      -6.077   5.221 -31.587  1.00  0.00     0.040 A 
HETATM    8  C   UNL     1      -5.647   3.894 -31.616  1.00  0.00     0.020 A 
HETATM    9  C   UNL     1      -4.314   3.586 -31.913  1.00  0.00     0.034 A 
HETATM   10  C   UNL     1      -3.409   4.610 -32.228  1.00  0.00     0.049 A 
BRANCH   6  11
HETATM   11  O   UNL     1      -5.497   7.582 -31.862  1.00  0.00    -0.354 OA
HETATM   12  C   UNL     1      -6.885   7.893 -31.790  1.00  0.00     0.210 C 
ENDBRANCH   6  11
BRANCH   9  13
HETATM   13  C   UNL     1      -3.911   2.157 -31.867  1.00  0.00     0.251 C 
HETATM   14  N   UNL     1      -4.666   1.285 -32.626  1.00  0.00    -0.361 N 
HETATM   15  C   UNL     1      -4.251  -0.088 -32.781  1.00  0.00     0.149 C 
HETATM   16  H   UNL     1      -5.312   1.661 -33.306  1.00  0.00     0.162 HD
HETATM   17  O   UNL     1      -2.920   1.818 -31.229  1.00  0.00    -0.268 OA
ENDBRANCH   9  13
ENDBRANCH   2   5
BRANCH   1  18
HETATM   18  C   UNL     1      -1.956   7.619 -30.358  1.00  0.00     0.076 A 
HETATM   19  C   UNL     1      -2.736   7.717 -29.183  1.00  0.00     0.158 A 
HETATM   20  N   UNL     1      -2.116   7.256 -28.102  1.00  0.00    -0.183 NA
HETATM   21  N   UNL     1      -0.931   6.807 -28.569  1.00  0.00    -0.268 N 
HETATM   22  C   UNL     1      -0.816   6.932 -29.934  1.00  0.00     0.052 A 
BRANCH  21  23
HETATM   23  C   UNL     1       0.047   6.368 -27.579  1.00  0.00     0.106 C 
HETATM   24  C   UNL     1      -0.632   6.093 -26.236  1.00  0.00     0.034 C 
BRANCH  23  25
HETATM   25  C   UNL     1       1.221   7.358 -27.413  1.00  0.00     0.022 C 
HETATM   26  C   UNL     1       0.937   8.430 -26.367  1.00  0.00     0.007 C 
ENDBRANCH  23  25
ENDBRANCH  21  23
BRANCH  22  27
HETATM   27  C   UNL     1       0.247   6.411 -30.904  1.00  0.00     0.038 A 
HETATM   28  C   UNL     1       1.130   5.203 -30.747  1.00  0.00     0.011 A 
HETATM   29  C   UNL     1      -0.089   5.111 -31.605  1.00  0.00     0.011 A 
ENDBRANCH  22  27
ENDBRANCH   1  18
TORSDOF 7
ENDMDL
