MODEL 1
REMARK VINA RESULT:      -8.8      0.000      0.000
REMARK  6 active torsions:
REMARK  status: ('A' for Active; 'I' for Inactive)
REMARK    1  A    between atoms: O_2  and  C_3 
REMARK    2  A    between atoms: C_4  and  C_5 
REMARK    3  A    between atoms: C_5  and  N_6 
REMARK    4  A    between atoms: N_6  and  C_7 
REMARK    5  A    between atoms: C_9  and  N_10 
REMARK    6  A    between atoms: N_10  and  C_11 
ROOT
HETATM    1  C   UNL     1      -7.291   0.395 -32.265  1.00  0.00     0.135 A 
HETATM    2  N   UNL     1      -8.441  -0.065 -32.790  1.00  0.00    -0.052 NA
HETATM    3  C   UNL     1      -9.587   0.555 -32.459  1.00  0.00     0.702 A 
HETATM    4  N   UNL     1      -9.613   1.588 -31.621  1.00  0.00    -0.189 N 
HETATM    5  H   UNL     1     -10.507   2.022 -31.441  1.00  0.00     0.184 HD
HETATM    6  C   UNL     1      -8.496   2.083 -31.074  1.00  0.00     0.062 A 
HETATM    7  C   UNL     1      -7.256   1.503 -31.395  1.00  0.00     0.032 A 
HETATM    8  C   UNL     1      -8.577   3.190 -30.213  1.00  0.00     0.031 A 
HETATM    9  C   UNL     1      -7.420   3.744 -29.670  1.00  0.00     0.002 A 
HETATM   10  C   UNL     1      -6.179   3.209 -29.999  1.00  0.00     0.001 A 
HETATM   11  C   UNL     1      -6.094   2.111 -30.857  1.00  0.00     0.017 A 
ENDROOT
BRANCH   1  12
HETATM   12  N   UNL     1      -6.164  -0.257 -32.739  1.00  0.00    -0.272 NA
HETATM   13  H   UNL     1      -5.368   0.352 -32.553  1.00  0.00     0.129 HD
BRANCH  12  14
HETATM   14  C   UNL     1      -6.128  -0.668 -34.149  1.00  0.00     0.135 C 
BRANCH  14  15
HETATM   15  C   UNL     1      -5.814  -2.146 -34.296  1.00  0.00    -0.012 A 
HETATM   16  C   UNL     1      -4.563  -2.633 -33.864  1.00  0.00     0.075 A 
HETATM   17  C   UNL     1      -4.260  -3.993 -34.000  1.00  0.00     0.037 A 
HETATM   18  C   UNL     1      -5.191  -4.876 -34.548  1.00  0.00     0.003 A 
HETATM   19  C   UNL     1      -6.434  -4.410 -34.962  1.00  0.00     0.001 A 
HETATM   20  C   UNL     1      -6.744  -3.057 -34.833  1.00  0.00     0.011 A 
BRANCH  16  21
HETATM   21  O   UNL     1      -3.711  -1.696 -33.335  1.00  0.00    -0.355 OA
HETATM   22  C   UNL     1      -3.155  -1.977 -32.054  1.00  0.00     0.210 C 
ENDBRANCH  16  21
ENDBRANCH  14  15
ENDBRANCH  12  14
ENDBRANCH   1  12
BRANCH   3  23
HETATM   23  N   UNL     1     -10.787   0.174 -33.018  1.00  0.00    -0.220 N 
HETATM   24  H   UNL     1     -10.861  -0.678 -33.554  1.00  0.00     0.178 HD
BRANCH  23  25
HETATM   25  C   UNL     1     -11.774   1.195 -33.356  1.00  0.00     0.099 C 
HETATM   26  C   UNL     1     -11.453   1.823 -34.713  1.00  0.00     0.026 C 
HETATM   27  C   UNL     1     -12.813   2.251 -35.234  1.00  0.00     0.002 C 
HETATM   28  C   UNL     1     -13.711   1.083 -34.860  1.00  0.00     0.002 C 
HETATM   29  C   UNL     1     -13.164   0.563 -33.532  1.00  0.00     0.026 C 
ENDBRANCH  23  25
ENDBRANCH   3  23
TORSDOF 6
ENDMDL
MODEL 2
REMARK VINA RESULT:      -8.7      2.169      5.864
REMARK  6 active torsions:
REMARK  status: ('A' for Active; 'I' for Inactive)
REMARK    1  A    between atoms: O_2  and  C_3 
REMARK    2  A    between atoms: C_4  and  C_5 
REMARK    3  A    between atoms: C_5  and  N_6 
REMARK    4  A    between atoms: N_6  and  C_7 
REMARK    5  A    between atoms: C_9  and  N_10 
REMARK    6  A    between atoms: N_10  and  C_11 
ROOT
HETATM    1  C   UNL     1      -4.360  -0.943 -33.546  1.00  0.00     0.135 A 
HETATM    2  N   UNL     1      -5.287  -0.053 -33.943  1.00  0.00    -0.052 NA
HETATM    3  C   UNL     1      -6.363  -0.506 -34.609  1.00  0.00     0.702 A 
HETATM    4  N   UNL     1      -6.523  -1.795 -34.897  1.00  0.00    -0.189 N 
HETATM    5  H   UNL     1      -7.370  -2.065 -35.375  1.00  0.00     0.184 HD
HETATM    6  C   UNL     1      -5.630  -2.719 -34.522  1.00  0.00     0.062 A 
HETATM    7  C   UNL     1      -4.491  -2.323 -33.797  1.00  0.00     0.032 A 
HETATM    8  C   UNL     1      -5.857  -4.070 -34.832  1.00  0.00     0.031 A 
HETATM    9  C   UNL     1      -4.960  -5.049 -34.411  1.00  0.00     0.002 A 
HETATM   10  C   UNL     1      -3.844  -4.686 -33.665  1.00  0.00     0.001 A 
HETATM   11  C   UNL     1      -3.615  -3.344 -33.351  1.00  0.00     0.017 A 
ENDROOT
BRANCH   1  12
HETATM   12  N   UNL     1      -3.340  -0.384 -32.792  1.00  0.00    -0.272 NA
HETATM   13  H   UNL     1      -2.487  -0.894 -33.022  1.00  0.00     0.129 HD
BRANCH  12  14
HETATM   14  C   UNL     1      -3.487  -0.336 -31.331  1.00  0.00     0.135 C 
BRANCH  14  15
HETATM   15  C   UNL     1      -4.485   0.724 -30.901  1.00  0.00    -0.012 A 
HETATM   16  C   UNL     1      -4.166   2.087 -31.079  1.00  0.00     0.075 A 
HETATM   17  C   UNL     1      -5.075   3.073 -30.679  1.00  0.00     0.037 A 
HETATM   18  C   UNL     1      -6.304   2.720 -30.120  1.00  0.00     0.003 A 
HETATM   19  C   UNL     1      -6.637   1.380 -29.957  1.00  0.00     0.001 A 
HETATM   20  C   UNL     1      -5.736   0.391 -30.348  1.00  0.00     0.011 A 
BRANCH  16  21
HETATM   21  O   UNL     1      -2.939   2.342 -31.639  1.00  0.00    -0.355 OA
HETATM   22  C   UNL     1      -2.842   3.477 -32.494  1.00  0.00     0.210 C 
ENDBRANCH  16  21
ENDBRANCH  14  15
ENDBRANCH  12  14
ENDBRANCH   1  12
BRANCH   3  23
HETATM   23  N   UNL     1      -7.379   0.347 -34.981  1.00  0.00    -0.220 N 
HETATM   24  H   UNL     1      -7.316   0.887 -35.831  1.00  0.00     0.178 HD
BRANCH  23  25
HETATM   25  C   UNL     1      -8.238   0.928 -33.953  1.00  0.00     0.099 C 
HETATM   26  C   UNL     1      -9.612   1.269 -34.531  1.00  0.00     0.026 C 
HETATM   27  C   UNL     1     -10.537   1.149 -33.334  1.00  0.00     0.002 C 
HETATM   28  C   UNL     1     -10.031  -0.099 -32.628  1.00  0.00     0.002 C 
HETATM   29  C   UNL     1      -8.518  -0.099 -32.844  1.00  0.00     0.026 C 
ENDBRANCH  23  25
ENDBRANCH   3  23
TORSDOF 6
ENDMDL
MODEL 3
REMARK VINA RESULT:      -8.5      3.169      6.076
REMARK  6 active torsions:
REMARK  status: ('A' for Active; 'I' for Inactive)
REMARK    1  A    between atoms: O_2  and  C_3 
REMARK    2  A    between atoms: C_4  and  C_5 
REMARK    3  A    between atoms: C_5  and  N_6 
REMARK    4  A    between atoms: N_6  and  C_7 
REMARK    5  A    between atoms: C_9  and  N_10 
REMARK    6  A    between atoms: N_10  and  C_11 
ROOT
HETATM    1  C   UNL     1      -4.583   0.538 -31.784  1.00  0.00     0.135 A 
HETATM    2  N   UNL     1      -3.524   1.358 -31.669  1.00  0.00    -0.052 NA
HETATM    3  C   UNL     1      -3.744   2.645 -31.347  1.00  0.00     0.702 A 
HETATM    4  N   UNL     1      -4.971   3.125 -31.160  1.00  0.00    -0.189 N 
HETATM    5  H   UNL     1      -5.058   4.094 -30.892  1.00  0.00     0.184 HD
HETATM    6  C   UNL     1      -6.057   2.348 -31.261  1.00  0.00     0.062 A 
HETATM    7  C   UNL     1      -5.903   0.984 -31.568  1.00  0.00     0.032 A 
HETATM    8  C   UNL     1      -7.328   2.900 -31.032  1.00  0.00     0.031 A 
HETATM    9  C   UNL     1      -8.464   2.096 -31.091  1.00  0.00     0.002 A 
HETATM   10  C   UNL     1      -8.335   0.738 -31.360  1.00  0.00     0.001 A 
HETATM   11  C   UNL     1      -7.073   0.184 -31.586  1.00  0.00     0.017 A 
ENDROOT
BRANCH   1  12
HETATM   12  N   UNL     1      -4.240  -0.782 -32.030  1.00  0.00    -0.272 NA
HETATM   13  H   UNL     1      -3.498  -1.023 -31.373  1.00  0.00     0.129 HD
BRANCH  12  14
HETATM   14  C   UNL     1      -3.815  -1.159 -33.385  1.00  0.00     0.135 C 
BRANCH  14  15
HETATM   15  C   UNL     1      -4.611  -2.338 -33.916  1.00  0.00    -0.012 A 
HETATM   16  C   UNL     1      -5.849  -2.106 -34.551  1.00  0.00     0.075 A 
HETATM   17  C   UNL     1      -6.595  -3.187 -35.037  1.00  0.00     0.037 A 
HETATM   18  C   UNL     1      -6.116  -4.492 -34.914  1.00  0.00     0.003 A 
HETATM   19  C   UNL     1      -4.889  -4.730 -34.305  1.00  0.00     0.001 A 
HETATM   20  C   UNL     1      -4.141  -3.661 -33.814  1.00  0.00     0.011 A 
BRANCH  16  21
HETATM   21  O   UNL     1      -6.240  -0.793 -34.631  1.00  0.00    -0.355 OA
HETATM   22  C   UNL     1      -7.526  -0.534 -35.187  1.00  0.00     0.210 C 
ENDBRANCH  16  21
ENDBRANCH  14  15
ENDBRANCH  12  14
ENDBRANCH   1  12
BRANCH   3  23
HETATM   23  N   UNL     1      -2.696   3.517 -31.147  1.00  0.00    -0.220 N 
HETATM   24  H   UNL     1      -2.225   3.563 -30.255  1.00  0.00     0.178 HD
BRANCH  23  25
HETATM   25  C   UNL     1      -2.622   4.739 -31.940  1.00  0.00     0.099 C 
HETATM   26  C   UNL     1      -1.271   5.428 -31.742  1.00  0.00     0.026 C 
HETATM   27  C   UNL     1      -1.055   6.164 -33.052  1.00  0.00     0.002 C 
HETATM   28  C   UNL     1      -1.524   5.162 -34.094  1.00  0.00     0.002 C 
HETATM   29  C   UNL     1      -2.684   4.413 -33.440  1.00  0.00     0.026 C 
ENDBRANCH  23  25
ENDBRANCH   3  23
TORSDOF 6
ENDMDL
MODEL 4
REMARK VINA RESULT:      -8.2      2.279      5.138
REMARK  6 active torsions:
REMARK  status: ('A' for Active; 'I' for Inactive)
REMARK    1  A    between atoms: O_2  and  C_3 
REMARK    2  A    between atoms: C_4  and  C_5 
REMARK    3  A    between atoms: C_5  and  N_6 
REMARK    4  A    between atoms: N_6  and  C_7 
REMARK    5  A    between atoms: C_9  and  N_10 
REMARK    6  A    between atoms: N_10  and  C_11 
ROOT
HETATM    1  C   UNL     1      -7.981   1.060 -32.240  1.00  0.00     0.135 A 
HETATM    2  N   UNL     1      -9.048   1.675 -32.778  1.00  0.00    -0.052 NA
HETATM    3  C   UNL     1      -9.382   1.383 -34.047  1.00  0.00     0.702 A 
HETATM    4  N   UNL     1      -8.678   0.523 -34.780  1.00  0.00    -0.189 N 
HETATM    5  H   UNL     1      -9.005   0.331 -35.716  1.00  0.00     0.184 HD
HETATM    6  C   UNL     1      -7.609  -0.115 -34.289  1.00  0.00     0.062 A 
HETATM    7  C   UNL     1      -7.217   0.120 -32.959  1.00  0.00     0.032 A 
HETATM    8  C   UNL     1      -6.915  -1.030 -35.098  1.00  0.00     0.031 A 
HETATM    9  C   UNL     1      -5.827  -1.735 -34.588  1.00  0.00     0.002 A 
HETATM   10  C   UNL     1      -5.440  -1.544 -33.266  1.00  0.00     0.001 A 
HETATM   11  C   UNL     1      -6.129  -0.638 -32.457  1.00  0.00     0.017 A 
ENDROOT
BRANCH   1  12
HETATM   12  N   UNL     1      -7.779   1.366 -30.903  1.00  0.00    -0.272 NA
HETATM   13  H   UNL     1      -8.677   1.250 -30.433  1.00  0.00     0.129 HD
BRANCH  12  14
HETATM   14  C   UNL     1      -7.228   2.684 -30.556  1.00  0.00     0.135 C 
BRANCH  14  15
HETATM   15  C   UNL     1      -5.848   2.890 -31.154  1.00  0.00    -0.012 A 
HETATM   16  C   UNL     1      -5.663   3.883 -32.139  1.00  0.00     0.075 A 
HETATM   17  C   UNL     1      -4.396   4.078 -32.701  1.00  0.00     0.037 A 
HETATM   18  C   UNL     1      -3.308   3.308 -32.286  1.00  0.00     0.003 A 
HETATM   19  C   UNL     1      -3.476   2.339 -31.303  1.00  0.00     0.001 A 
HETATM   20  C   UNL     1      -4.734   2.135 -30.740  1.00  0.00     0.011 A 
BRANCH  16  21
HETATM   21  O   UNL     1      -6.784   4.595 -32.484  1.00  0.00    -0.355 OA
HETATM   22  C   UNL     1      -7.129   4.627 -33.866  1.00  0.00     0.210 C 
ENDBRANCH  16  21
ENDBRANCH  14  15
ENDBRANCH  12  14
ENDBRANCH   1  12
BRANCH   3  23
HETATM   23  N   UNL     1     -10.504   1.928 -34.630  1.00  0.00    -0.220 N 
HETATM   24  H   UNL     1     -10.429   2.700 -35.275  1.00  0.00     0.178 HD
BRANCH  23  25
HETATM   25  C   UNL     1     -11.786   1.835 -33.939  1.00  0.00     0.099 C 
HETATM   26  C   UNL     1     -12.933   2.197 -34.883  1.00  0.00     0.026 C 
HETATM   27  C   UNL     1     -14.105   1.403 -34.334  1.00  0.00     0.002 C 
HETATM   28  C   UNL     1     -13.482   0.060 -33.986  1.00  0.00     0.002 C 
HETATM   29  C   UNL     1     -12.065   0.384 -33.515  1.00  0.00     0.026 C 
ENDBRANCH  23  25
ENDBRANCH   3  23
TORSDOF 6
ENDMDL
MODEL 5
REMARK VINA RESULT:      -8.2      2.741      7.720
REMARK  6 active torsions:
REMARK  status: ('A' for Active; 'I' for Inactive)
REMARK    1  A    between atoms: O_2  and  C_3 
REMARK    2  A    between atoms: C_4  and  C_5 
REMARK    3  A    between atoms: C_5  and  N_6 
REMARK    4  A    between atoms: N_6  and  C_7 
REMARK    5  A    between atoms: C_9  and  N_10 
REMARK    6  A    between atoms: N_10  and  C_11 
ROOT
HETATM    1  C   UNL     1      -7.577   0.144 -33.266  1.00  0.00     0.135 A 
HETATM    2  N   UNL     1      -7.084   1.300 -32.786  1.00  0.00    -0.052 NA
HETATM    3  C   UNL     1      -5.750   1.444 -32.714  1.00  0.00     0.702 A 
HETATM    4  N   UNL     1      -4.915   0.476 -33.083  1.00  0.00    -0.189 N 
HETATM    5  H   UNL     1      -3.925   0.666 -33.028  1.00  0.00     0.184 HD
HETATM    6  C   UNL     1      -5.357  -0.691 -33.568  1.00  0.00     0.062 A 
HETATM    7  C   UNL     1      -6.741  -0.904 -33.699  1.00  0.00     0.032 A 
HETATM    8  C   UNL     1      -4.432  -1.671 -33.965  1.00  0.00     0.031 A 
HETATM    9  C   UNL     1      -4.874  -2.874 -34.513  1.00  0.00     0.002 A 
HETATM   10  C   UNL     1      -6.237  -3.095 -34.683  1.00  0.00     0.001 A 
HETATM   11  C   UNL     1      -7.159  -2.121 -34.293  1.00  0.00     0.017 A 
ENDROOT
BRANCH   1  12
HETATM   12  N   UNL     1      -8.958   0.135 -33.381  1.00  0.00    -0.272 NA
HETATM   13  H   UNL     1      -9.173   0.072 -34.376  1.00  0.00     0.129 HD
BRANCH  12  14
HETATM   14  C   UNL     1      -9.722   1.246 -32.798  1.00  0.00     0.135 C 
BRANCH  14  15
HETATM   15  C   UNL     1     -10.605   1.924 -33.831  1.00  0.00    -0.012 A 
HETATM   16  C   UNL     1     -11.834   1.329 -34.186  1.00  0.00     0.075 A 
HETATM   17  C   UNL     1     -12.653   1.941 -35.142  1.00  0.00     0.037 A 
HETATM   18  C   UNL     1     -12.272   3.144 -35.738  1.00  0.00     0.003 A 
HETATM   19  C   UNL     1     -11.070   3.748 -35.383  1.00  0.00     0.001 A 
HETATM   20  C   UNL     1     -10.246   3.144 -34.434  1.00  0.00     0.011 A 
BRANCH  16  21
HETATM   21  O   UNL     1     -12.131   0.150 -33.549  1.00  0.00    -0.355 OA
HETATM   22  C   UNL     1     -13.483  -0.294 -33.607  1.00  0.00     0.210 C 
ENDBRANCH  16  21
ENDBRANCH  14  15
ENDBRANCH  12  14
ENDBRANCH   1  12
BRANCH   3  23
HETATM   23  N   UNL     1      -5.185   2.629 -32.296  1.00  0.00    -0.220 N 
HETATM   24  H   UNL     1      -5.757   3.443 -32.126  1.00  0.00     0.178 HD
BRANCH  23  25
HETATM   25  C   UNL     1      -3.798   2.921 -32.643  1.00  0.00     0.099 C 
HETATM   26  C   UNL     1      -3.701   4.241 -33.409  1.00  0.00     0.026 C 
HETATM   27  C   UNL     1      -2.313   4.748 -33.064  1.00  0.00     0.002 C 
HETATM   28  C   UNL     1      -2.190   4.442 -31.580  1.00  0.00     0.002 C 
HETATM   29  C   UNL     1      -2.960   3.138 -31.373  1.00  0.00     0.026 C 
ENDBRANCH  23  25
ENDBRANCH   3  23
TORSDOF 6
ENDMDL
MODEL 6
REMARK VINA RESULT:      -8.2      2.246      7.382
REMARK  6 active torsions:
REMARK  status: ('A' for Active; 'I' for Inactive)
REMARK    1  A    between atoms: O_2  and  C_3 
REMARK    2  A    between atoms: C_4  and  C_5 
REMARK    3  A    between atoms: C_5  and  N_6 
REMARK    4  A    between atoms: N_6  and  C_7 
REMARK    5  A    between atoms: C_9  and  N_10 
REMARK    6  A    between atoms: N_10  and  C_11 
ROOT
HETATM    1  C   UNL     1      -7.381  -0.331 -33.275  1.00  0.00     0.135 A 
HETATM    2  N   UNL     1      -6.979   0.643 -32.440  1.00  0.00    -0.052 NA
HETATM    3  C   UNL     1      -5.708   0.627 -32.004  1.00  0.00     0.702 A 
HETATM    4  N   UNL     1      -4.853  -0.330 -32.358  1.00  0.00    -0.189 N 
HETATM    5  H   UNL     1      -3.907  -0.262 -32.015  1.00  0.00     0.184 HD
HETATM    6  C   UNL     1      -5.206  -1.320 -33.188  1.00  0.00     0.062 A 
HETATM    7  C   UNL     1      -6.512  -1.352 -33.707  1.00  0.00     0.032 A 
HETATM    8  C   UNL     1      -4.258  -2.292 -33.548  1.00  0.00     0.031 A 
HETATM    9  C   UNL     1      -4.596  -3.304 -34.445  1.00  0.00     0.002 A 
HETATM   10  C   UNL     1      -5.872  -3.339 -34.997  1.00  0.00     0.001 A 
HETATM   11  C   UNL     1      -6.816  -2.372 -34.644  1.00  0.00     0.017 A 
ENDROOT
BRANCH   1  12
HETATM   12  N   UNL     1      -8.679  -0.169 -33.733  1.00  0.00    -0.272 NA
HETATM   13  H   UNL     1      -8.643   0.505 -34.497  1.00  0.00     0.129 HD
BRANCH  12  14
HETATM   14  C   UNL     1      -9.716   0.248 -32.779  1.00  0.00     0.135 C 
BRANCH  14  15
HETATM   15  C   UNL     1     -10.992   0.670 -33.486  1.00  0.00    -0.012 A 
HETATM   16  C   UNL     1     -10.988   1.835 -34.282  1.00  0.00     0.075 A 
HETATM   17  C   UNL     1     -12.160   2.238 -34.933  1.00  0.00     0.037 A 
HETATM   18  C   UNL     1     -13.331   1.488 -34.814  1.00  0.00     0.003 A 
HETATM   19  C   UNL     1     -13.342   0.329 -34.046  1.00  0.00     0.001 A 
HETATM   20  C   UNL     1     -12.181  -0.077 -33.391  1.00  0.00     0.011 A 
BRANCH  16  21
HETATM   21  O   UNL     1      -9.793   2.508 -34.346  1.00  0.00    -0.355 OA
HETATM   22  C   UNL     1      -9.855   3.929 -34.427  1.00  0.00     0.210 C 
ENDBRANCH  16  21
ENDBRANCH  14  15
ENDBRANCH  12  14
ENDBRANCH   1  12
BRANCH   3  23
HETATM   23  N   UNL     1      -5.218   1.635 -31.203  1.00  0.00    -0.220 N 
HETATM   24  H   UNL     1      -5.500   1.712 -30.237  1.00  0.00     0.178 HD
BRANCH  23  25
HETATM   25  C   UNL     1      -4.790   2.889 -31.814  1.00  0.00     0.099 C 
HETATM   26  C   UNL     1      -4.821   4.024 -30.789  1.00  0.00     0.026 C 
HETATM   27  C   UNL     1      -3.747   4.976 -31.285  1.00  0.00     0.002 C 
HETATM   28  C   UNL     1      -2.625   4.041 -31.709  1.00  0.00     0.002 C 
HETATM   29  C   UNL     1      -3.322   2.798 -32.260  1.00  0.00     0.026 C 
ENDBRANCH  23  25
ENDBRANCH   3  23
TORSDOF 6
ENDMDL
MODEL 7
REMARK VINA RESULT:      -8.1      2.908      5.759
REMARK  6 active torsions:
REMARK  status: ('A' for Active; 'I' for Inactive)
REMARK    1  A    between atoms: O_2  and  C_3 
REMARK    2  A    between atoms: C_4  and  C_5 
REMARK    3  A    between atoms: C_5  and  N_6 
REMARK    4  A    between atoms: N_6  and  C_7 
REMARK    5  A    between atoms: C_9  and  N_10 
REMARK    6  A    between atoms: N_10  and  C_11 
ROOT
HETATM    1  C   UNL     1      -5.906   0.573 -32.756  1.00  0.00     0.135 A 
HETATM    2  N   UNL     1      -7.128   1.110 -32.593  1.00  0.00    -0.052 NA
HETATM    3  C   UNL     1      -8.190   0.436 -33.066  1.00  0.00     0.702 A 
HETATM    4  N   UNL     1      -8.062  -0.727 -33.700  1.00  0.00    -0.189 N 
HETATM    5  H   UNL     1      -8.906  -1.190 -34.002  1.00  0.00     0.184 HD
HETATM    6  C   UNL     1      -6.868  -1.303 -33.885  1.00  0.00     0.062 A 
HETATM    7  C   UNL     1      -5.713  -0.669 -33.393  1.00  0.00     0.032 A 
HETATM    8  C   UNL     1      -6.790  -2.542 -34.542  1.00  0.00     0.031 A 
HETATM    9  C   UNL     1      -5.559  -3.175 -34.704  1.00  0.00     0.002 A 
HETATM   10  C   UNL     1      -4.407  -2.584 -34.197  1.00  0.00     0.001 A 
HETATM   11  C   UNL     1      -4.480  -1.354 -33.541  1.00  0.00     0.017 A 
ENDROOT
BRANCH   1  12
HETATM   12  N   UNL     1      -4.893   1.304 -32.155  1.00  0.00    -0.272 NA
HETATM   13  H   UNL     1      -4.681   0.845 -31.268  1.00  0.00     0.129 HD
BRANCH  12  14
HETATM   14  C   UNL     1      -5.108   2.736 -31.908  1.00  0.00     0.135 C 
BRANCH  14  15
HETATM   15  C   UNL     1      -4.338   3.598 -32.893  1.00  0.00    -0.012 A 
HETATM   16  C   UNL     1      -5.039   4.278 -33.911  1.00  0.00     0.075 A 
HETATM   17  C   UNL     1      -4.338   5.070 -34.829  1.00  0.00     0.037 A 
HETATM   18  C   UNL     1      -2.952   5.205 -34.737  1.00  0.00     0.003 A 
HETATM   19  C   UNL     1      -2.254   4.553 -33.727  1.00  0.00     0.001 A 
HETATM   20  C   UNL     1      -2.942   3.759 -32.811  1.00  0.00     0.011 A 
BRANCH  16  21
HETATM   21  O   UNL     1      -6.398   4.091 -33.925  1.00  0.00    -0.355 OA
HETATM   22  C   UNL     1      -7.210   5.225 -33.631  1.00  0.00     0.210 C 
ENDBRANCH  16  21
ENDBRANCH  14  15
ENDBRANCH  12  14
ENDBRANCH   1  12
BRANCH   3  23
HETATM   23  N   UNL     1      -9.472   0.901 -32.868  1.00  0.00    -0.220 N 
HETATM   24  H   UNL     1      -9.971   0.694 -32.016  1.00  0.00     0.178 HD
BRANCH  23  25
HETATM   25  C   UNL     1     -10.323   1.164 -34.025  1.00  0.00     0.099 C 
HETATM   26  C   UNL     1     -11.787   0.875 -33.692  1.00  0.00     0.026 C 
HETATM   27  C   UNL     1     -12.549   1.815 -34.608  1.00  0.00     0.002 C 
HETATM   28  C   UNL     1     -11.742   3.101 -34.534  1.00  0.00     0.002 C 
HETATM   29  C   UNL     1     -10.287   2.656 -34.390  1.00  0.00     0.026 C 
ENDBRANCH  23  25
ENDBRANCH   3  23
TORSDOF 6
ENDMDL
MODEL 8
REMARK VINA RESULT:      -7.8      3.570      5.981
REMARK  6 active torsions:
REMARK  status: ('A' for Active; 'I' for Inactive)
REMARK    1  A    between atoms: O_2  and  C_3 
REMARK    2  A    between atoms: C_4  and  C_5 
REMARK    3  A    between atoms: C_5  and  N_6 
REMARK    4  A    between atoms: N_6  and  C_7 
REMARK    5  A    between atoms: C_9  and  N_10 
REMARK    6  A    between atoms: N_10  and  C_11 
ROOT
HETATM    1  C   UNL     1      -4.886   2.300 -31.516  1.00  0.00     0.135 A 
HETATM    2  N   UNL     1      -6.115   2.709 -31.878  1.00  0.00    -0.052 NA
HETATM    3  C   UNL     1      -6.903   1.851 -32.548  1.00  0.00     0.702 A 
HETATM    4  N   UNL     1      -6.494   0.627 -32.874  1.00  0.00    -0.189 N 
HETATM    5  H   UNL     1      -7.150   0.027 -33.353  1.00  0.00     0.184 HD
HETATM    6  C   UNL     1      -5.281   0.173 -32.535  1.00  0.00     0.062 A 
HETATM    7  C   UNL     1      -4.412   1.006 -31.809  1.00  0.00     0.032 A 
HETATM    8  C   UNL     1      -4.908  -1.135 -32.885  1.00  0.00     0.031 A 
HETATM    9  C   UNL     1      -3.666  -1.638 -32.502  1.00  0.00     0.002 A 
HETATM   10  C   UNL     1      -2.802  -0.845 -31.755  1.00  0.00     0.001 A 
HETATM   11  C   UNL     1      -3.170   0.455 -31.402  1.00  0.00     0.017 A 
ENDROOT
BRANCH   1  12
HETATM   12  N   UNL     1      -4.194   3.228 -30.755  1.00  0.00    -0.272 NA
HETATM   13  H   UNL     1      -4.549   3.155 -29.801  1.00  0.00     0.129 HD
BRANCH  12  14
HETATM   14  C   UNL     1      -4.221   4.638 -31.166  1.00  0.00     0.135 C 
BRANCH  14  15
HETATM   15  C   UNL     1      -3.463   4.860 -32.463  1.00  0.00    -0.012 A 
HETATM   16  C   UNL     1      -2.063   4.689 -32.483  1.00  0.00     0.075 A 
HETATM   17  C   UNL     1      -1.353   4.898 -33.671  1.00  0.00     0.037 A 
HETATM   18  C   UNL     1      -2.020   5.260 -34.842  1.00  0.00     0.003 A 
HETATM   19  C   UNL     1      -3.402   5.414 -34.838  1.00  0.00     0.001 A 
HETATM   20  C   UNL     1      -4.117   5.212 -33.659  1.00  0.00     0.011 A 
BRANCH  16  21
HETATM   21  O   UNL     1      -1.490   4.331 -31.288  1.00  0.00    -0.355 OA
HETATM   22  C   UNL     1      -0.534   5.230 -30.733  1.00  0.00     0.210 C 
ENDBRANCH  16  21
ENDBRANCH  14  15
ENDBRANCH  12  14
ENDBRANCH   1  12
BRANCH   3  23
HETATM   23  N   UNL     1      -8.196   2.187 -32.885  1.00  0.00    -0.220 N 
HETATM   24  H   UNL     1      -8.688   2.912 -32.385  1.00  0.00     0.178 HD
BRANCH  23  25
HETATM   25  C   UNL     1      -9.055   1.187 -33.510  1.00  0.00     0.099 C 
HETATM   26  C   UNL     1      -9.775   0.356 -32.447  1.00  0.00     0.026 C 
HETATM   27  C   UNL     1     -11.060  -0.063 -33.138  1.00  0.00     0.002 C 
HETATM   28  C   UNL     1     -11.482   1.197 -33.878  1.00  0.00     0.002 C 
HETATM   29  C   UNL     1     -10.178   1.866 -34.310  1.00  0.00     0.026 C 
ENDBRANCH  23  25
ENDBRANCH   3  23
TORSDOF 6
ENDMDL
MODEL 9
REMARK VINA RESULT:      -7.8      2.196      6.704
REMARK  6 active torsions:
REMARK  status: ('A' for Active; 'I' for Inactive)
REMARK    1  A    between atoms: O_2  and  C_3 
REMARK    2  A    between atoms: C_4  and  C_5 
REMARK    3  A    between atoms: C_5  and  N_6 
REMARK    4  A    between atoms: N_6  and  C_7 
REMARK    5  A    between atoms: C_9  and  N_10 
REMARK    6  A    between atoms: N_10  and  C_11 
ROOT
HETATM    1  C   UNL     1      -8.636   1.134 -31.774  1.00  0.00     0.135 A 
HETATM    2  N   UNL     1      -7.897   0.103 -32.220  1.00  0.00    -0.052 NA
HETATM    3  C   UNL     1      -6.574   0.116 -31.983  1.00  0.00     0.702 A 
HETATM    4  N   UNL     1      -5.982   1.121 -31.342  1.00  0.00    -0.189 N 
HETATM    5  H   UNL     1      -4.989   1.049 -31.176  1.00  0.00     0.184 HD
HETATM    6  C   UNL     1      -6.675   2.168 -30.878  1.00  0.00     0.062 A 
HETATM    7  C   UNL     1      -8.068   2.210 -31.064  1.00  0.00     0.032 A 
HETATM    8  C   UNL     1      -6.004   3.192 -30.188  1.00  0.00     0.031 A 
HETATM    9  C   UNL     1      -6.716   4.267 -29.660  1.00  0.00     0.002 A 
HETATM   10  C   UNL     1      -8.099   4.315 -29.803  1.00  0.00     0.001 A 
HETATM   11  C   UNL     1      -8.770   3.297 -30.485  1.00  0.00     0.017 A 
ENDROOT
BRANCH   1  12
HETATM   12  N   UNL     1      -9.996   0.978 -31.992  1.00  0.00    -0.272 NA
HETATM   13  H   UNL     1     -10.298   0.184 -31.426  1.00  0.00     0.129 HD
BRANCH  12  14
HETATM   14  C   UNL     1     -10.472   0.789 -33.369  1.00  0.00     0.135 C 
BRANCH  14  15
HETATM   15  C   UNL     1     -11.974   0.981 -33.476  1.00  0.00    -0.012 A 
HETATM   16  C   UNL     1     -12.516   2.276 -33.343  1.00  0.00     0.075 A 
HETATM   17  C   UNL     1     -13.901   2.464 -33.433  1.00  0.00     0.037 A 
HETATM   18  C   UNL     1     -14.750   1.382 -33.667  1.00  0.00     0.003 A 
HETATM   19  C   UNL     1     -14.224   0.103 -33.817  1.00  0.00     0.001 A 
HETATM   20  C   UNL     1     -12.848  -0.094 -33.725  1.00  0.00     0.011 A 
BRANCH  16  21
HETATM   21  O   UNL     1     -11.609   3.281 -33.118  1.00  0.00    -0.355 OA
HETATM   22  C   UNL     1     -12.007   4.326 -32.236  1.00  0.00     0.210 C 
ENDBRANCH  16  21
ENDBRANCH  14  15
ENDBRANCH  12  14
ENDBRANCH   1  12
BRANCH   3  23
HETATM   23  N   UNL     1      -5.775  -0.944 -32.354  1.00  0.00    -0.220 N 
HETATM   24  H   UNL     1      -4.954  -1.185 -31.819  1.00  0.00     0.178 HD
BRANCH  23  25
HETATM   25  C   UNL     1      -5.729  -1.347 -33.756  1.00  0.00     0.099 C 
HETATM   26  C   UNL     1      -4.585  -2.334 -33.994  1.00  0.00     0.026 C 
HETATM   27  C   UNL     1      -5.075  -3.166 -35.165  1.00  0.00     0.002 C 
HETATM   28  C   UNL     1      -6.542  -3.396 -34.838  1.00  0.00     0.002 C 
HETATM   29  C   UNL     1      -7.003  -2.119 -34.136  1.00  0.00     0.026 C 
ENDBRANCH  23  25
ENDBRANCH   3  23
TORSDOF 6
ENDMDL
MODEL 10
REMARK VINA RESULT:      -7.7      2.147      6.711
REMARK  6 active torsions:
REMARK  status: ('A' for Active; 'I' for Inactive)
REMARK    1  A    between atoms: O_2  and  C_3 
REMARK    2  A    between atoms: C_4  and  C_5 
REMARK    3  A    between atoms: C_5  and  N_6 
REMARK    4  A    between atoms: N_6  and  C_7 
REMARK    5  A    between atoms: C_9  and  N_10 
REMARK    6  A    between atoms: N_10  and  C_11 
ROOT
HETATM    1  C   UNL     1      -8.376   1.462 -31.591  1.00  0.00     0.135 A 
HETATM    2  N   UNL     1      -7.787   0.328 -32.009  1.00  0.00    -0.052 NA
HETATM    3  C   UNL     1      -6.478   0.157 -31.759  1.00  0.00     0.702 A 
HETATM    4  N   UNL     1      -5.754   1.082 -31.132  1.00  0.00    -0.189 N 
HETATM    5  H   UNL     1      -4.783   0.873 -30.953  1.00  0.00     0.184 HD
HETATM    6  C   UNL     1      -6.295   2.226 -30.696  1.00  0.00     0.062 A 
HETATM    7  C   UNL     1      -7.666   2.462 -30.897  1.00  0.00     0.032 A 
HETATM    8  C   UNL     1      -5.491   3.159 -30.019  1.00  0.00     0.031 A 
HETATM    9  C   UNL     1      -6.047   4.335 -29.520  1.00  0.00     0.002 A 
HETATM   10  C   UNL     1      -7.408   4.576 -29.678  1.00  0.00     0.001 A 
HETATM   11  C   UNL     1      -8.211   3.649 -30.347  1.00  0.00     0.017 A 
ENDROOT
BRANCH   1  12
HETATM   12  N   UNL     1      -9.742   1.496 -31.821  1.00  0.00    -0.272 NA
HETATM   13  H   UNL     1     -10.193   1.113 -30.990  1.00  0.00     0.129 HD
BRANCH  12  14
HETATM   14  C   UNL     1     -10.275   0.813 -33.008  1.00  0.00     0.135 C 
BRANCH  14  15
HETATM   15  C   UNL     1     -10.966   1.781 -33.951  1.00  0.00    -0.012 A 
HETATM   16  C   UNL     1     -12.297   1.530 -34.346  1.00  0.00     0.075 A 
HETATM   17  C   UNL     1     -12.942   2.413 -35.220  1.00  0.00     0.037 A 
HETATM   18  C   UNL     1     -12.284   3.549 -35.695  1.00  0.00     0.003 A 
HETATM   19  C   UNL     1     -10.979   3.815 -35.298  1.00  0.00     0.001 A 
HETATM   20  C   UNL     1     -10.327   2.940 -34.430  1.00  0.00     0.011 A 
BRANCH  16  21
HETATM   21  O   UNL     1     -12.866   0.393 -33.829  1.00  0.00    -0.355 OA
HETATM   22  C   UNL     1     -14.290   0.340 -33.798  1.00  0.00     0.210 C 
ENDBRANCH  16  21
ENDBRANCH  14  15
ENDBRANCH  12  14
ENDBRANCH   1  12
BRANCH   3  23
HETATM   23  N   UNL     1      -5.835  -1.012 -32.100  1.00  0.00    -0.220 N 
HETATM   24  H   UNL     1      -5.195  -1.457 -31.459  1.00  0.00     0.178 HD
BRANCH  23  25
HETATM   25  C   UNL     1      -5.591  -1.309 -33.508  1.00  0.00     0.099 C 
HETATM   26  C   UNL     1      -4.385  -2.238 -33.661  1.00  0.00     0.026 C 
HETATM   27  C   UNL     1      -4.684  -2.996 -34.941  1.00  0.00     0.002 C 
HETATM   28  C   UNL     1      -6.170  -3.296 -34.828  1.00  0.00     0.002 C 
HETATM   29  C   UNL     1      -6.771  -2.091 -34.106  1.00  0.00     0.026 C 
ENDBRANCH  23  25
ENDBRANCH   3  23
TORSDOF 6
ENDMDL
