MODEL 1
REMARK VINA RESULT:      -8.5      0.000      0.000
REMARK  5 active torsions:
REMARK  status: ('A' for Active; 'I' for Inactive)
REMARK    1  A    between atoms: C_8  and  C_9 
REMARK       I    between atoms: C_9  and  N_10 
REMARK    2  A    between atoms: N_10  and  C_11 
REMARK    3  A    between atoms: C_14  and  N_15 
REMARK       I    between atoms: N_15  and  C_16 
REMARK       I    between atoms: C_16  and  N_17 
REMARK    4  A    between atoms: N_17  and  C_18 
REMARK    5  A    between atoms: C_18  and  C_19 
ROOT
HETATM    1  C   UNL     1      -7.981   0.841 -32.630  1.00  0.00     0.035 A 
HETATM    2  C   UNL     1      -8.508   1.603 -31.587  1.00  0.00     0.032 A 
HETATM    3  C   UNL     1      -9.634   2.419 -31.791  1.00  0.00     0.032 A 
HETATM    4  C   UNL     1     -10.259   2.473 -33.036  1.00  0.00     0.036 A 
HETATM    5  C   UNL     1      -9.703   1.741 -34.091  1.00  0.00     0.032 A 
HETATM    6  C   UNL     1      -8.582   0.929 -33.889  1.00  0.00     0.032 A 
ENDROOT
BRANCH   1   7
HETATM    7  N   UNL     1      -6.864  -0.013 -32.518  1.00  0.00    -0.322 N 
HETATM    8  C   UNL     1      -5.560   0.221 -32.925  1.00  0.00     0.274 C 
HETATM    9  O   UNL     1      -5.173   1.267 -33.431  1.00  0.00    -0.266 OA
HETATM   10  H   UNL     1      -7.033  -0.873 -32.016  1.00  0.00     0.169 HD
BRANCH   8  11
HETATM   11  C   UNL     1      -4.666  -0.889 -32.662  1.00  0.00     0.126 A 
HETATM   12  N   UNL     1      -4.727  -2.145 -33.253  1.00  0.00    -0.300 N 
HETATM   13  C   UNL     1      -5.607  -2.667 -34.209  1.00  0.00     0.106 A 
HETATM   14  C   UNL     1      -3.667  -2.886 -32.731  1.00  0.00     0.134 A 
HETATM   15  C   UNL     1      -5.446  -3.928 -34.657  1.00  0.00    -0.046 A 
HETATM   16  C   UNL     1      -6.342  -4.570 -35.670  1.00  0.00     0.049 C 
HETATM   17  C   UNL     1      -4.338  -4.716 -34.126  1.00  0.00     0.012 A 
HETATM   18  C   UNL     1      -3.492  -4.215 -33.208  1.00  0.00     0.051 A 
HETATM   19  N   UNL     1      -2.978  -2.201 -31.847  1.00  0.00    -0.240 NA
HETATM   20  C   UNL     1      -3.596  -0.984 -31.786  1.00  0.00     0.155 A 
ENDBRANCH   8  11
ENDBRANCH   1   7
BRANCH   4  21
HETATM   21  N   UNL     1     -11.388   3.250 -33.343  1.00  0.00    -0.309 N 
HETATM   22  C   UNL     1     -12.729   3.025 -33.304  1.00  0.00     0.320 C 
HETATM   23  N   UNL     1     -13.158   1.746 -33.161  1.00  0.00    -0.339 N 
HETATM   24  O   UNL     1     -13.487   3.981 -33.460  1.00  0.00    -0.247 OA
HETATM   25  H   UNL     1     -12.514   1.030 -33.453  1.00  0.00     0.164 HD
HETATM   26  H   UNL     1     -11.210   4.199 -33.651  1.00  0.00     0.170 HD
BRANCH  23  27
HETATM   27  C   UNL     1     -14.559   1.405 -33.224  1.00  0.00     0.150 C 
BRANCH  27  28
HETATM   28  C   UNL     1     -15.305   1.955 -32.045  1.00  0.00    -0.018 C 
HETATM   29  C   UNL     1     -16.465   2.629 -32.048  1.00  0.00     0.008 C 
ENDBRANCH  27  28
ENDBRANCH  23  27
ENDBRANCH   4  21
TORSDOF 5
ENDMDL
MODEL 2
REMARK VINA RESULT:      -8.3      1.682      9.611
REMARK  5 active torsions:
REMARK  status: ('A' for Active; 'I' for Inactive)
REMARK    1  A    between atoms: C_8  and  C_9 
REMARK       I    between atoms: C_9  and  N_10 
REMARK    2  A    between atoms: N_10  and  C_11 
REMARK    3  A    between atoms: C_14  and  N_15 
REMARK       I    between atoms: N_15  and  C_16 
REMARK       I    between atoms: C_16  and  N_17 
REMARK    4  A    between atoms: N_17  and  C_18 
REMARK    5  A    between atoms: C_18  and  C_19 
ROOT
HETATM    1  C   UNL     1      -9.466   0.412 -32.929  1.00  0.00     0.035 A 
HETATM    2  C   UNL     1      -8.775   0.528 -31.724  1.00  0.00     0.032 A 
HETATM    3  C   UNL     1      -7.376   0.389 -31.682  1.00  0.00     0.032 A 
HETATM    4  C   UNL     1      -6.650   0.146 -32.846  1.00  0.00     0.036 A 
HETATM    5  C   UNL     1      -7.350  -0.012 -34.047  1.00  0.00     0.032 A 
HETATM    6  C   UNL     1      -8.741   0.127 -34.090  1.00  0.00     0.032 A 
ENDROOT
BRANCH   1   7
HETATM    7  N   UNL     1     -10.864   0.548 -33.071  1.00  0.00    -0.322 N 
HETATM    8  C   UNL     1     -11.571   1.590 -33.649  1.00  0.00     0.274 C 
HETATM    9  O   UNL     1     -11.052   2.569 -34.172  1.00  0.00    -0.266 OA
HETATM   10  H   UNL     1     -11.403  -0.251 -32.771  1.00  0.00     0.169 HD
BRANCH   8  11
HETATM   11  C   UNL     1     -13.008   1.404 -33.612  1.00  0.00     0.126 A 
HETATM   12  N   UNL     1     -13.920   2.218 -32.954  1.00  0.00    -0.300 N 
HETATM   13  C   UNL     1     -13.733   3.376 -32.190  1.00  0.00     0.106 A 
HETATM   14  C   UNL     1     -15.185   1.685 -33.203  1.00  0.00     0.134 A 
HETATM   15  C   UNL     1     -14.795   4.018 -31.665  1.00  0.00    -0.046 A 
HETATM   16  C   UNL     1     -14.688   5.256 -30.830  1.00  0.00     0.049 C 
HETATM   17  C   UNL     1     -16.127   3.478 -31.921  1.00  0.00     0.012 A 
HETATM   18  C   UNL     1     -16.309   2.366 -32.655  1.00  0.00     0.051 A 
HETATM   19  N   UNL     1     -15.123   0.596 -33.935  1.00  0.00    -0.240 NA
HETATM   20  C   UNL     1     -13.791   0.407 -34.172  1.00  0.00     0.155 A 
ENDBRANCH   8  11
ENDBRANCH   1   7
BRANCH   4  21
HETATM   21  N   UNL     1      -5.255  -0.005 -32.914  1.00  0.00    -0.309 N 
HETATM   22  C   UNL     1      -4.432  -0.976 -33.394  1.00  0.00     0.320 C 
HETATM   23  N   UNL     1      -4.974  -2.184 -33.691  1.00  0.00    -0.339 N 
HETATM   24  O   UNL     1      -3.229  -0.733 -33.480  1.00  0.00    -0.247 OA
HETATM   25  H   UNL     1      -5.831  -2.411 -33.215  1.00  0.00     0.164 HD
HETATM   26  H   UNL     1      -4.701   0.762 -32.550  1.00  0.00     0.170 HD
BRANCH  23  27
HETATM   27  C   UNL     1      -4.156  -3.302 -34.096  1.00  0.00     0.150 C 
BRANCH  27  28
HETATM   28  C   UNL     1      -5.001  -4.465 -34.523  1.00  0.00    -0.018 C 
HETATM   29  C   UNL     1      -6.283  -4.449 -34.915  1.00  0.00     0.008 C 
ENDBRANCH  27  28
ENDBRANCH  23  27
ENDBRANCH   4  21
TORSDOF 5
ENDMDL
MODEL 3
REMARK VINA RESULT:      -8.2      5.506      8.344
REMARK  5 active torsions:
REMARK  status: ('A' for Active; 'I' for Inactive)
REMARK    1  A    between atoms: C_8  and  C_9 
REMARK       I    between atoms: C_9  and  N_10 
REMARK    2  A    between atoms: N_10  and  C_11 
REMARK    3  A    between atoms: C_14  and  N_15 
REMARK       I    between atoms: N_15  and  C_16 
REMARK       I    between atoms: C_16  and  N_17 
REMARK    4  A    between atoms: N_17  and  C_18 
REMARK    5  A    between atoms: C_18  and  C_19 
ROOT
HETATM    1  C   UNL     1      -3.615   2.768 -32.136  1.00  0.00     0.035 A 
HETATM    2  C   UNL     1      -2.650   3.598 -32.707  1.00  0.00     0.032 A 
HETATM    3  C   UNL     1      -2.534   4.942 -32.312  1.00  0.00     0.032 A 
HETATM    4  C   UNL     1      -3.371   5.471 -31.331  1.00  0.00     0.036 A 
HETATM    5  C   UNL     1      -4.366   4.649 -30.791  1.00  0.00     0.032 A 
HETATM    6  C   UNL     1      -4.482   3.311 -31.184  1.00  0.00     0.032 A 
ENDROOT
BRANCH   1   7
HETATM    7  N   UNL     1      -3.799   1.407 -32.459  1.00  0.00    -0.322 N 
HETATM    8  C   UNL     1      -3.258   0.296 -31.833  1.00  0.00     0.274 C 
HETATM    9  O   UNL     1      -2.538   0.344 -30.843  1.00  0.00    -0.266 OA
HETATM   10  H   UNL     1      -4.463   1.229 -33.199  1.00  0.00     0.169 HD
BRANCH   8  11
HETATM   11  C   UNL     1      -3.654  -0.959 -32.441  1.00  0.00     0.126 A 
HETATM   12  N   UNL     1      -4.724  -1.146 -33.306  1.00  0.00    -0.300 N 
HETATM   13  C   UNL     1      -5.667  -0.241 -33.809  1.00  0.00     0.106 A 
HETATM   14  C   UNL     1      -4.719  -2.494 -33.665  1.00  0.00     0.134 A 
HETATM   15  C   UNL     1      -6.614  -0.661 -34.670  1.00  0.00    -0.046 A 
HETATM   16  C   UNL     1      -7.665   0.233 -35.251  1.00  0.00     0.049 C 
HETATM   17  C   UNL     1      -6.620  -2.068 -35.062  1.00  0.00     0.012 A 
HETATM   18  C   UNL     1      -5.714  -2.938 -34.580  1.00  0.00     0.051 A 
HETATM   19  N   UNL     1      -3.753  -3.156 -33.070  1.00  0.00    -0.240 NA
HETATM   20  C   UNL     1      -3.108  -2.227 -32.304  1.00  0.00     0.155 A 
ENDBRANCH   8  11
ENDBRANCH   1   7
BRANCH   4  21
HETATM   21  N   UNL     1      -3.335   6.795 -30.864  1.00  0.00    -0.309 N 
HETATM   22  C   UNL     1      -2.550   7.463 -29.977  1.00  0.00     0.320 C 
HETATM   23  N   UNL     1      -1.747   6.735 -29.161  1.00  0.00    -0.339 N 
HETATM   24  O   UNL     1      -2.648   8.687 -29.915  1.00  0.00    -0.247 OA
HETATM   25  H   UNL     1      -2.031   5.784 -28.997  1.00  0.00     0.164 HD
HETATM   26  H   UNL     1      -4.019   7.430 -31.260  1.00  0.00     0.170 HD
BRANCH  23  27
HETATM   27  C   UNL     1      -0.968   7.355 -28.115  1.00  0.00     0.150 C 
BRANCH  27  28
HETATM   28  C   UNL     1       0.417   7.682 -28.591  1.00  0.00    -0.018 C 
HETATM   29  C   UNL     1       1.363   8.380 -27.946  1.00  0.00     0.008 C 
ENDBRANCH  27  28
ENDBRANCH  23  27
ENDBRANCH   4  21
TORSDOF 5
ENDMDL
MODEL 4
REMARK VINA RESULT:      -7.9      2.674      9.474
REMARK  5 active torsions:
REMARK  status: ('A' for Active; 'I' for Inactive)
REMARK    1  A    between atoms: C_8  and  C_9 
REMARK       I    between atoms: C_9  and  N_10 
REMARK    2  A    between atoms: N_10  and  C_11 
REMARK    3  A    between atoms: C_14  and  N_15 
REMARK       I    between atoms: N_15  and  C_16 
REMARK       I    between atoms: C_16  and  N_17 
REMARK    4  A    between atoms: N_17  and  C_18 
REMARK    5  A    between atoms: C_18  and  C_19 
ROOT
HETATM    1  C   UNL     1      -9.022   0.205 -32.747  1.00  0.00     0.035 A 
HETATM    2  C   UNL     1      -8.138  -0.252 -33.724  1.00  0.00     0.032 A 
HETATM    3  C   UNL     1      -6.762  -0.357 -33.455  1.00  0.00     0.032 A 
HETATM    4  C   UNL     1      -6.254  -0.019 -32.201  1.00  0.00     0.036 A 
HETATM    5  C   UNL     1      -7.137   0.479 -31.237  1.00  0.00     0.032 A 
HETATM    6  C   UNL     1      -8.506   0.584 -31.505  1.00  0.00     0.032 A 
ENDROOT
BRANCH   1   7
HETATM    7  N   UNL     1     -10.417   0.331 -32.921  1.00  0.00    -0.322 N 
HETATM    8  C   UNL     1     -11.107   1.279 -33.660  1.00  0.00     0.274 C 
HETATM    9  O   UNL     1     -10.573   2.159 -34.324  1.00  0.00    -0.266 OA
HETATM   10  H   UNL     1     -10.968  -0.406 -32.505  1.00  0.00     0.169 HD
BRANCH   8  11
HETATM   11  C   UNL     1     -12.546   1.115 -33.607  1.00  0.00     0.126 A 
HETATM   12  N   UNL     1     -13.443   1.968 -32.976  1.00  0.00    -0.300 N 
HETATM   13  C   UNL     1     -13.233   3.153 -32.260  1.00  0.00     0.106 A 
HETATM   14  C   UNL     1     -14.717   1.446 -33.197  1.00  0.00     0.134 A 
HETATM   15  C   UNL     1     -14.282   3.831 -31.754  1.00  0.00    -0.046 A 
HETATM   16  C   UNL     1     -14.152   5.099 -30.970  1.00  0.00     0.049 C 
HETATM   17  C   UNL     1     -15.624   3.302 -31.981  1.00  0.00     0.012 A 
HETATM   18  C   UNL     1     -15.827   2.164 -32.670  1.00  0.00     0.051 A 
HETATM   19  N   UNL     1     -14.676   0.327 -33.885  1.00  0.00    -0.240 NA
HETATM   20  C   UNL     1     -13.349   0.109 -34.123  1.00  0.00     0.155 A 
ENDBRANCH   8  11
ENDBRANCH   1   7
BRANCH   4  21
HETATM   21  N   UNL     1      -4.901  -0.090 -31.829  1.00  0.00    -0.309 N 
HETATM   22  C   UNL     1      -3.929   0.838 -31.620  1.00  0.00     0.320 C 
HETATM   23  N   UNL     1      -4.154   2.106 -32.044  1.00  0.00    -0.339 N 
HETATM   24  O   UNL     1      -2.871   0.471 -31.112  1.00  0.00    -0.247 OA
HETATM   25  H   UNL     1      -4.828   2.210 -32.785  1.00  0.00     0.164 HD
HETATM   26  H   UNL     1      -4.531  -1.017 -31.653  1.00  0.00     0.170 HD
BRANCH  23  27
HETATM   27  C   UNL     1      -3.133   3.125 -31.965  1.00  0.00     0.150 C 
BRANCH  27  28
HETATM   28  C   UNL     1      -3.247   4.095 -33.103  1.00  0.00    -0.018 C 
HETATM   29  C   UNL     1      -3.168   5.433 -33.052  1.00  0.00     0.008 C 
ENDBRANCH  27  28
ENDBRANCH  23  27
ENDBRANCH   4  21
TORSDOF 5
ENDMDL
MODEL 5
REMARK VINA RESULT:      -7.9      5.185      6.945
REMARK  5 active torsions:
REMARK  status: ('A' for Active; 'I' for Inactive)
REMARK    1  A    between atoms: C_8  and  C_9 
REMARK       I    between atoms: C_9  and  N_10 
REMARK    2  A    between atoms: N_10  and  C_11 
REMARK    3  A    between atoms: C_14  and  N_15 
REMARK       I    between atoms: N_15  and  C_16 
REMARK       I    between atoms: C_16  and  N_17 
REMARK    4  A    between atoms: N_17  and  C_18 
REMARK    5  A    between atoms: C_18  and  C_19 
ROOT
HETATM    1  C   UNL     1      -5.891   2.972 -32.675  1.00  0.00     0.035 A 
HETATM    2  C   UNL     1      -6.532   2.831 -31.445  1.00  0.00     0.032 A 
HETATM    3  C   UNL     1      -7.569   1.896 -31.278  1.00  0.00     0.032 A 
HETATM    4  C   UNL     1      -7.969   1.080 -32.335  1.00  0.00     0.036 A 
HETATM    5  C   UNL     1      -7.352   1.252 -33.579  1.00  0.00     0.032 A 
HETATM    6  C   UNL     1      -6.320   2.183 -33.745  1.00  0.00     0.032 A 
ENDROOT
BRANCH   1   7
HETATM    7  N   UNL     1      -4.835   3.872 -32.933  1.00  0.00    -0.322 N 
HETATM    8  C   UNL     1      -3.472   3.649 -32.828  1.00  0.00     0.274 C 
HETATM    9  O   UNL     1      -2.970   2.576 -32.513  1.00  0.00    -0.266 OA
HETATM   10  H   UNL     1      -5.118   4.766 -33.306  1.00  0.00     0.169 HD
BRANCH   8  11
HETATM   11  C   UNL     1      -2.670   4.809 -33.163  1.00  0.00     0.126 A 
HETATM   12  N   UNL     1      -1.669   5.364 -32.376  1.00  0.00    -0.300 N 
HETATM   13  C   UNL     1      -1.175   4.991 -31.121  1.00  0.00     0.106 A 
HETATM   14  C   UNL     1      -1.148   6.442 -33.092  1.00  0.00     0.134 A 
HETATM   15  C   UNL     1      -0.162   5.681 -30.560  1.00  0.00    -0.046 A 
HETATM   16  C   UNL     1       0.422   5.359 -29.220  1.00  0.00     0.049 C 
HETATM   17  C   UNL     1       0.399   6.809 -31.298  1.00  0.00     0.012 A 
HETATM   18  C   UNL     1      -0.074   7.168 -32.506  1.00  0.00     0.051 A 
HETATM   19  N   UNL     1      -1.765   6.613 -34.239  1.00  0.00    -0.240 NA
HETATM   20  C   UNL     1      -2.711   5.628 -34.280  1.00  0.00     0.155 A 
ENDBRANCH   8  11
ENDBRANCH   1   7
BRANCH   4  21
HETATM   21  N   UNL     1      -8.988   0.115 -32.273  1.00  0.00    -0.309 N 
HETATM   22  C   UNL     1     -10.254   0.045 -32.765  1.00  0.00     0.320 C 
HETATM   23  N   UNL     1     -10.817   1.182 -33.243  1.00  0.00    -0.339 N 
HETATM   24  O   UNL     1     -10.847  -1.030 -32.700  1.00  0.00    -0.247 OA
HETATM   25  H   UNL     1     -10.440   2.045 -32.885  1.00  0.00     0.164 HD
HETATM   26  H   UNL     1      -8.768  -0.740 -31.774  1.00  0.00     0.170 HD
BRANCH  23  27
HETATM   27  C   UNL     1     -12.194   1.222 -33.677  1.00  0.00     0.150 C 
BRANCH  27  28
HETATM   28  C   UNL     1     -12.296   1.623 -35.119  1.00  0.00    -0.018 C 
HETATM   29  C   UNL     1     -12.505   2.850 -35.617  1.00  0.00     0.008 C 
ENDBRANCH  27  28
ENDBRANCH  23  27
ENDBRANCH   4  21
TORSDOF 5
ENDMDL
MODEL 6
REMARK VINA RESULT:      -7.9      5.982      9.075
REMARK  5 active torsions:
REMARK  status: ('A' for Active; 'I' for Inactive)
REMARK    1  A    between atoms: C_8  and  C_9 
REMARK       I    between atoms: C_9  and  N_10 
REMARK    2  A    between atoms: N_10  and  C_11 
REMARK    3  A    between atoms: C_14  and  N_15 
REMARK       I    between atoms: N_15  and  C_16 
REMARK       I    between atoms: C_16  and  N_17 
REMARK    4  A    between atoms: N_17  and  C_18 
REMARK    5  A    between atoms: C_18  and  C_19 
ROOT
HETATM    1  C   UNL     1      -3.469   4.457 -32.302  1.00  0.00     0.035 A 
HETATM    2  C   UNL     1      -2.115   4.316 -32.603  1.00  0.00     0.032 A 
HETATM    3  C   UNL     1      -1.154   5.142 -31.994  1.00  0.00     0.032 A 
HETATM    4  C   UNL     1      -1.533   6.109 -31.064  1.00  0.00     0.036 A 
HETATM    5  C   UNL     1      -2.895   6.277 -30.796  1.00  0.00     0.032 A 
HETATM    6  C   UNL     1      -3.852   5.455 -31.402  1.00  0.00     0.032 A 
ENDROOT
BRANCH   1   7
HETATM    7  N   UNL     1      -4.502   3.669 -32.853  1.00  0.00    -0.322 N 
HETATM    8  C   UNL     1      -5.204   2.634 -32.256  1.00  0.00     0.274 C 
HETATM    9  O   UNL     1      -5.040   2.267 -31.098  1.00  0.00    -0.266 OA
HETATM   10  H   UNL     1      -4.805   3.946 -33.775  1.00  0.00     0.169 HD
BRANCH   8  11
HETATM   11  C   UNL     1      -6.196   2.033 -33.124  1.00  0.00     0.126 A 
HETATM   12  N   UNL     1      -6.159   0.743 -33.637  1.00  0.00    -0.300 N 
HETATM   13  C   UNL     1      -5.219  -0.282 -33.474  1.00  0.00     0.106 A 
HETATM   14  C   UNL     1      -7.318   0.579 -34.395  1.00  0.00     0.134 A 
HETATM   15  C   UNL     1      -5.417  -1.479 -34.061  1.00  0.00    -0.046 A 
HETATM   16  C   UNL     1      -4.463  -2.628 -33.948  1.00  0.00     0.049 C 
HETATM   17  C   UNL     1      -6.628  -1.671 -34.854  1.00  0.00     0.012 A 
HETATM   18  C   UNL     1      -7.532  -0.687 -35.010  1.00  0.00     0.051 A 
HETATM   19  N   UNL     1      -8.049   1.670 -34.416  1.00  0.00    -0.240 NA
HETATM   20  C   UNL     1      -7.359   2.570 -33.655  1.00  0.00     0.155 A 
ENDBRANCH   8  11
ENDBRANCH   1   7
BRANCH   4  21
HETATM   21  N   UNL     1      -0.655   6.980 -30.398  1.00  0.00    -0.309 N 
HETATM   22  C   UNL     1      -0.134   7.017 -29.142  1.00  0.00     0.320 C 
HETATM   23  N   UNL     1      -0.685   6.214 -28.197  1.00  0.00    -0.339 N 
HETATM   24  O   UNL     1       0.770   7.817 -28.907  1.00  0.00    -0.247 OA
HETATM   25  H   UNL     1      -1.636   5.928 -28.363  1.00  0.00     0.164 HD
HETATM   26  H   UNL     1      -0.294   7.757 -30.940  1.00  0.00     0.170 HD
BRANCH  23  27
HETATM   27  C   UNL     1      -0.270   6.274 -26.816  1.00  0.00     0.150 C 
BRANCH  27  28
HETATM   28  C   UNL     1      -1.433   6.554 -25.911  1.00  0.00    -0.018 C 
HETATM   29  C   UNL     1      -2.693   6.849 -26.262  1.00  0.00     0.008 C 
ENDBRANCH  27  28
ENDBRANCH  23  27
ENDBRANCH   4  21
TORSDOF 5
ENDMDL
MODEL 7
REMARK VINA RESULT:      -7.8      6.112      9.123
REMARK  5 active torsions:
REMARK  status: ('A' for Active; 'I' for Inactive)
REMARK    1  A    between atoms: C_8  and  C_9 
REMARK       I    between atoms: C_9  and  N_10 
REMARK    2  A    between atoms: N_10  and  C_11 
REMARK    3  A    between atoms: C_14  and  N_15 
REMARK       I    between atoms: N_15  and  C_16 
REMARK       I    between atoms: C_16  and  N_17 
REMARK    4  A    between atoms: N_17  and  C_18 
REMARK    5  A    between atoms: C_18  and  C_19 
ROOT
HETATM    1  C   UNL     1      -3.672   4.300 -32.185  1.00  0.00     0.035 A 
HETATM    2  C   UNL     1      -4.104   5.367 -31.399  1.00  0.00     0.032 A 
HETATM    3  C   UNL     1      -3.179   6.237 -30.797  1.00  0.00     0.032 A 
HETATM    4  C   UNL     1      -1.809   6.061 -30.985  1.00  0.00     0.036 A 
HETATM    5  C   UNL     1      -1.376   4.965 -31.739  1.00  0.00     0.032 A 
HETATM    6  C   UNL     1      -2.297   4.098 -32.339  1.00  0.00     0.032 A 
ENDROOT
BRANCH   1   7
HETATM    7  N   UNL     1      -4.524   3.384 -32.838  1.00  0.00    -0.322 N 
HETATM    8  C   UNL     1      -5.212   2.313 -32.291  1.00  0.00     0.274 C 
HETATM    9  O   UNL     1      -5.201   2.021 -31.101  1.00  0.00    -0.266 OA
HETATM   10  H   UNL     1      -4.700   3.583 -33.812  1.00  0.00     0.169 HD
BRANCH   8  11
HETATM   11  C   UNL     1      -5.991   1.571 -33.262  1.00  0.00     0.126 A 
HETATM   12  N   UNL     1      -5.783   0.251 -33.640  1.00  0.00    -0.300 N 
HETATM   13  C   UNL     1      -4.828  -0.684 -33.222  1.00  0.00     0.106 A 
HETATM   14  C   UNL     1      -6.772  -0.060 -34.573  1.00  0.00     0.134 A 
HETATM   15  C   UNL     1      -4.842  -1.935 -33.722  1.00  0.00    -0.046 A 
HETATM   16  C   UNL     1      -3.857  -2.994 -33.339  1.00  0.00     0.049 C 
HETATM   17  C   UNL     1      -5.875  -2.280 -34.695  1.00  0.00     0.012 A 
HETATM   18  C   UNL     1      -6.794  -1.383 -35.098  1.00  0.00     0.051 A 
HETATM   19  N   UNL     1      -7.553   0.967 -34.821  1.00  0.00    -0.240 NA
HETATM   20  C   UNL     1      -7.069   1.974 -34.036  1.00  0.00     0.155 A 
ENDBRANCH   8  11
ENDBRANCH   1   7
BRANCH   4  21
HETATM   21  N   UNL     1      -0.804   6.873 -30.433  1.00  0.00    -0.309 N 
HETATM   22  C   UNL     1      -0.230   6.962 -29.203  1.00  0.00     0.320 C 
HETATM   23  N   UNL     1      -0.836   6.328 -28.168  1.00  0.00    -0.339 N 
HETATM   24  O   UNL     1       0.774   7.660 -29.076  1.00  0.00    -0.247 OA
HETATM   25  H   UNL     1      -1.821   6.150 -28.277  1.00  0.00     0.164 HD
HETATM   26  H   UNL     1      -0.374   7.544 -31.060  1.00  0.00     0.170 HD
BRANCH  23  27
HETATM   27  C   UNL     1      -0.360   6.465 -26.812  1.00  0.00     0.150 C 
BRANCH  27  28
HETATM   28  C   UNL     1      -1.010   7.628 -26.124  1.00  0.00    -0.018 C 
HETATM   29  C   UNL     1      -0.429   8.757 -25.694  1.00  0.00     0.008 C 
ENDBRANCH  27  28
ENDBRANCH  23  27
ENDBRANCH   4  21
TORSDOF 5
ENDMDL
MODEL 8
REMARK VINA RESULT:      -7.6      9.619     12.576
REMARK  5 active torsions:
REMARK  status: ('A' for Active; 'I' for Inactive)
REMARK    1  A    between atoms: C_8  and  C_9 
REMARK       I    between atoms: C_9  and  N_10 
REMARK    2  A    between atoms: N_10  and  C_11 
REMARK    3  A    between atoms: C_14  and  N_15 
REMARK       I    between atoms: N_15  and  C_16 
REMARK       I    between atoms: C_16  and  N_17 
REMARK    4  A    between atoms: N_17  and  C_18 
REMARK    5  A    between atoms: C_18  and  C_19 
ROOT
HETATM    1  C   UNL     1      -0.546   6.882 -28.842  1.00  0.00     0.035 A 
HETATM    2  C   UNL     1       0.460   7.818 -29.078  1.00  0.00     0.032 A 
HETATM    3  C   UNL     1       1.369   8.168 -28.064  1.00  0.00     0.032 A 
HETATM    4  C   UNL     1       1.292   7.576 -26.804  1.00  0.00     0.036 A 
HETATM    5  C   UNL     1       0.256   6.668 -26.557  1.00  0.00     0.032 A 
HETATM    6  C   UNL     1      -0.649   6.320 -27.567  1.00  0.00     0.032 A 
ENDROOT
BRANCH   1   7
HETATM    7  N   UNL     1      -1.493   6.461 -29.799  1.00  0.00    -0.322 N 
HETATM    8  C   UNL     1      -1.347   5.500 -30.787  1.00  0.00     0.274 C 
HETATM    9  O   UNL     1      -0.335   4.828 -30.951  1.00  0.00    -0.266 OA
HETATM   10  H   UNL     1      -2.412   6.869 -29.700  1.00  0.00     0.169 HD
BRANCH   8  11
HETATM   11  C   UNL     1      -2.530   5.330 -31.607  1.00  0.00     0.126 A 
HETATM   12  N   UNL     1      -3.208   4.138 -31.825  1.00  0.00    -0.300 N 
HETATM   13  C   UNL     1      -2.966   2.844 -31.348  1.00  0.00     0.106 A 
HETATM   14  C   UNL     1      -4.293   4.439 -32.649  1.00  0.00     0.134 A 
HETATM   15  C   UNL     1      -3.794   1.835 -31.682  1.00  0.00    -0.046 A 
HETATM   16  C   UNL     1      -3.608   0.422 -31.227  1.00  0.00     0.049 C 
HETATM   17  C   UNL     1      -4.939   2.133 -32.539  1.00  0.00     0.012 A 
HETATM   18  C   UNL     1      -5.173   3.376 -32.998  1.00  0.00     0.051 A 
HETATM   19  N   UNL     1      -4.320   5.710 -32.979  1.00  0.00    -0.240 NA
HETATM   20  C   UNL     1      -3.233   6.258 -32.360  1.00  0.00     0.155 A 
ENDBRANCH   8  11
ENDBRANCH   1   7
BRANCH   4  21
HETATM   21  N   UNL     1       2.149   7.850 -25.726  1.00  0.00    -0.309 N 
HETATM   22  C   UNL     1       2.121   8.742 -24.700  1.00  0.00     0.320 C 
HETATM   23  N   UNL     1       1.233   9.766 -24.767  1.00  0.00    -0.339 N 
HETATM   24  O   UNL     1       2.939   8.614 -23.791  1.00  0.00    -0.247 OA
HETATM   25  H   UNL     1       0.921  10.018 -25.691  1.00  0.00     0.164 HD
HETATM   26  H   UNL     1       2.976   7.269 -25.650  1.00  0.00     0.170 HD
BRANCH  23  27
HETATM   27  C   UNL     1       1.214  10.819 -23.780  1.00  0.00     0.150 C 
BRANCH  27  28
HETATM   28  C   UNL     1       0.152  10.576 -22.748  1.00  0.00    -0.018 C 
HETATM   29  C   UNL     1      -1.051  10.010 -22.926  1.00  0.00     0.008 C 
ENDBRANCH  27  28
ENDBRANCH  23  27
ENDBRANCH   4  21
TORSDOF 5
ENDMDL
MODEL 9
REMARK VINA RESULT:      -7.5      1.983      2.900
REMARK  5 active torsions:
REMARK  status: ('A' for Active; 'I' for Inactive)
REMARK    1  A    between atoms: C_8  and  C_9 
REMARK       I    between atoms: C_9  and  N_10 
REMARK    2  A    between atoms: N_10  and  C_11 
REMARK    3  A    between atoms: C_14  and  N_15 
REMARK       I    between atoms: N_15  and  C_16 
REMARK       I    between atoms: C_16  and  N_17 
REMARK    4  A    between atoms: N_17  and  C_18 
REMARK    5  A    between atoms: C_18  and  C_19 
ROOT
HETATM    1  C   UNL     1      -8.961   1.387 -32.887  1.00  0.00     0.035 A 
HETATM    2  C   UNL     1     -10.112   0.923 -33.524  1.00  0.00     0.032 A 
HETATM    3  C   UNL     1     -11.299   1.676 -33.499  1.00  0.00     0.032 A 
HETATM    4  C   UNL     1     -11.348   2.908 -32.849  1.00  0.00     0.036 A 
HETATM    5  C   UNL     1     -10.205   3.351 -32.175  1.00  0.00     0.032 A 
HETATM    6  C   UNL     1      -9.023   2.602 -32.199  1.00  0.00     0.032 A 
ENDROOT
BRANCH   1   7
HETATM    7  N   UNL     1      -7.724   0.709 -32.868  1.00  0.00    -0.322 N 
HETATM    8  C   UNL     1      -6.763   0.649 -33.864  1.00  0.00     0.274 C 
HETATM    9  O   UNL     1      -6.845   1.233 -34.938  1.00  0.00    -0.266 OA
HETATM   10  H   UNL     1      -7.490   0.272 -31.988  1.00  0.00     0.169 HD
BRANCH   8  11
HETATM   11  C   UNL     1      -5.610  -0.154 -33.507  1.00  0.00     0.126 A 
HETATM   12  N   UNL     1      -5.417  -1.493 -33.823  1.00  0.00    -0.300 N 
HETATM   13  C   UNL     1      -6.222  -2.394 -34.531  1.00  0.00     0.106 A 
HETATM   14  C   UNL     1      -4.172  -1.851 -33.308  1.00  0.00     0.134 A 
HETATM   15  C   UNL     1      -5.802  -3.658 -34.735  1.00  0.00    -0.046 A 
HETATM   16  C   UNL     1      -6.599  -4.689 -35.473  1.00  0.00     0.049 C 
HETATM   17  C   UNL     1      -4.498  -4.048 -34.209  1.00  0.00     0.012 A 
HETATM   18  C   UNL     1      -3.723  -3.184 -33.529  1.00  0.00     0.051 A 
HETATM   19  N   UNL     1      -3.596  -0.853 -32.677  1.00  0.00    -0.240 NA
HETATM   20  C   UNL     1      -4.480   0.184 -32.778  1.00  0.00     0.155 A 
ENDBRANCH   8  11
ENDBRANCH   1   7
BRANCH   4  21
HETATM   21  N   UNL     1     -12.479   3.737 -32.769  1.00  0.00    -0.309 N 
HETATM   22  C   UNL     1     -13.066   4.620 -33.622  1.00  0.00     0.320 C 
HETATM   23  N   UNL     1     -12.368   5.011 -34.717  1.00  0.00    -0.339 N 
HETATM   24  O   UNL     1     -14.175   5.065 -33.330  1.00  0.00    -0.247 OA
HETATM   25  H   UNL     1     -11.367   4.931 -34.653  1.00  0.00     0.164 HD
HETATM   26  H   UNL     1     -13.012   3.688 -31.909  1.00  0.00     0.170 HD
BRANCH  23  27
HETATM   27  C   UNL     1     -12.869   6.028 -35.611  1.00  0.00     0.150 C 
BRANCH  27  28
HETATM   28  C   UNL     1     -11.875   7.139 -35.780  1.00  0.00    -0.018 C 
HETATM   29  C   UNL     1     -10.630   7.209 -35.286  1.00  0.00     0.008 C 
ENDBRANCH  27  28
ENDBRANCH  23  27
ENDBRANCH   4  21
TORSDOF 5
ENDMDL
MODEL 10
REMARK VINA RESULT:      -7.5      2.185      3.191
REMARK  5 active torsions:
REMARK  status: ('A' for Active; 'I' for Inactive)
REMARK    1  A    between atoms: C_8  and  C_9 
REMARK       I    between atoms: C_9  and  N_10 
REMARK    2  A    between atoms: N_10  and  C_11 
REMARK    3  A    between atoms: C_14  and  N_15 
REMARK       I    between atoms: N_15  and  C_16 
REMARK       I    between atoms: C_16  and  N_17 
REMARK    4  A    between atoms: N_17  and  C_18 
REMARK    5  A    between atoms: C_18  and  C_19 
ROOT
HETATM    1  C   UNL     1      -9.569   1.107 -33.341  1.00  0.00     0.035 A 
HETATM    2  C   UNL     1     -10.198   2.013 -34.195  1.00  0.00     0.032 A 
HETATM    3  C   UNL     1     -11.547   1.846 -34.552  1.00  0.00     0.032 A 
HETATM    4  C   UNL     1     -12.291   0.781 -34.047  1.00  0.00     0.036 A 
HETATM    5  C   UNL     1     -11.647  -0.150 -33.224  1.00  0.00     0.032 A 
HETATM    6  C   UNL     1     -10.304   0.015 -32.870  1.00  0.00     0.032 A 
ENDROOT
BRANCH   1   7
HETATM    7  N   UNL     1      -8.226   1.198 -32.920  1.00  0.00    -0.322 N 
HETATM    8  C   UNL     1      -7.723   1.805 -31.780  1.00  0.00     0.274 C 
HETATM    9  O   UNL     1      -8.413   2.343 -30.923  1.00  0.00    -0.266 OA
HETATM   10  H   UNL     1      -7.563   0.696 -33.493  1.00  0.00     0.169 HD
BRANCH   8  11
HETATM   11  C   UNL     1      -6.280   1.717 -31.669  1.00  0.00     0.126 A 
HETATM   12  N   UNL     1      -5.479   0.716 -32.201  1.00  0.00    -0.300 N 
HETATM   13  C   UNL     1      -5.807  -0.420 -32.950  1.00  0.00     0.106 A 
HETATM   14  C   UNL     1      -4.162   1.042 -31.878  1.00  0.00     0.134 A 
HETATM   15  C   UNL     1      -4.835  -1.246 -33.386  1.00  0.00    -0.046 A 
HETATM   16  C   UNL     1      -5.093  -2.486 -34.184  1.00  0.00     0.049 C 
HETATM   17  C   UNL     1      -3.450  -0.917 -33.061  1.00  0.00     0.012 A 
HETATM   18  C   UNL     1      -3.133   0.175 -32.342  1.00  0.00     0.051 A 
HETATM   19  N   UNL     1      -4.090   2.143 -31.166  1.00  0.00    -0.240 NA
HETATM   20  C   UNL     1      -5.385   2.552 -31.018  1.00  0.00     0.155 A 
ENDBRANCH   8  11
ENDBRANCH   1   7
BRANCH   4  21
HETATM   21  N   UNL     1     -13.642   0.527 -34.336  1.00  0.00    -0.309 N 
HETATM   22  C   UNL     1     -14.819   1.000 -33.844  1.00  0.00     0.320 C 
HETATM   23  N   UNL     1     -14.789   1.703 -32.684  1.00  0.00    -0.339 N 
HETATM   24  O   UNL     1     -15.857   0.718 -34.439  1.00  0.00    -0.247 OA
HETATM   25  H   UNL     1     -14.001   1.527 -32.082  1.00  0.00     0.164 HD
HETATM   26  H   UNL     1     -13.826  -0.138 -35.079  1.00  0.00     0.170 HD
BRANCH  23  27
HETATM   27  C   UNL     1     -16.001   2.142 -32.033  1.00  0.00     0.150 C 
BRANCH  27  28
HETATM   28  C   UNL     1     -16.097   3.638 -32.017  1.00  0.00    -0.018 C 
HETATM   29  C   UNL     1     -15.100   4.523 -31.869  1.00  0.00     0.008 C 
ENDBRANCH  27  28
ENDBRANCH  23  27
ENDBRANCH   4  21
TORSDOF 5
ENDMDL
