MODEL 1
REMARK VINA RESULT:      -7.9      0.000      0.000
REMARK  14 active torsions:
REMARK  status: ('A' for Active; 'I' for Inactive)
REMARK    1  A    between atoms: C_2  and  N_3 
REMARK    2  A    between atoms: N_3  and  C_5 
REMARK    3  A    between atoms: N_3  and  C_37 
REMARK    4  A    between atoms: C_5  and  C_6 
REMARK    5  A    between atoms: C_6  and  N_7 
REMARK    6  A    between atoms: C_10  and  O_11 
REMARK    7  A    between atoms: C_12  and  C_13 
REMARK    8  A    between atoms: C_13  and  C_14 
REMARK    9  A    between atoms: C_18  and  O_19 
REMARK   10  A    between atoms: O_19  and  C_20 
REMARK   11  A    between atoms: C_26  and  C_27 
REMARK   12  A    between atoms: C_29  and  O_30 
REMARK   13  A    between atoms: O_30  and  C_31 
REMARK   14  A    between atoms: C_33  and  O_34 
ROOT
HETATM    1  N   UNL     1      -6.720   4.412 -32.259  1.00  0.00    -0.332 N 
HETATM    2  C   UNL     1      -7.008   4.056 -30.962  1.00  0.00     0.278 C 
HETATM    3  O   UNL     1      -7.981   4.379 -30.303  1.00  0.00    -0.265 OA
HETATM    4  C   UNL     1      -5.965   3.115 -30.512  1.00  0.00     0.146 C 
HETATM    5  C   UNL     1      -5.185   2.866 -31.571  1.00  0.00     0.059 C 
HETATM    6  C   UNL     1      -5.513   3.748 -32.740  1.00  0.00     0.161 C 
ENDROOT
BRANCH   5   7
HETATM    7  C   UNL     1      -4.143   1.828 -31.739  1.00  0.00     0.193 C 
HETATM    8  O   UNL     1      -3.038   1.985 -31.226  1.00  0.00    -0.287 OA
BRANCH   7   9
HETATM    9  C   UNL     1      -4.385   0.645 -32.599  1.00  0.00     0.015 A 
HETATM   10  C   UNL     1      -5.557   0.510 -33.351  1.00  0.00     0.025 A 
HETATM   11  C   UNL     1      -5.777  -0.635 -34.131  1.00  0.00    -0.028 A 
HETATM   12  C   UNL     1      -7.077  -0.795 -34.873  1.00  0.00     0.051 C 
HETATM   13  C   UNL     1      -4.792  -1.639 -34.184  1.00  0.00     0.075 A 
HETATM   14  C   UNL     1      -3.589  -1.460 -33.496  1.00  0.00     0.038 A 
HETATM   15  C   UNL     1      -3.385  -0.323 -32.704  1.00  0.00     0.018 A 
BRANCH  13  16
HETATM   16  O   UNL     1      -5.116  -2.731 -34.941  1.00  0.00    -0.346 OA
BRANCH  16  17
HETATM   17  C   UNL     1      -5.596  -3.923 -34.310  1.00  0.00     0.121 C 
HETATM   18  C   UNL     1      -6.686  -4.584 -35.153  1.00  0.00     0.040 C 
HETATM   19  C   UNL     1      -4.395  -4.860 -34.203  1.00  0.00     0.040 C 
ENDBRANCH  16  17
ENDBRANCH  13  16
ENDBRANCH   7   9
ENDBRANCH   5   7
BRANCH   4  20
HETATM   20  O   UNL     1      -5.954   2.553 -29.274  1.00  0.00    -0.355 OA
HETATM   21  H   UNL     1      -6.795   2.062 -29.174  1.00  0.00     0.218 HD
ENDBRANCH   4  20
BRANCH   6  22
HETATM   22  C   UNL     1      -4.470   4.797 -33.099  1.00  0.00    -0.028 A 
HETATM   23  C   UNL     1      -3.897   5.592 -32.085  1.00  0.00     0.049 A 
HETATM   24  C   UNL     1      -2.895   6.516 -32.387  1.00  0.00     0.102 A 
HETATM   25  C   UNL     1      -2.470   6.644 -33.714  1.00  0.00     0.099 A 
HETATM   26  C   UNL     1      -3.032   5.891 -34.733  1.00  0.00     0.040 A 
HETATM   27  C   UNL     1      -4.032   4.971 -34.428  1.00  0.00     0.012 A 
BRANCH  24  28
HETATM   28  O   UNL     1      -2.244   7.328 -31.497  1.00  0.00    -0.349 OA
BRANCH  28  29
HETATM   29  C   UNL     1      -1.529   6.692 -30.438  1.00  0.00     0.171 C 
HETATM   30  C   UNL     1      -0.164   6.294 -30.973  1.00  0.00     0.034 C 
ENDBRANCH  28  29
ENDBRANCH  24  28
BRANCH  25  31
HETATM   31  O   UNL     1      -1.482   7.532 -34.041  1.00  0.00    -0.358 OA
HETATM   32  H   UNL     1      -0.889   7.048 -34.647  1.00  0.00     0.218 HD
ENDBRANCH  25  31
ENDBRANCH   6  22
BRANCH   1  33
HETATM   33  C   UNL     1      -7.689   5.020 -33.154  1.00  0.00     0.155 C 
BRANCH  33  34
HETATM   34  C   UNL     1      -8.610   3.995 -33.842  1.00  0.00     0.254 C 
BRANCH  34  35
HETATM   35  N   UNL     1      -9.650   3.384 -32.907  1.00  0.00    -0.070 N 
HETATM   36  H   UNL     1      -9.284   3.552 -31.959  1.00  0.00     0.279 HD
BRANCH  35  37
HETATM   37  C   UNL     1      -9.793   1.872 -33.016  1.00  0.00     0.230 C 
HETATM   38  C   UNL     1      -8.966   1.147 -31.970  1.00  0.00     0.034 C 
ENDBRANCH  35  37
BRANCH  35  39
HETATM   39  C   UNL     1     -11.014   4.052 -32.943  1.00  0.00     0.230 C 
HETATM   40  C   UNL     1     -11.317   4.630 -34.312  1.00  0.00     0.034 C 
ENDBRANCH  35  39
ENDBRANCH  34  35
ENDBRANCH  33  34
ENDBRANCH   1  33
TORSDOF 14
ENDMDL
MODEL 2
REMARK VINA RESULT:      -7.7      2.041      7.657
REMARK  14 active torsions:
REMARK  status: ('A' for Active; 'I' for Inactive)
REMARK    1  A    between atoms: C_2  and  N_3 
REMARK    2  A    between atoms: N_3  and  C_5 
REMARK    3  A    between atoms: N_3  and  C_37 
REMARK    4  A    between atoms: C_5  and  C_6 
REMARK    5  A    between atoms: C_6  and  N_7 
REMARK    6  A    between atoms: C_10  and  O_11 
REMARK    7  A    between atoms: C_12  and  C_13 
REMARK    8  A    between atoms: C_13  and  C_14 
REMARK    9  A    between atoms: C_18  and  O_19 
REMARK   10  A    between atoms: O_19  and  C_20 
REMARK   11  A    between atoms: C_26  and  C_27 
REMARK   12  A    between atoms: C_29  and  O_30 
REMARK   13  A    between atoms: O_30  and  C_31 
REMARK   14  A    between atoms: C_33  and  O_34 
ROOT
HETATM    1  N   UNL     1      -6.193   3.318 -31.701  1.00  0.00    -0.332 N 
HETATM    2  C   UNL     1      -6.563   4.166 -32.720  1.00  0.00     0.278 C 
HETATM    3  O   UNL     1      -7.684   4.566 -32.981  1.00  0.00    -0.265 OA
HETATM    4  C   UNL     1      -5.335   4.600 -33.411  1.00  0.00     0.146 C 
HETATM    5  C   UNL     1      -4.303   4.099 -32.719  1.00  0.00     0.059 C 
HETATM    6  C   UNL     1      -4.746   3.147 -31.647  1.00  0.00     0.161 C 
ENDROOT
BRANCH   5   7
HETATM    7  C   UNL     1      -2.862   4.414 -32.835  1.00  0.00     0.193 C 
HETATM    8  O   UNL     1      -2.194   3.895 -33.725  1.00  0.00    -0.287 OA
BRANCH   7   9
HETATM    9  C   UNL     1      -2.193   5.275 -31.831  1.00  0.00     0.015 A 
HETATM   10  C   UNL     1      -2.922   6.024 -30.900  1.00  0.00     0.025 A 
HETATM   11  C   UNL     1      -2.266   6.857 -29.982  1.00  0.00    -0.028 A 
HETATM   12  C   UNL     1      -3.072   7.711 -29.041  1.00  0.00     0.051 C 
HETATM   13  C   UNL     1      -0.861   6.911 -29.975  1.00  0.00     0.075 A 
HETATM   14  C   UNL     1      -0.135   6.099 -30.851  1.00  0.00     0.038 A 
HETATM   15  C   UNL     1      -0.798   5.285 -31.777  1.00  0.00     0.018 A 
BRANCH  13  16
HETATM   16  O   UNL     1      -0.318   7.780 -29.069  1.00  0.00    -0.346 OA
BRANCH  16  17
HETATM   17  C   UNL     1       0.773   7.362 -28.242  1.00  0.00     0.121 C 
HETATM   18  C   UNL     1       1.567   8.567 -27.738  1.00  0.00     0.040 C 
HETATM   19  C   UNL     1       0.151   6.629 -27.055  1.00  0.00     0.040 C 
ENDBRANCH  16  17
ENDBRANCH  13  16
ENDBRANCH   7   9
ENDBRANCH   5   7
BRANCH   4  20
HETATM   20  O   UNL     1      -5.339   5.459 -34.465  1.00  0.00    -0.355 OA
HETATM   21  H   UNL     1      -5.512   6.353 -34.106  1.00  0.00     0.218 HD
ENDBRANCH   4  20
BRANCH   6  22
HETATM   22  C   UNL     1      -4.403   1.682 -31.872  1.00  0.00    -0.028 A 
HETATM   23  C   UNL     1      -5.049   0.959 -32.896  1.00  0.00     0.049 A 
HETATM   24  C   UNL     1      -4.703  -0.369 -33.156  1.00  0.00     0.102 A 
HETATM   25  C   UNL     1      -3.707  -0.973 -32.383  1.00  0.00     0.099 A 
HETATM   26  C   UNL     1      -3.071  -0.292 -31.356  1.00  0.00     0.040 A 
HETATM   27  C   UNL     1      -3.419   1.031 -31.098  1.00  0.00     0.012 A 
BRANCH  24  28
HETATM   28  O   UNL     1      -5.235  -1.170 -34.131  1.00  0.00    -0.349 OA
BRANCH  28  29
HETATM   29  C   UNL     1      -6.588  -1.593 -33.962  1.00  0.00     0.171 C 
HETATM   30  C   UNL     1      -6.732  -2.957 -34.615  1.00  0.00     0.034 C 
ENDBRANCH  28  29
ENDBRANCH  24  28
BRANCH  25  31
HETATM   31  O   UNL     1      -3.337  -2.268 -32.621  1.00  0.00    -0.358 OA
HETATM   32  H   UNL     1      -3.755  -2.506 -33.470  1.00  0.00     0.218 HD
ENDBRANCH  25  31
ENDBRANCH   6  22
BRANCH   1  33
HETATM   33  C   UNL     1      -7.064   2.980 -30.589  1.00  0.00     0.155 C 
BRANCH  33  34
HETATM   34  C   UNL     1      -7.928   1.732 -30.849  1.00  0.00     0.254 C 
BRANCH  34  35
HETATM   35  N   UNL     1      -9.415   2.039 -31.003  1.00  0.00    -0.070 N 
HETATM   36  H   UNL     1      -9.889   1.359 -30.393  1.00  0.00     0.279 HD
BRANCH  35  37
HETATM   37  C   UNL     1      -9.975   1.783 -32.396  1.00  0.00     0.230 C 
HETATM   38  C   UNL     1      -8.917   1.254 -33.345  1.00  0.00     0.034 C 
ENDBRANCH  35  37
BRANCH  35  39
HETATM   39  C   UNL     1      -9.842   3.407 -30.500  1.00  0.00     0.230 C 
HETATM   40  C   UNL     1     -10.863   4.047 -31.421  1.00  0.00     0.034 C 
ENDBRANCH  35  39
ENDBRANCH  34  35
ENDBRANCH  33  34
ENDBRANCH   1  33
TORSDOF 14
ENDMDL
MODEL 3
REMARK VINA RESULT:      -7.7      2.306      8.366
REMARK  14 active torsions:
REMARK  status: ('A' for Active; 'I' for Inactive)
REMARK    1  A    between atoms: C_2  and  N_3 
REMARK    2  A    between atoms: N_3  and  C_5 
REMARK    3  A    between atoms: N_3  and  C_37 
REMARK    4  A    between atoms: C_5  and  C_6 
REMARK    5  A    between atoms: C_6  and  N_7 
REMARK    6  A    between atoms: C_10  and  O_11 
REMARK    7  A    between atoms: C_12  and  C_13 
REMARK    8  A    between atoms: C_13  and  C_14 
REMARK    9  A    between atoms: C_18  and  O_19 
REMARK   10  A    between atoms: O_19  and  C_20 
REMARK   11  A    between atoms: C_26  and  C_27 
REMARK   12  A    between atoms: C_29  and  O_30 
REMARK   13  A    between atoms: O_30  and  C_31 
REMARK   14  A    between atoms: C_33  and  O_34 
ROOT
HETATM    1  N   UNL     1      -5.247   0.793 -31.912  1.00  0.00    -0.332 N 
HETATM    2  C   UNL     1      -4.032   1.115 -31.351  1.00  0.00     0.278 C 
HETATM    3  O   UNL     1      -3.283   0.380 -30.733  1.00  0.00    -0.265 OA
HETATM    4  C   UNL     1      -3.730   2.513 -31.709  1.00  0.00     0.146 C 
HETATM    5  C   UNL     1      -4.696   2.918 -32.543  1.00  0.00     0.059 C 
HETATM    6  C   UNL     1      -5.806   1.914 -32.658  1.00  0.00     0.161 C 
ENDROOT
BRANCH   5   7
HETATM    7  C   UNL     1      -4.757   4.140 -33.377  1.00  0.00     0.193 C 
HETATM    8  O   UNL     1      -5.207   4.077 -34.518  1.00  0.00    -0.287 OA
BRANCH   7   9
HETATM    9  C   UNL     1      -4.192   5.419 -32.886  1.00  0.00     0.015 A 
HETATM   10  C   UNL     1      -2.924   5.862 -33.276  1.00  0.00     0.025 A 
HETATM   11  C   UNL     1      -2.399   7.061 -32.770  1.00  0.00    -0.028 A 
HETATM   12  C   UNL     1      -1.002   7.480 -33.143  1.00  0.00     0.051 C 
HETATM   13  C   UNL     1      -3.172   7.841 -31.891  1.00  0.00     0.075 A 
HETATM   14  C   UNL     1      -4.470   7.435 -31.570  1.00  0.00     0.038 A 
HETATM   15  C   UNL     1      -4.979   6.228 -32.064  1.00  0.00     0.018 A 
BRANCH  13  16
HETATM   16  O   UNL     1      -2.558   8.970 -31.425  1.00  0.00    -0.346 OA
BRANCH  16  17
HETATM   17  C   UNL     1      -2.595   9.281 -30.028  1.00  0.00     0.121 C 
HETATM   18  C   UNL     1      -1.465   8.572 -29.282  1.00  0.00     0.040 C 
HETATM   19  C   UNL     1      -2.404  10.793 -29.923  1.00  0.00     0.040 C 
ENDBRANCH  16  17
ENDBRANCH  13  16
ENDBRANCH   7   9
ENDBRANCH   5   7
BRANCH   4  20
HETATM   20  O   UNL     1      -2.590   3.149 -31.325  1.00  0.00    -0.355 OA
HETATM   21  H   UNL     1      -2.114   3.403 -32.142  1.00  0.00     0.218 HD
ENDBRANCH   4  20
BRANCH   6  22
HETATM   22  C   UNL     1      -7.136   2.319 -32.039  1.00  0.00    -0.028 A 
HETATM   23  C   UNL     1      -8.335   2.101 -32.749  1.00  0.00     0.049 A 
HETATM   24  C   UNL     1      -9.569   2.410 -32.172  1.00  0.00     0.102 A 
HETATM   25  C   UNL     1      -9.598   2.943 -30.880  1.00  0.00     0.099 A 
HETATM   26  C   UNL     1      -8.433   3.188 -30.169  1.00  0.00     0.040 A 
HETATM   27  C   UNL     1      -7.204   2.880 -30.747  1.00  0.00     0.012 A 
BRANCH  24  28
HETATM   28  O   UNL     1     -10.800   2.225 -32.742  1.00  0.00    -0.349 OA
BRANCH  28  29
HETATM   29  C   UNL     1     -10.952   1.108 -33.618  1.00  0.00     0.171 C 
HETATM   30  C   UNL     1     -12.429   0.756 -33.669  1.00  0.00     0.034 C 
ENDBRANCH  28  29
ENDBRANCH  24  28
BRANCH  25  31
HETATM   31  O   UNL     1     -10.790   3.245 -30.282  1.00  0.00    -0.358 OA
HETATM   32  H   UNL     1     -10.625   4.060 -29.770  1.00  0.00     0.218 HD
ENDBRANCH  25  31
ENDBRANCH   6  22
BRANCH   1  33
HETATM   33  C   UNL     1      -5.705  -0.574 -32.092  1.00  0.00     0.155 C 
BRANCH  33  34
HETATM   34  C   UNL     1      -4.909  -1.347 -33.159  1.00  0.00     0.254 C 
BRANCH  34  35
HETATM   35  N   UNL     1      -5.701  -1.617 -34.435  1.00  0.00    -0.070 N 
HETATM   36  H   UNL     1      -5.304  -0.972 -35.133  1.00  0.00     0.279 HD
BRANCH  35  37
HETATM   37  C   UNL     1      -7.178  -1.255 -34.355  1.00  0.00     0.230 C 
HETATM   38  C   UNL     1      -7.547  -0.156 -35.334  1.00  0.00     0.034 C 
ENDBRANCH  35  37
BRANCH  35  39
HETATM   39  C   UNL     1      -5.525  -3.009 -35.017  1.00  0.00     0.230 C 
HETATM   40  C   UNL     1      -6.786  -3.838 -34.873  1.00  0.00     0.034 C 
ENDBRANCH  35  39
ENDBRANCH  34  35
ENDBRANCH  33  34
ENDBRANCH   1  33
TORSDOF 14
ENDMDL
MODEL 4
REMARK VINA RESULT:      -7.6      2.815      5.892
REMARK  14 active torsions:
REMARK  status: ('A' for Active; 'I' for Inactive)
REMARK    1  A    between atoms: C_2  and  N_3 
REMARK    2  A    between atoms: N_3  and  C_5 
REMARK    3  A    between atoms: N_3  and  C_37 
REMARK    4  A    between atoms: C_5  and  C_6 
REMARK    5  A    between atoms: C_6  and  N_7 
REMARK    6  A    between atoms: C_10  and  O_11 
REMARK    7  A    between atoms: C_12  and  C_13 
REMARK    8  A    between atoms: C_13  and  C_14 
REMARK    9  A    between atoms: C_18  and  O_19 
REMARK   10  A    between atoms: O_19  and  C_20 
REMARK   11  A    between atoms: C_26  and  C_27 
REMARK   12  A    between atoms: C_29  and  O_30 
REMARK   13  A    between atoms: O_30  and  C_31 
REMARK   14  A    between atoms: C_33  and  O_34 
ROOT
HETATM    1  N   UNL     1      -2.797   5.034 -32.614  1.00  0.00    -0.332 N 
HETATM    2  C   UNL     1      -2.626   5.366 -33.939  1.00  0.00     0.278 C 
HETATM    3  O   UNL     1      -1.600   5.732 -34.485  1.00  0.00    -0.265 OA
HETATM    4  C   UNL     1      -3.901   5.111 -34.634  1.00  0.00     0.146 C 
HETATM    5  C   UNL     1      -4.722   4.542 -33.742  1.00  0.00     0.059 C 
HETATM    6  C   UNL     1      -4.147   4.547 -32.355  1.00  0.00     0.161 C 
ENDROOT
BRANCH   5   7
HETATM    7  C   UNL     1      -6.027   3.879 -33.965  1.00  0.00     0.193 C 
HETATM    8  O   UNL     1      -7.035   4.559 -34.133  1.00  0.00    -0.287 OA
BRANCH   7   9
HETATM    9  C   UNL     1      -6.147   2.403 -33.892  1.00  0.00     0.015 A 
HETATM   10  C   UNL     1      -5.643   1.676 -32.808  1.00  0.00     0.025 A 
HETATM   11  C   UNL     1      -5.739   0.277 -32.780  1.00  0.00    -0.028 A 
HETATM   12  C   UNL     1      -5.124  -0.491 -31.641  1.00  0.00     0.051 C 
HETATM   13  C   UNL     1      -6.381  -0.396 -33.835  1.00  0.00     0.075 A 
HETATM   14  C   UNL     1      -6.955   0.341 -34.874  1.00  0.00     0.038 A 
HETATM   15  C   UNL     1      -6.838   1.736 -34.905  1.00  0.00     0.018 A 
BRANCH  13  16
HETATM   16  O   UNL     1      -6.391  -1.760 -33.733  1.00  0.00    -0.346 OA
BRANCH  16  17
HETATM   17  C   UNL     1      -5.867  -2.562 -34.797  1.00  0.00     0.121 C 
HETATM   18  C   UNL     1      -4.422  -2.968 -34.513  1.00  0.00     0.040 C 
HETATM   19  C   UNL     1      -6.745  -3.810 -34.861  1.00  0.00     0.040 C 
ENDBRANCH  16  17
ENDBRANCH  13  16
ENDBRANCH   7   9
ENDBRANCH   5   7
BRANCH   4  20
HETATM   20  O   UNL     1      -4.077   5.321 -35.966  1.00  0.00    -0.355 OA
HETATM   21  H   UNL     1      -3.949   4.459 -36.412  1.00  0.00     0.218 HD
ENDBRANCH   4  20
BRANCH   6  22
HETATM   22  C   UNL     1      -4.831   5.466 -31.353  1.00  0.00    -0.028 A 
HETATM   23  C   UNL     1      -4.916   6.850 -31.614  1.00  0.00     0.049 A 
HETATM   24  C   UNL     1      -5.593   7.698 -30.735  1.00  0.00     0.102 A 
HETATM   25  C   UNL     1      -6.182   7.155 -29.589  1.00  0.00     0.099 A 
HETATM   26  C   UNL     1      -6.095   5.803 -29.298  1.00  0.00     0.040 A 
HETATM   27  C   UNL     1      -5.419   4.959 -30.176  1.00  0.00     0.012 A 
BRANCH  24  28
HETATM   28  O   UNL     1      -5.767   9.048 -30.883  1.00  0.00    -0.349 OA
BRANCH  28  29
HETATM   29  C   UNL     1      -4.594   9.861 -30.877  1.00  0.00     0.171 C 
HETATM   30  C   UNL     1      -4.505  10.536 -29.518  1.00  0.00     0.034 C 
ENDBRANCH  28  29
ENDBRANCH  24  28
BRANCH  25  31
HETATM   31  O   UNL     1      -6.862   7.957 -28.714  1.00  0.00    -0.358 OA
HETATM   32  H   UNL     1      -7.278   7.349 -28.074  1.00  0.00     0.218 HD
ENDBRANCH  25  31
ENDBRANCH   6  22
BRANCH   1  33
HETATM   33  C   UNL     1      -1.692   4.802 -31.701  1.00  0.00     0.155 C 
BRANCH  33  34
HETATM   34  C   UNL     1      -1.093   6.098 -31.127  1.00  0.00     0.254 C 
BRANCH  34  35
HETATM   35  N   UNL     1      -1.321   6.265 -29.627  1.00  0.00    -0.070 N 
HETATM   36  H   UNL     1      -1.898   5.456 -29.357  1.00  0.00     0.279 HD
BRANCH  35  37
HETATM   37  C   UNL     1      -2.144   7.488 -29.242  1.00  0.00     0.230 C 
HETATM   38  C   UNL     1      -2.914   7.270 -27.953  1.00  0.00     0.034 C 
ENDBRANCH  35  37
BRANCH  35  39
HETATM   39  C   UNL     1      -0.067   6.176 -28.774  1.00  0.00     0.230 C 
HETATM   40  C   UNL     1       0.670   7.501 -28.725  1.00  0.00     0.034 C 
ENDBRANCH  35  39
ENDBRANCH  34  35
ENDBRANCH  33  34
ENDBRANCH   1  33
TORSDOF 14
ENDMDL
MODEL 5
REMARK VINA RESULT:      -7.6      2.136      8.007
REMARK  14 active torsions:
REMARK  status: ('A' for Active; 'I' for Inactive)
REMARK    1  A    between atoms: C_2  and  N_3 
REMARK    2  A    between atoms: N_3  and  C_5 
REMARK    3  A    between atoms: N_3  and  C_37 
REMARK    4  A    between atoms: C_5  and  C_6 
REMARK    5  A    between atoms: C_6  and  N_7 
REMARK    6  A    between atoms: C_10  and  O_11 
REMARK    7  A    between atoms: C_12  and  C_13 
REMARK    8  A    between atoms: C_13  and  C_14 
REMARK    9  A    between atoms: C_18  and  O_19 
REMARK   10  A    between atoms: O_19  and  C_20 
REMARK   11  A    between atoms: C_26  and  C_27 
REMARK   12  A    between atoms: C_29  and  O_30 
REMARK   13  A    between atoms: O_30  and  C_31 
REMARK   14  A    between atoms: C_33  and  O_34 
ROOT
HETATM    1  N   UNL     1      -5.389   2.911 -32.001  1.00  0.00    -0.332 N 
HETATM    2  C   UNL     1      -5.754   3.422 -30.776  1.00  0.00     0.278 C 
HETATM    3  O   UNL     1      -5.191   4.294 -30.139  1.00  0.00    -0.265 OA
HETATM    4  C   UNL     1      -7.028   2.788 -30.388  1.00  0.00     0.146 C 
HETATM    5  C   UNL     1      -7.418   2.034 -31.424  1.00  0.00     0.059 C 
HETATM    6  C   UNL     1      -6.366   1.946 -32.491  1.00  0.00     0.161 C 
ENDROOT
BRANCH   5   7
HETATM    7  C   UNL     1      -8.722   1.375 -31.659  1.00  0.00     0.193 C 
HETATM    8  O   UNL     1      -8.875   0.197 -31.347  1.00  0.00    -0.287 OA
BRANCH   7   9
HETATM    9  C   UNL     1      -9.817   2.092 -32.355  1.00  0.00     0.015 A 
HETATM   10  C   UNL     1     -10.589   1.475 -33.345  1.00  0.00     0.025 A 
HETATM   11  C   UNL     1     -11.597   2.186 -34.012  1.00  0.00    -0.028 A 
HETATM   12  C   UNL     1     -12.365   1.526 -35.126  1.00  0.00     0.051 C 
HETATM   13  C   UNL     1     -11.856   3.522 -33.656  1.00  0.00     0.075 A 
HETATM   14  C   UNL     1     -11.137   4.108 -32.610  1.00  0.00     0.038 A 
HETATM   15  C   UNL     1     -10.120   3.397 -31.962  1.00  0.00     0.018 A 
BRANCH  13  16
HETATM   16  O   UNL     1     -12.831   4.140 -34.389  1.00  0.00    -0.346 OA
BRANCH  16  17
HETATM   17  C   UNL     1     -12.899   5.569 -34.431  1.00  0.00     0.121 C 
HETATM   18  C   UNL     1     -13.130   6.062 -35.859  1.00  0.00     0.040 C 
HETATM   19  C   UNL     1     -14.086   5.965 -33.556  1.00  0.00     0.040 C 
ENDBRANCH  16  17
ENDBRANCH  13  16
ENDBRANCH   7   9
ENDBRANCH   5   7
BRANCH   4  20
HETATM   20  O   UNL     1      -7.680   3.078 -29.230  1.00  0.00    -0.355 OA
HETATM   21  H   UNL     1      -8.148   3.927 -29.369  1.00  0.00     0.218 HD
ENDBRANCH   4  20
BRANCH   6  22
HETATM   22  C   UNL     1      -5.696   0.590 -32.656  1.00  0.00    -0.028 A 
HETATM   23  C   UNL     1      -6.063  -0.249 -33.729  1.00  0.00     0.049 A 
HETATM   24  C   UNL     1      -5.417  -1.470 -33.931  1.00  0.00     0.102 A 
HETATM   25  C   UNL     1      -4.400  -1.852 -33.050  1.00  0.00     0.099 A 
HETATM   26  C   UNL     1      -4.035  -1.057 -31.974  1.00  0.00     0.040 A 
HETATM   27  C   UNL     1      -4.682   0.160 -31.775  1.00  0.00     0.012 A 
BRANCH  24  28
HETATM   28  O   UNL     1      -5.661  -2.360 -34.943  1.00  0.00    -0.349 OA
BRANCH  28  29
HETATM   29  C   UNL     1      -6.785  -3.226 -34.791  1.00  0.00     0.171 C 
HETATM   30  C   UNL     1      -6.414  -4.574 -35.386  1.00  0.00     0.034 C 
ENDBRANCH  28  29
ENDBRANCH  24  28
BRANCH  25  31
HETATM   31  O   UNL     1      -3.740  -3.036 -33.227  1.00  0.00    -0.358 OA
HETATM   32  H   UNL     1      -2.985  -2.827 -33.810  1.00  0.00     0.218 HD
ENDBRANCH  25  31
ENDBRANCH   6  22
BRANCH   1  33
HETATM   33  C   UNL     1      -4.407   3.541 -32.867  1.00  0.00     0.155 C 
BRANCH  33  34
HETATM   34  C   UNL     1      -2.956   3.161 -32.521  1.00  0.00     0.254 C 
BRANCH  34  35
HETATM   35  N   UNL     1      -1.976   4.325 -32.638  1.00  0.00    -0.070 N 
HETATM   36  H   UNL     1      -1.109   3.904 -33.001  1.00  0.00     0.279 HD
BRANCH  35  37
HETATM   37  C   UNL     1      -1.584   4.962 -31.312  1.00  0.00     0.230 C 
HETATM   38  C   UNL     1      -0.179   5.534 -31.350  1.00  0.00     0.034 C 
ENDBRANCH  35  37
BRANCH  35  39
HETATM   39  C   UNL     1      -2.365   5.392 -33.647  1.00  0.00     0.230 C 
HETATM   40  C   UNL     1      -1.605   5.234 -34.949  1.00  0.00     0.034 C 
ENDBRANCH  35  39
ENDBRANCH  34  35
ENDBRANCH  33  34
ENDBRANCH   1  33
TORSDOF 14
ENDMDL
MODEL 6
REMARK VINA RESULT:      -7.6      2.772      6.819
REMARK  14 active torsions:
REMARK  status: ('A' for Active; 'I' for Inactive)
REMARK    1  A    between atoms: C_2  and  N_3 
REMARK    2  A    between atoms: N_3  and  C_5 
REMARK    3  A    between atoms: N_3  and  C_37 
REMARK    4  A    between atoms: C_5  and  C_6 
REMARK    5  A    between atoms: C_6  and  N_7 
REMARK    6  A    between atoms: C_10  and  O_11 
REMARK    7  A    between atoms: C_12  and  C_13 
REMARK    8  A    between atoms: C_13  and  C_14 
REMARK    9  A    between atoms: C_18  and  O_19 
REMARK   10  A    between atoms: O_19  and  C_20 
REMARK   11  A    between atoms: C_26  and  C_27 
REMARK   12  A    between atoms: C_29  and  O_30 
REMARK   13  A    between atoms: O_30  and  C_31 
REMARK   14  A    between atoms: C_33  and  O_34 
ROOT
HETATM    1  N   UNL     1     -10.683   2.837 -34.084  1.00  0.00    -0.332 N 
HETATM    2  C   UNL     1     -10.691   3.953 -34.889  1.00  0.00     0.278 C 
HETATM    3  O   UNL     1     -11.517   4.252 -35.733  1.00  0.00    -0.265 OA
HETATM    4  C   UNL     1      -9.553   4.802 -34.490  1.00  0.00     0.146 C 
HETATM    5  C   UNL     1      -8.999   4.228 -33.414  1.00  0.00     0.059 C 
HETATM    6  C   UNL     1      -9.584   2.876 -33.127  1.00  0.00     0.161 C 
ENDROOT
BRANCH   5   7
HETATM    7  C   UNL     1      -7.986   4.774 -32.484  1.00  0.00     0.193 C 
HETATM    8  O   UNL     1      -8.345   5.423 -31.505  1.00  0.00    -0.287 OA
BRANCH   7   9
HETATM    9  C   UNL     1      -6.539   4.628 -32.770  1.00  0.00     0.015 A 
HETATM   10  C   UNL     1      -5.702   3.855 -31.958  1.00  0.00     0.025 A 
HETATM   11  C   UNL     1      -4.329   3.760 -32.232  1.00  0.00    -0.028 A 
HETATM   12  C   UNL     1      -3.434   2.986 -31.303  1.00  0.00     0.051 C 
HETATM   13  C   UNL     1      -3.799   4.420 -33.355  1.00  0.00     0.075 A 
HETATM   14  C   UNL     1      -4.654   5.122 -34.210  1.00  0.00     0.038 A 
HETATM   15  C   UNL     1      -6.019   5.228 -33.918  1.00  0.00     0.018 A 
BRANCH  13  16
HETATM   16  O   UNL     1      -2.446   4.297 -33.516  1.00  0.00    -0.346 OA
BRANCH  16  17
HETATM   17  C   UNL     1      -1.605   5.450 -33.407  1.00  0.00     0.121 C 
HETATM   18  C   UNL     1      -0.560   5.260 -32.307  1.00  0.00     0.040 C 
HETATM   19  C   UNL     1      -0.905   5.595 -34.756  1.00  0.00     0.040 C 
ENDBRANCH  16  17
ENDBRANCH  13  16
ENDBRANCH   7   9
ENDBRANCH   5   7
BRANCH   4  20
HETATM   20  O   UNL     1      -9.275   5.996 -35.078  1.00  0.00    -0.355 OA
HETATM   21  H   UNL     1      -9.282   6.673 -34.371  1.00  0.00     0.218 HD
ENDBRANCH   4  20
BRANCH   6  22
HETATM   22  C   UNL     1      -8.664   1.687 -33.367  1.00  0.00    -0.028 A 
HETATM   23  C   UNL     1      -7.957   1.117 -32.288  1.00  0.00     0.049 A 
HETATM   24  C   UNL     1      -7.156  -0.010 -32.479  1.00  0.00     0.102 A 
HETATM   25  C   UNL     1      -7.062  -0.565 -33.760  1.00  0.00     0.099 A 
HETATM   26  C   UNL     1      -7.728  -0.011 -34.842  1.00  0.00     0.040 A 
HETATM   27  C   UNL     1      -8.525   1.114 -34.649  1.00  0.00     0.012 A 
BRANCH  24  28
HETATM   28  O   UNL     1      -6.441  -0.671 -31.517  1.00  0.00    -0.349 OA
BRANCH  28  29
HETATM   29  C   UNL     1      -5.344   0.025 -30.927  1.00  0.00     0.171 C 
HETATM   30  C   UNL     1      -5.814   0.589 -29.596  1.00  0.00     0.034 C 
ENDBRANCH  28  29
ENDBRANCH  24  28
BRANCH  25  31
HETATM   31  O   UNL     1      -6.295  -1.676 -33.978  1.00  0.00    -0.358 OA
HETATM   32  H   UNL     1      -6.892  -2.435 -33.835  1.00  0.00     0.218 HD
ENDBRANCH  25  31
ENDBRANCH   6  22
BRANCH   1  33
HETATM   33  C   UNL     1     -11.831   1.962 -33.923  1.00  0.00     0.155 C 
BRANCH  33  34
HETATM   34  C   UNL     1     -12.865   2.492 -32.914  1.00  0.00     0.254 C 
BRANCH  34  35
HETATM   35  N   UNL     1     -14.017   1.525 -32.654  1.00  0.00    -0.070 N 
HETATM   36  H   UNL     1     -13.791   1.081 -31.752  1.00  0.00     0.279 HD
BRANCH  35  37
HETATM   37  C   UNL     1     -14.119   0.376 -33.648  1.00  0.00     0.230 C 
HETATM   38  C   UNL     1     -15.329   0.514 -34.553  1.00  0.00     0.034 C 
ENDBRANCH  35  37
BRANCH  35  39
HETATM   39  C   UNL     1     -15.373   2.181 -32.458  1.00  0.00     0.230 C 
HETATM   40  C   UNL     1     -15.237   3.603 -31.948  1.00  0.00     0.034 C 
ENDBRANCH  35  39
ENDBRANCH  34  35
ENDBRANCH  33  34
ENDBRANCH   1  33
TORSDOF 14
ENDMDL
MODEL 7
REMARK VINA RESULT:      -7.6      3.011      6.962
REMARK  14 active torsions:
REMARK  status: ('A' for Active; 'I' for Inactive)
REMARK    1  A    between atoms: C_2  and  N_3 
REMARK    2  A    between atoms: N_3  and  C_5 
REMARK    3  A    between atoms: N_3  and  C_37 
REMARK    4  A    between atoms: C_5  and  C_6 
REMARK    5  A    between atoms: C_6  and  N_7 
REMARK    6  A    between atoms: C_10  and  O_11 
REMARK    7  A    between atoms: C_12  and  C_13 
REMARK    8  A    between atoms: C_13  and  C_14 
REMARK    9  A    between atoms: C_18  and  O_19 
REMARK   10  A    between atoms: O_19  and  C_20 
REMARK   11  A    between atoms: C_26  and  C_27 
REMARK   12  A    between atoms: C_29  and  O_30 
REMARK   13  A    between atoms: O_30  and  C_31 
REMARK   14  A    between atoms: C_33  and  O_34 
ROOT
HETATM    1  N   UNL     1      -2.939   7.716 -30.876  1.00  0.00    -0.332 N 
HETATM    2  C   UNL     1      -2.267   8.349 -31.897  1.00  0.00     0.278 C 
HETATM    3  O   UNL     1      -1.727   9.440 -31.864  1.00  0.00    -0.265 OA
HETATM    4  C   UNL     1      -2.226   7.427 -33.047  1.00  0.00     0.146 C 
HETATM    5  C   UNL     1      -2.757   6.269 -32.634  1.00  0.00     0.059 C 
HETATM    6  C   UNL     1      -3.364   6.377 -31.266  1.00  0.00     0.161 C 
ENDROOT
BRANCH   5   7
HETATM    7  C   UNL     1      -2.750   4.948 -33.303  1.00  0.00     0.193 C 
HETATM    8  O   UNL     1      -1.766   4.596 -33.946  1.00  0.00    -0.287 OA
BRANCH   7   9
HETATM    9  C   UNL     1      -3.956   4.085 -33.286  1.00  0.00     0.015 A 
HETATM   10  C   UNL     1      -4.040   2.955 -32.466  1.00  0.00     0.025 A 
HETATM   11  C   UNL     1      -5.179   2.136 -32.493  1.00  0.00    -0.028 A 
HETATM   12  C   UNL     1      -5.218   0.884 -31.660  1.00  0.00     0.051 C 
HETATM   13  C   UNL     1      -6.259   2.477 -33.327  1.00  0.00     0.075 A 
HETATM   14  C   UNL     1      -6.203   3.652 -34.081  1.00  0.00     0.038 A 
HETATM   15  C   UNL     1      -5.055   4.454 -34.063  1.00  0.00     0.018 A 
BRANCH  13  16
HETATM   16  O   UNL     1      -7.306   1.597 -33.310  1.00  0.00    -0.346 OA
BRANCH  16  17
HETATM   17  C   UNL     1      -8.076   1.378 -34.497  1.00  0.00     0.121 C 
HETATM   18  C   UNL     1      -7.660   0.077 -35.183  1.00  0.00     0.040 C 
HETATM   19  C   UNL     1      -9.532   1.274 -34.046  1.00  0.00     0.040 C 
ENDBRANCH  16  17
ENDBRANCH  13  16
ENDBRANCH   7   9
ENDBRANCH   5   7
BRANCH   4  20
HETATM   20  O   UNL     1      -1.620   7.734 -34.225  1.00  0.00    -0.355 OA
HETATM   21  H   UNL     1      -2.278   8.213 -34.770  1.00  0.00     0.218 HD
ENDBRANCH   4  20
BRANCH   6  22
HETATM   22  C   UNL     1      -4.882   6.291 -31.201  1.00  0.00    -0.028 A 
HETATM   23  C   UNL     1      -5.496   5.351 -30.348  1.00  0.00     0.049 A 
HETATM   24  C   UNL     1      -6.887   5.299 -30.230  1.00  0.00     0.102 A 
HETATM   25  C   UNL     1      -7.663   6.193 -30.975  1.00  0.00     0.099 A 
HETATM   26  C   UNL     1      -7.086   7.112 -31.838  1.00  0.00     0.040 A 
HETATM   27  C   UNL     1      -5.699   7.161 -31.954  1.00  0.00     0.012 A 
BRANCH  24  28
HETATM   28  O   UNL     1      -7.602   4.455 -29.424  1.00  0.00    -0.349 OA
BRANCH  28  29
HETATM   29  C   UNL     1      -7.579   3.066 -29.752  1.00  0.00     0.171 C 
HETATM   30  C   UNL     1      -8.818   2.764 -30.577  1.00  0.00     0.034 C 
ENDBRANCH  28  29
ENDBRANCH  24  28
BRANCH  25  31
HETATM   31  O   UNL     1      -9.027   6.176 -30.874  1.00  0.00    -0.358 OA
HETATM   32  H   UNL     1      -9.301   5.299 -31.204  1.00  0.00     0.218 HD
ENDBRANCH  25  31
ENDBRANCH   6  22
BRANCH   1  33
HETATM   33  C   UNL     1      -2.868   8.144 -29.490  1.00  0.00     0.155 C 
BRANCH  33  34
HETATM   34  C   UNL     1      -2.337   7.053 -28.542  1.00  0.00     0.254 C 
BRANCH  34  35
HETATM   35  N   UNL     1      -0.814   7.005 -28.458  1.00  0.00    -0.070 N 
HETATM   36  H   UNL     1      -0.612   6.716 -27.490  1.00  0.00     0.279 HD
BRANCH  35  37
HETATM   37  C   UNL     1      -0.126   8.353 -28.622  1.00  0.00     0.230 C 
HETATM   38  C   UNL     1       1.066   8.500 -27.694  1.00  0.00     0.034 C 
ENDBRANCH  35  37
BRANCH  35  39
HETATM   39  C   UNL     1      -0.156   5.959 -29.341  1.00  0.00     0.230 C 
HETATM   40  C   UNL     1       0.467   6.583 -30.576  1.00  0.00     0.034 C 
ENDBRANCH  35  39
ENDBRANCH  34  35
ENDBRANCH  33  34
ENDBRANCH   1  33
TORSDOF 14
ENDMDL
MODEL 8
REMARK VINA RESULT:      -7.5      3.071      6.891
REMARK  14 active torsions:
REMARK  status: ('A' for Active; 'I' for Inactive)
REMARK    1  A    between atoms: C_2  and  N_3 
REMARK    2  A    between atoms: N_3  and  C_5 
REMARK    3  A    between atoms: N_3  and  C_37 
REMARK    4  A    between atoms: C_5  and  C_6 
REMARK    5  A    between atoms: C_6  and  N_7 
REMARK    6  A    between atoms: C_10  and  O_11 
REMARK    7  A    between atoms: C_12  and  C_13 
REMARK    8  A    between atoms: C_13  and  C_14 
REMARK    9  A    between atoms: C_18  and  O_19 
REMARK   10  A    between atoms: O_19  and  C_20 
REMARK   11  A    between atoms: C_26  and  C_27 
REMARK   12  A    between atoms: C_29  and  O_30 
REMARK   13  A    between atoms: O_30  and  C_31 
REMARK   14  A    between atoms: C_33  and  O_34 
ROOT
HETATM    1  N   UNL     1      -2.824   7.524 -30.907  1.00  0.00    -0.332 N 
HETATM    2  C   UNL     1      -2.335   8.189 -32.008  1.00  0.00     0.278 C 
HETATM    3  O   UNL     1      -1.843   9.303 -32.043  1.00  0.00    -0.265 OA
HETATM    4  C   UNL     1      -2.420   7.272 -33.160  1.00  0.00     0.146 C 
HETATM    5  C   UNL     1      -2.836   6.091 -32.686  1.00  0.00     0.059 C 
HETATM    6  C   UNL     1      -3.243   6.168 -31.244  1.00  0.00     0.161 C 
ENDROOT
BRANCH   5   7
HETATM    7  C   UNL     1      -2.868   4.774 -33.361  1.00  0.00     0.193 C 
HETATM    8  O   UNL     1      -1.909   4.413 -34.039  1.00  0.00    -0.287 OA
BRANCH   7   9
HETATM    9  C   UNL     1      -4.083   3.927 -33.308  1.00  0.00     0.015 A 
HETATM   10  C   UNL     1      -4.142   2.773 -32.520  1.00  0.00     0.025 A 
HETATM   11  C   UNL     1      -5.292   1.970 -32.513  1.00  0.00    -0.028 A 
HETATM   12  C   UNL     1      -5.307   0.693 -31.717  1.00  0.00     0.051 C 
HETATM   13  C   UNL     1      -6.408   2.350 -33.280  1.00  0.00     0.075 A 
HETATM   14  C   UNL     1      -6.374   3.547 -34.001  1.00  0.00     0.038 A 
HETATM   15  C   UNL     1      -5.215   4.333 -34.017  1.00  0.00     0.018 A 
BRANCH  13  16
HETATM   16  O   UNL     1      -7.465   1.483 -33.236  1.00  0.00    -0.346 OA
BRANCH  16  17
HETATM   17  C   UNL     1      -8.220   1.214 -34.423  1.00  0.00     0.121 C 
HETATM   18  C   UNL     1      -7.589   0.074 -35.223  1.00  0.00     0.040 C 
HETATM   19  C   UNL     1      -9.613   0.798 -33.955  1.00  0.00     0.040 C 
ENDBRANCH  16  17
ENDBRANCH  13  16
ENDBRANCH   7   9
ENDBRANCH   5   7
BRANCH   4  20
HETATM   20  O   UNL     1      -2.004   7.610 -34.411  1.00  0.00    -0.355 OA
HETATM   21  H   UNL     1      -1.028   7.672 -34.382  1.00  0.00     0.218 HD
ENDBRANCH   4  20
BRANCH   6  22
HETATM   22  C   UNL     1      -4.731   6.015 -30.962  1.00  0.00    -0.028 A 
HETATM   23  C   UNL     1      -5.661   6.834 -31.636  1.00  0.00     0.049 A 
HETATM   24  C   UNL     1      -7.032   6.667 -31.435  1.00  0.00     0.102 A 
HETATM   25  C   UNL     1      -7.471   5.675 -30.551  1.00  0.00     0.099 A 
HETATM   26  C   UNL     1      -6.578   4.871 -29.860  1.00  0.00     0.040 A 
HETATM   27  C   UNL     1      -5.210   5.042 -30.062  1.00  0.00     0.012 A 
BRANCH  24  28
HETATM   28  O   UNL     1      -8.034   7.376 -32.041  1.00  0.00    -0.349 OA
BRANCH  28  29
HETATM   29  C   UNL     1      -7.942   8.800 -31.999  1.00  0.00     0.171 C 
HETATM   30  C   UNL     1      -8.272   9.244 -30.584  1.00  0.00     0.034 C 
ENDBRANCH  28  29
ENDBRANCH  24  28
BRANCH  25  31
HETATM   31  O   UNL     1      -8.808   5.478 -30.341  1.00  0.00    -0.358 OA
HETATM   32  H   UNL     1      -9.242   6.297 -30.646  1.00  0.00     0.218 HD
ENDBRANCH  25  31
ENDBRANCH   6  22
BRANCH   1  33
HETATM   33  C   UNL     1      -2.573   7.950 -29.542  1.00  0.00     0.155 C 
BRANCH  33  34
HETATM   34  C   UNL     1      -1.104   7.788 -29.113  1.00  0.00     0.254 C 
BRANCH  34  35
HETATM   35  N   UNL     1      -0.755   6.376 -28.648  1.00  0.00    -0.070 N 
HETATM   36  H   UNL     1      -1.656   5.878 -28.619  1.00  0.00     0.279 HD
BRANCH  35  37
HETATM   37  C   UNL     1      -0.207   6.292 -27.230  1.00  0.00     0.230 C 
HETATM   38  C   UNL     1       1.055   7.115 -27.059  1.00  0.00     0.034 C 
ENDBRANCH  35  37
BRANCH  35  39
HETATM   39  C   UNL     1       0.119   5.584 -29.605  1.00  0.00     0.230 C 
HETATM   40  C   UNL     1       0.586   6.435 -30.770  1.00  0.00     0.034 C 
ENDBRANCH  35  39
ENDBRANCH  34  35
ENDBRANCH  33  34
ENDBRANCH   1  33
TORSDOF 14
ENDMDL
MODEL 9
REMARK VINA RESULT:      -7.5      2.776      6.270
REMARK  14 active torsions:
REMARK  status: ('A' for Active; 'I' for Inactive)
REMARK    1  A    between atoms: C_2  and  N_3 
REMARK    2  A    between atoms: N_3  and  C_5 
REMARK    3  A    between atoms: N_3  and  C_37 
REMARK    4  A    between atoms: C_5  and  C_6 
REMARK    5  A    between atoms: C_6  and  N_7 
REMARK    6  A    between atoms: C_10  and  O_11 
REMARK    7  A    between atoms: C_12  and  C_13 
REMARK    8  A    between atoms: C_13  and  C_14 
REMARK    9  A    between atoms: C_18  and  O_19 
REMARK   10  A    between atoms: O_19  and  C_20 
REMARK   11  A    between atoms: C_26  and  C_27 
REMARK   12  A    between atoms: C_29  and  O_30 
REMARK   13  A    between atoms: O_30  and  C_31 
REMARK   14  A    between atoms: C_33  and  O_34 
ROOT
HETATM    1  N   UNL     1      -3.942   4.480 -31.024  1.00  0.00    -0.332 N 
HETATM    2  C   UNL     1      -2.940   3.589 -31.331  1.00  0.00     0.278 C 
HETATM    3  O   UNL     1      -1.754   3.826 -31.476  1.00  0.00    -0.265 OA
HETATM    4  C   UNL     1      -3.536   2.240 -31.368  1.00  0.00     0.146 C 
HETATM    5  C   UNL     1      -4.810   2.368 -30.976  1.00  0.00     0.059 C 
HETATM    6  C   UNL     1      -5.221   3.805 -30.836  1.00  0.00     0.161 C 
ENDROOT
BRANCH   5   7
HETATM    7  C   UNL     1      -5.784   1.314 -30.612  1.00  0.00     0.193 C 
HETATM    8  O   UNL     1      -5.556   0.576 -29.658  1.00  0.00    -0.287 OA
BRANCH   7   9
HETATM    9  C   UNL     1      -6.987   1.077 -31.445  1.00  0.00     0.015 A 
HETATM   10  C   UNL     1      -6.891   0.623 -32.765  1.00  0.00     0.025 A 
HETATM   11  C   UNL     1      -8.044   0.439 -33.543  1.00  0.00    -0.028 A 
HETATM   12  C   UNL     1      -7.913   0.022 -34.984  1.00  0.00     0.051 C 
HETATM   13  C   UNL     1      -9.309   0.679 -32.977  1.00  0.00     0.075 A 
HETATM   14  C   UNL     1      -9.403   1.053 -31.634  1.00  0.00     0.038 A 
HETATM   15  C   UNL     1      -8.247   1.253 -30.870  1.00  0.00     0.018 A 
BRANCH  13  16
HETATM   16  O   UNL     1     -10.367   0.507 -33.827  1.00  0.00    -0.346 OA
BRANCH  16  17
HETATM   17  C   UNL     1     -11.535   1.323 -33.690  1.00  0.00     0.121 C 
HETATM   18  C   UNL     1     -11.652   2.306 -34.854  1.00  0.00     0.040 C 
HETATM   19  C   UNL     1     -12.726   0.367 -33.708  1.00  0.00     0.040 C 
ENDBRANCH  16  17
ENDBRANCH  13  16
ENDBRANCH   7   9
ENDBRANCH   5   7
BRANCH   4  20
HETATM   20  O   UNL     1      -2.816   1.116 -31.630  1.00  0.00    -0.355 OA
HETATM   21  H   UNL     1      -2.142   1.035 -30.925  1.00  0.00     0.218 HD
ENDBRANCH   4  20
BRANCH   6  22
HETATM   22  C   UNL     1      -6.218   4.316 -31.865  1.00  0.00    -0.028 A 
HETATM   23  C   UNL     1      -7.480   4.787 -31.447  1.00  0.00     0.049 A 
HETATM   24  C   UNL     1      -8.384   5.315 -32.370  1.00  0.00     0.102 A 
HETATM   25  C   UNL     1      -8.020   5.367 -33.720  1.00  0.00     0.099 A 
HETATM   26  C   UNL     1      -6.796   4.890 -34.161  1.00  0.00     0.040 A 
HETATM   27  C   UNL     1      -5.896   4.363 -33.238  1.00  0.00     0.012 A 
BRANCH  24  28
HETATM   28  O   UNL     1      -9.623   5.825 -32.092  1.00  0.00    -0.349 OA
BRANCH  28  29
HETATM   29  C   UNL     1     -10.279   5.341 -30.920  1.00  0.00     0.171 C 
HETATM   30  C   UNL     1     -11.295   4.299 -31.355  1.00  0.00     0.034 C 
ENDBRANCH  28  29
ENDBRANCH  24  28
BRANCH  25  31
HETATM   31  O   UNL     1      -8.878   5.890 -34.648  1.00  0.00    -0.358 OA
HETATM   32  H   UNL     1      -9.761   5.856 -34.233  1.00  0.00     0.218 HD
ENDBRANCH  25  31
ENDBRANCH   6  22
BRANCH   1  33
HETATM   33  C   UNL     1      -3.691   5.828 -30.546  1.00  0.00     0.155 C 
BRANCH  33  34
HETATM   34  C   UNL     1      -3.497   6.852 -31.680  1.00  0.00     0.254 C 
BRANCH  34  35
HETATM   35  N   UNL     1      -2.164   6.709 -32.410  1.00  0.00    -0.070 N 
HETATM   36  H   UNL     1      -1.863   5.742 -32.223  1.00  0.00     0.279 HD
BRANCH  35  37
HETATM   37  C   UNL     1      -1.045   7.587 -31.867  1.00  0.00     0.230 C 
HETATM   38  C   UNL     1       0.160   6.771 -31.439  1.00  0.00     0.034 C 
ENDBRANCH  35  37
BRANCH  35  39
HETATM   39  C   UNL     1      -2.247   6.826 -33.922  1.00  0.00     0.230 C 
HETATM   40  C   UNL     1      -2.030   5.486 -34.599  1.00  0.00     0.034 C 
ENDBRANCH  35  39
ENDBRANCH  34  35
ENDBRANCH  33  34
ENDBRANCH   1  33
TORSDOF 14
ENDMDL
MODEL 10
REMARK VINA RESULT:      -7.5      2.001      2.791
REMARK  14 active torsions:
REMARK  status: ('A' for Active; 'I' for Inactive)
REMARK    1  A    between atoms: C_2  and  N_3 
REMARK    2  A    between atoms: N_3  and  C_5 
REMARK    3  A    between atoms: N_3  and  C_37 
REMARK    4  A    between atoms: C_5  and  C_6 
REMARK    5  A    between atoms: C_6  and  N_7 
REMARK    6  A    between atoms: C_10  and  O_11 
REMARK    7  A    between atoms: C_12  and  C_13 
REMARK    8  A    between atoms: C_13  and  C_14 
REMARK    9  A    between atoms: C_18  and  O_19 
REMARK   10  A    between atoms: O_19  and  C_20 
REMARK   11  A    between atoms: C_26  and  C_27 
REMARK   12  A    between atoms: C_29  and  O_30 
REMARK   13  A    between atoms: O_30  and  C_31 
REMARK   14  A    between atoms: C_33  and  O_34 
ROOT
HETATM    1  N   UNL     1      -6.962   4.713 -31.273  1.00  0.00    -0.332 N 
HETATM    2  C   UNL     1      -7.267   3.716 -30.375  1.00  0.00     0.278 C 
HETATM    3  O   UNL     1      -7.509   3.837 -29.188  1.00  0.00    -0.265 OA
HETATM    4  C   UNL     1      -7.347   2.448 -31.124  1.00  0.00     0.146 C 
HETATM    5  C   UNL     1      -7.206   2.753 -32.420  1.00  0.00     0.059 C 
HETATM    6  C   UNL     1      -6.832   4.191 -32.629  1.00  0.00     0.161 C 
ENDROOT
BRANCH   5   7
HETATM    7  C   UNL     1      -7.436   1.901 -33.609  1.00  0.00     0.193 C 
HETATM    8  O   UNL     1      -8.345   2.175 -34.388  1.00  0.00    -0.287 OA
BRANCH   7   9
HETATM    9  C   UNL     1      -6.643   0.667 -33.820  1.00  0.00     0.015 A 
HETATM   10  C   UNL     1      -5.385   0.491 -33.233  1.00  0.00     0.025 A 
HETATM   11  C   UNL     1      -4.640  -0.673 -33.476  1.00  0.00    -0.028 A 
HETATM   12  C   UNL     1      -3.258  -0.809 -32.896  1.00  0.00     0.051 C 
HETATM   13  C   UNL     1      -5.181  -1.686 -34.288  1.00  0.00     0.075 A 
HETATM   14  C   UNL     1      -6.471  -1.541 -34.804  1.00  0.00     0.038 A 
HETATM   15  C   UNL     1      -7.201  -0.368 -34.573  1.00  0.00     0.018 A 
BRANCH  13  16
HETATM   16  O   UNL     1      -4.363  -2.763 -34.494  1.00  0.00    -0.346 OA
BRANCH  16  17
HETATM   17  C   UNL     1      -4.708  -4.039 -33.944  1.00  0.00     0.121 C 
HETATM   18  C   UNL     1      -5.574  -4.837 -34.919  1.00  0.00     0.040 C 
HETATM   19  C   UNL     1      -3.388  -4.774 -33.716  1.00  0.00     0.040 C 
ENDBRANCH  16  17
ENDBRANCH  13  16
ENDBRANCH   7   9
ENDBRANCH   5   7
BRANCH   4  20
HETATM   20  O   UNL     1      -7.646   1.257 -30.539  1.00  0.00    -0.355 OA
HETATM   21  H   UNL     1      -6.988   0.607 -30.858  1.00  0.00     0.218 HD
ENDBRANCH   4  20
BRANCH   6  22
HETATM   22  C   UNL     1      -5.420   4.446 -33.135  1.00  0.00    -0.028 A 
HETATM   23  C   UNL     1      -4.315   4.163 -32.305  1.00  0.00     0.049 A 
HETATM   24  C   UNL     1      -3.011   4.334 -32.774  1.00  0.00     0.102 A 
HETATM   25  C   UNL     1      -2.817   4.795 -34.081  1.00  0.00     0.099 A 
HETATM   26  C   UNL     1      -3.885   5.102 -34.909  1.00  0.00     0.040 A 
HETATM   27  C   UNL     1      -5.184   4.931 -34.438  1.00  0.00     0.012 A 
BRANCH  24  28
HETATM   28  O   UNL     1      -1.859   4.074 -32.083  1.00  0.00    -0.349 OA
BRANCH  28  29
HETATM   29  C   UNL     1      -1.442   5.045 -31.123  1.00  0.00     0.171 C 
HETATM   30  C   UNL     1       0.044   5.290 -31.327  1.00  0.00     0.034 C 
ENDBRANCH  28  29
ENDBRANCH  24  28
BRANCH  25  31
HETATM   31  O   UNL     1      -1.552   4.962 -34.574  1.00  0.00    -0.358 OA
HETATM   32  H   UNL     1      -1.637   5.626 -35.285  1.00  0.00     0.218 HD
ENDBRANCH  25  31
ENDBRANCH   6  22
BRANCH   1  33
HETATM   33  C   UNL     1      -7.155   6.125 -30.993  1.00  0.00     0.155 C 
BRANCH  33  34
HETATM   34  C   UNL     1      -8.221   6.784 -31.887  1.00  0.00     0.254 C 
BRANCH  34  35
HETATM   35  N   UNL     1      -9.651   6.544 -31.410  1.00  0.00    -0.070 N 
HETATM   36  H   UNL     1     -10.178   7.370 -31.730  1.00  0.00     0.279 HD
BRANCH  35  37
HETATM   37  C   UNL     1      -9.822   6.524 -29.897  1.00  0.00     0.230 C 
HETATM   38  C   UNL     1     -10.386   7.831 -29.373  1.00  0.00     0.034 C 
ENDBRANCH  35  37
BRANCH  35  39
HETATM   39  C   UNL     1     -10.344   5.348 -32.040  1.00  0.00     0.230 C 
HETATM   40  C   UNL     1     -10.219   5.362 -33.551  1.00  0.00     0.034 C 
ENDBRANCH  35  39
ENDBRANCH  34  35
ENDBRANCH  33  34
ENDBRANCH   1  33
TORSDOF 14
ENDMDL
