MODEL 1
REMARK VINA RESULT:     -10.1      0.000      0.000
REMARK  6 active torsions:
REMARK  status: ('A' for Active; 'I' for Inactive)
REMARK    1  A    between atoms: C_6  and  C_8 
REMARK    2  A    between atoms: C_6  and  O_7 
REMARK    3  A    between atoms: C_8  and  N_9 
REMARK       I    between atoms: N_9  and  C_10 
REMARK    4  A    between atoms: C_10  and  C_11 
REMARK       I    between atoms: C_11  and  N_12 
REMARK    5  A    between atoms: N_12  and  C_13 
REMARK       I    between atoms: N_17  and  C_18 
REMARK    6  A    between atoms: C_18  and  C_19 
ROOT
HETATM    1  C   UNL     1      -1.517   5.666 -34.486  1.00  0.00     0.313 C 
HETATM    2  N   UNL     1      -0.806   6.618 -33.788  1.00  0.00    -0.319 N 
HETATM    3  O   UNL     1      -1.171   5.250 -35.587  1.00  0.00    -0.262 OA
HETATM    4  H   UNL     1      -0.224   7.202 -34.376  1.00  0.00     0.169 HD
ENDROOT
BRANCH   1   5
HETATM    5  C   UNL     1      -2.869   5.220 -33.906  1.00  0.00     0.309 C 
HETATM    6  N   UNL     1      -2.885   3.948 -33.375  1.00  0.00    -0.350 N 
HETATM    7  H   UNL     1      -2.018   3.426 -33.298  1.00  0.00     0.163 HD
HETATM    8  O   UNL     1      -3.824   5.984 -33.926  1.00  0.00    -0.262 OA
BRANCH   6   9
HETATM    9  C   UNL     1      -4.060   3.461 -32.678  1.00  0.00     0.161 C 
BRANCH   9  10
HETATM   10  C   UNL     1      -3.734   2.403 -31.601  1.00  0.00     0.078 C 
HETATM   11  C   UNL     1      -3.488   1.006 -32.202  1.00  0.00     0.078 C 
HETATM   12  C   UNL     1      -4.748   0.317 -32.660  1.00  0.00    -0.049 A 
HETATM   13  C   UNL     1      -6.007   0.672 -32.142  1.00  0.00    -0.052 A 
HETATM   14  C   UNL     1      -4.650  -0.727 -33.591  1.00  0.00     0.007 A 
HETATM   15  C   UNL     1      -7.149  -0.002 -32.602  1.00  0.00     0.007 A 
HETATM   16  C   UNL     1      -6.176   1.809 -31.165  1.00  0.00     0.042 C 
HETATM   17  C   UNL     1      -7.042  -1.028 -33.541  1.00  0.00     0.001 A 
HETATM   18  C   UNL     1      -5.793  -1.393 -34.033  1.00  0.00     0.001 A 
HETATM   19  C   UNL     1      -4.861   2.303 -30.561  1.00  0.00     0.044 C 
BRANCH  10  20
HETATM   20  O   UNL     1      -2.535   2.837 -30.928  1.00  0.00    -0.388 OA
HETATM   21  H   UNL     1      -1.775   2.565 -31.471  1.00  0.00     0.210 HD
ENDBRANCH  10  20
ENDBRANCH   9  10
ENDBRANCH   6   9
ENDBRANCH   1   5
BRANCH   2  22
HETATM   22  C   UNL     1      -0.923   6.950 -32.431  1.00  0.00     0.035 A 
HETATM   23  C   UNL     1      -0.248   6.251 -31.433  1.00  0.00     0.039 A 
HETATM   24  C   UNL     1      -0.354   6.628 -30.081  1.00  0.00    -0.029 A 
HETATM   25  C   UNL     1      -1.190   7.698 -29.699  1.00  0.00     0.043 A 
HETATM   26  C   UNL     1       0.436   5.830 -29.079  1.00  0.00     0.042 C 
HETATM   27  N   UNL     1      -1.380   8.000 -28.301  1.00  0.00    -0.313 N 
HETATM   28  C   UNL     1      -1.842   8.402 -30.724  1.00  0.00     0.032 A 
HETATM   29  C   UNL     1      -2.141   9.104 -27.844  1.00  0.00     0.265 C 
HETATM   30  C   UNL     1      -0.725   7.112 -27.329  1.00  0.00     0.133 C 
HETATM   31  O   UNL     1      -2.314  10.123 -28.512  1.00  0.00    -0.267 OA
HETATM   32  C   UNL     1       0.628   6.620 -27.802  1.00  0.00     0.025 C 
HETATM   33  C   UNL     1      -1.683   8.057 -32.074  1.00  0.00     0.032 A 
BRANCH  29  34
HETATM   34  C   UNL     1      -2.726   8.984 -26.508  1.00  0.00     0.073 A 
HETATM   35  S   UNL     1      -4.285   8.292 -26.332  1.00  0.00    -0.097 SA
HETATM   36  C   UNL     1      -4.260   8.500 -24.636  1.00  0.00     0.050 A 
HETATM   37  C   UNL     1      -3.078   9.056 -24.200  1.00  0.00     0.009 A 
HETATM   38  C   UNL     1      -2.184   9.318 -25.279  1.00  0.00     0.025 A 
ENDBRANCH  29  34
ENDBRANCH   2  22
TORSDOF 6
ENDMDL
MODEL 2
REMARK VINA RESULT:     -10.0      4.065      9.485
REMARK  6 active torsions:
REMARK  status: ('A' for Active; 'I' for Inactive)
REMARK    1  A    between atoms: C_6  and  C_8 
REMARK    2  A    between atoms: C_6  and  O_7 
REMARK    3  A    between atoms: C_8  and  N_9 
REMARK       I    between atoms: N_9  and  C_10 
REMARK    4  A    between atoms: C_10  and  C_11 
REMARK       I    between atoms: C_11  and  N_12 
REMARK    5  A    between atoms: N_12  and  C_13 
REMARK       I    between atoms: N_17  and  C_18 
REMARK    6  A    between atoms: C_18  and  C_19 
ROOT
HETATM    1  C   UNL     1      -6.661   5.052 -29.467  1.00  0.00     0.313 C 
HETATM    2  N   UNL     1      -6.883   3.705 -29.275  1.00  0.00    -0.319 N 
HETATM    3  O   UNL     1      -6.713   5.871 -28.556  1.00  0.00    -0.262 OA
HETATM    4  H   UNL     1      -7.440   3.498 -28.455  1.00  0.00     0.169 HD
ENDROOT
BRANCH   1   5
HETATM    5  C   UNL     1      -6.477   5.544 -30.912  1.00  0.00     0.309 C 
HETATM    6  N   UNL     1      -5.173   5.784 -31.285  1.00  0.00    -0.350 N 
HETATM    7  H   UNL     1      -4.418   5.535 -30.655  1.00  0.00     0.163 HD
HETATM    8  O   UNL     1      -7.453   5.681 -31.639  1.00  0.00    -0.262 OA
BRANCH   6   9
HETATM    9  C   UNL     1      -4.856   6.122 -32.660  1.00  0.00     0.161 C 
BRANCH   9  10
HETATM   10  C   UNL     1      -4.004   5.046 -33.370  1.00  0.00     0.078 C 
HETATM   11  C   UNL     1      -3.008   4.358 -32.418  1.00  0.00     0.078 C 
HETATM   12  C   UNL     1      -1.825   5.219 -32.059  1.00  0.00    -0.049 A 
HETATM   13  C   UNL     1      -1.423   6.291 -32.878  1.00  0.00    -0.052 A 
HETATM   14  C   UNL     1      -1.088   4.915 -30.905  1.00  0.00     0.007 A 
HETATM   15  C   UNL     1      -0.314   7.062 -32.499  1.00  0.00     0.007 A 
HETATM   16  C   UNL     1      -2.197   6.686 -34.112  1.00  0.00     0.042 C 
HETATM   17  C   UNL     1       0.402   6.759 -31.340  1.00  0.00     0.001 A 
HETATM   18  C   UNL     1       0.017   5.684 -30.545  1.00  0.00     0.001 A 
HETATM   19  C   UNL     1      -3.227   5.645 -34.553  1.00  0.00     0.044 C 
BRANCH  10  20
HETATM   20  O   UNL     1      -4.916   4.054 -33.885  1.00  0.00    -0.388 OA
HETATM   21  H   UNL     1      -5.630   3.941 -33.233  1.00  0.00     0.210 HD
ENDBRANCH  10  20
ENDBRANCH   9  10
ENDBRANCH   6   9
ENDBRANCH   1   5
BRANCH   2  22
HETATM   22  C   UNL     1      -6.567   2.652 -30.146  1.00  0.00     0.035 A 
HETATM   23  C   UNL     1      -7.537   1.990 -30.896  1.00  0.00     0.039 A 
HETATM   24  C   UNL     1      -7.188   0.961 -31.791  1.00  0.00    -0.029 A 
HETATM   25  C   UNL     1      -5.846   0.542 -31.913  1.00  0.00     0.043 A 
HETATM   26  C   UNL     1      -8.302   0.325 -32.578  1.00  0.00     0.042 C 
HETATM   27  N   UNL     1      -5.518  -0.590 -32.746  1.00  0.00    -0.313 N 
HETATM   28  C   UNL     1      -4.884   1.240 -31.165  1.00  0.00     0.032 A 
HETATM   29  C   UNL     1      -4.189  -1.020 -32.978  1.00  0.00     0.265 C 
HETATM   30  C   UNL     1      -6.637  -1.298 -33.385  1.00  0.00     0.133 C 
HETATM   31  O   UNL     1      -3.217  -0.269 -32.903  1.00  0.00    -0.267 OA
HETATM   32  C   UNL     1      -7.756  -0.367 -33.809  1.00  0.00     0.025 C 
HETATM   33  C   UNL     1      -5.234   2.303 -30.320  1.00  0.00     0.032 A 
BRANCH  29  34
HETATM   34  C   UNL     1      -4.011  -2.431 -33.324  1.00  0.00     0.073 A 
HETATM   35  S   UNL     1      -3.292  -3.491 -32.186  1.00  0.00    -0.097 SA
HETATM   36  C   UNL     1      -3.422  -4.826 -33.246  1.00  0.00     0.050 A 
HETATM   37  C   UNL     1      -4.029  -4.487 -34.434  1.00  0.00     0.009 A 
HETATM   38  C   UNL     1      -4.388  -3.107 -34.472  1.00  0.00     0.025 A 
ENDBRANCH  29  34
ENDBRANCH   2  22
TORSDOF 6
ENDMDL
MODEL 3
REMARK VINA RESULT:     -10.0      4.285      7.494
REMARK  6 active torsions:
REMARK  status: ('A' for Active; 'I' for Inactive)
REMARK    1  A    between atoms: C_6  and  C_8 
REMARK    2  A    between atoms: C_6  and  O_7 
REMARK    3  A    between atoms: C_8  and  N_9 
REMARK       I    between atoms: N_9  and  C_10 
REMARK    4  A    between atoms: C_10  and  C_11 
REMARK       I    between atoms: C_11  and  N_12 
REMARK    5  A    between atoms: N_12  and  C_13 
REMARK       I    between atoms: N_17  and  C_18 
REMARK    6  A    between atoms: C_18  and  C_19 
ROOT
HETATM    1  C   UNL     1      -2.685   5.127 -31.406  1.00  0.00     0.313 C 
HETATM    2  N   UNL     1      -3.836   5.885 -31.377  1.00  0.00    -0.319 N 
HETATM    3  O   UNL     1      -1.646   5.473 -30.855  1.00  0.00    -0.262 OA
HETATM    4  H   UNL     1      -3.669   6.870 -31.210  1.00  0.00     0.169 HD
ENDROOT
BRANCH   1   5
HETATM    5  C   UNL     1      -2.686   3.866 -32.285  1.00  0.00     0.309 C 
HETATM    6  N   UNL     1      -3.137   2.721 -31.664  1.00  0.00    -0.350 N 
HETATM    7  H   UNL     1      -3.531   2.780 -30.731  1.00  0.00     0.163 HD
HETATM    8  O   UNL     1      -2.316   3.934 -33.450  1.00  0.00    -0.262 OA
BRANCH   6   9
HETATM    9  C   UNL     1      -3.313   1.498 -32.423  1.00  0.00     0.161 C 
BRANCH   9  10
HETATM   10  C   UNL     1      -3.587   0.264 -31.535  1.00  0.00     0.078 C 
HETATM   11  C   UNL     1      -4.021  -0.967 -32.352  1.00  0.00     0.078 C 
HETATM   12  C   UNL     1      -5.436  -0.881 -32.865  1.00  0.00    -0.049 A 
HETATM   13  C   UNL     1      -6.388  -0.044 -32.254  1.00  0.00    -0.052 A 
HETATM   14  C   UNL     1      -5.815  -1.686 -33.949  1.00  0.00     0.007 A 
HETATM   15  C   UNL     1      -7.691  -0.001 -32.771  1.00  0.00     0.007 A 
HETATM   16  C   UNL     1      -6.028   0.869 -31.108  1.00  0.00     0.042 C 
HETATM   17  C   UNL     1      -8.053  -0.795 -33.860  1.00  0.00     0.001 A 
HETATM   18  C   UNL     1      -7.116  -1.639 -34.446  1.00  0.00     0.001 A 
HETATM   19  C   UNL     1      -4.666   0.567 -30.482  1.00  0.00     0.044 C 
BRANCH  10  20
HETATM   20  O   UNL     1      -2.359  -0.045 -30.846  1.00  0.00    -0.388 OA
HETATM   21  H   UNL     1      -1.641  -0.041 -31.503  1.00  0.00     0.210 HD
ENDBRANCH  10  20
ENDBRANCH   9  10
ENDBRANCH   6   9
ENDBRANCH   1   5
BRANCH   2  22
HETATM   22  C   UNL     1      -5.139   5.477 -31.699  1.00  0.00     0.035 A 
HETATM   23  C   UNL     1      -5.988   4.894 -30.762  1.00  0.00     0.039 A 
HETATM   24  C   UNL     1      -7.305   4.528 -31.102  1.00  0.00    -0.029 A 
HETATM   25  C   UNL     1      -7.778   4.698 -32.420  1.00  0.00     0.043 A 
HETATM   26  C   UNL     1      -8.157   3.931 -30.014  1.00  0.00     0.042 C 
HETATM   27  N   UNL     1      -9.087   4.212 -32.784  1.00  0.00    -0.313 N 
HETATM   28  C   UNL     1      -6.912   5.309 -33.340  1.00  0.00     0.032 A 
HETATM   29  C   UNL     1      -9.660   4.415 -34.063  1.00  0.00     0.265 C 
HETATM   30  C   UNL     1      -9.845   3.492 -31.750  1.00  0.00     0.133 C 
HETATM   31  O   UNL     1      -9.352   5.354 -34.795  1.00  0.00    -0.267 OA
HETATM   32  C   UNL     1      -9.626   4.056 -30.360  1.00  0.00     0.025 C 
HETATM   33  C   UNL     1      -5.623   5.726 -32.977  1.00  0.00     0.032 A 
BRANCH  29  34
HETATM   34  C   UNL     1     -10.664   3.439 -34.490  1.00  0.00     0.073 A 
HETATM   35  S   UNL     1     -12.167   3.991 -35.099  1.00  0.00    -0.097 SA
HETATM   36  C   UNL     1     -12.730   2.396 -35.346  1.00  0.00     0.050 A 
HETATM   37  C   UNL     1     -11.786   1.455 -35.004  1.00  0.00     0.009 A 
HETATM   38  C   UNL     1     -10.584   2.057 -34.527  1.00  0.00     0.025 A 
ENDBRANCH  29  34
ENDBRANCH   2  22
TORSDOF 6
ENDMDL
MODEL 4
REMARK VINA RESULT:      -9.8      1.381      2.222
REMARK  6 active torsions:
REMARK  status: ('A' for Active; 'I' for Inactive)
REMARK    1  A    between atoms: C_6  and  C_8 
REMARK    2  A    between atoms: C_6  and  O_7 
REMARK    3  A    between atoms: C_8  and  N_9 
REMARK       I    between atoms: N_9  and  C_10 
REMARK    4  A    between atoms: C_10  and  C_11 
REMARK       I    between atoms: C_11  and  N_12 
REMARK    5  A    between atoms: N_12  and  C_13 
REMARK       I    between atoms: N_17  and  C_18 
REMARK    6  A    between atoms: C_18  and  C_19 
ROOT
HETATM    1  C   UNL     1      -1.457   5.746 -34.442  1.00  0.00     0.313 C 
HETATM    2  N   UNL     1      -0.835   6.780 -33.775  1.00  0.00    -0.319 N 
HETATM    3  O   UNL     1      -1.018   5.264 -35.481  1.00  0.00    -0.262 OA
HETATM    4  H   UNL     1      -0.236   7.342 -34.367  1.00  0.00     0.169 HD
ENDROOT
BRANCH   1   5
HETATM    5  C   UNL     1      -2.827   5.285 -33.921  1.00  0.00     0.309 C 
HETATM    6  N   UNL     1      -2.841   4.035 -33.341  1.00  0.00    -0.350 N 
HETATM    7  H   UNL     1      -1.967   3.541 -33.194  1.00  0.00     0.163 HD
HETATM    8  O   UNL     1      -3.800   6.022 -34.025  1.00  0.00    -0.262 OA
BRANCH   6   9
HETATM    9  C   UNL     1      -4.041   3.543 -32.691  1.00  0.00     0.161 C 
BRANCH   9  10
HETATM   10  C   UNL     1      -3.756   2.465 -31.622  1.00  0.00     0.078 C 
HETATM   11  C   UNL     1      -3.572   1.063 -32.233  1.00  0.00     0.078 C 
HETATM   12  C   UNL     1      -4.862   0.431 -32.688  1.00  0.00    -0.049 A 
HETATM   13  C   UNL     1      -6.103   0.836 -32.163  1.00  0.00    -0.052 A 
HETATM   14  C   UNL     1      -4.814  -0.611 -33.627  1.00  0.00     0.007 A 
HETATM   15  C   UNL     1      -7.275   0.215 -32.622  1.00  0.00     0.007 A 
HETATM   16  C   UNL     1      -6.219   1.973 -31.178  1.00  0.00     0.042 C 
HETATM   17  C   UNL     1      -7.215  -0.809 -33.567  1.00  0.00     0.001 A 
HETATM   18  C   UNL     1      -5.985  -1.224 -34.067  1.00  0.00     0.001 A 
HETATM   19  C   UNL     1      -4.882   2.407 -30.577  1.00  0.00     0.044 C 
BRANCH  10  20
HETATM   20  O   UNL     1      -2.537   2.843 -30.952  1.00  0.00    -0.388 OA
HETATM   21  H   UNL     1      -2.669   2.711 -29.997  1.00  0.00     0.210 HD
ENDBRANCH  10  20
ENDBRANCH   9  10
ENDBRANCH   6   9
ENDBRANCH   1   5
BRANCH   2  22
HETATM   22  C   UNL     1      -1.060   7.208 -32.459  1.00  0.00     0.035 A 
HETATM   23  C   UNL     1      -1.894   8.283 -32.160  1.00  0.00     0.039 A 
HETATM   24  C   UNL     1      -2.133   8.669 -30.826  1.00  0.00    -0.029 A 
HETATM   25  C   UNL     1      -1.490   8.004 -29.762  1.00  0.00     0.043 A 
HETATM   26  C   UNL     1      -3.072   9.825 -30.602  1.00  0.00     0.042 C 
HETATM   27  N   UNL     1      -1.652   8.483 -28.410  1.00  0.00    -0.313 N 
HETATM   28  C   UNL     1      -0.674   6.909 -30.087  1.00  0.00     0.032 A 
HETATM   29  C   UNL     1      -1.103   7.823 -27.284  1.00  0.00     0.265 C 
HETATM   30  C   UNL     1      -2.447   9.706 -28.224  1.00  0.00     0.133 C 
HETATM   31  O   UNL     1      -0.856   6.618 -27.266  1.00  0.00    -0.267 OA
HETATM   32  C   UNL     1      -3.613   9.802 -29.188  1.00  0.00     0.025 C 
HETATM   33  C   UNL     1      -0.488   6.494 -31.414  1.00  0.00     0.032 A 
BRANCH  29  34
HETATM   34  C   UNL     1      -0.836   8.653 -26.108  1.00  0.00     0.073 A 
HETATM   35  S   UNL     1       0.634   9.528 -26.014  1.00  0.00    -0.097 SA
HETATM   36  C   UNL     1       0.229  10.176 -24.485  1.00  0.00     0.050 A 
HETATM   37  C   UNL     1      -1.014   9.764 -24.061  1.00  0.00     0.009 A 
HETATM   38  C   UNL     1      -1.638   8.899 -25.007  1.00  0.00     0.025 A 
ENDBRANCH  29  34
ENDBRANCH   2  22
TORSDOF 6
ENDMDL
MODEL 5
REMARK VINA RESULT:      -9.7      3.914      6.993
REMARK  6 active torsions:
REMARK  status: ('A' for Active; 'I' for Inactive)
REMARK    1  A    between atoms: C_6  and  C_8 
REMARK    2  A    between atoms: C_6  and  O_7 
REMARK    3  A    between atoms: C_8  and  N_9 
REMARK       I    between atoms: N_9  and  C_10 
REMARK    4  A    between atoms: C_10  and  C_11 
REMARK       I    between atoms: C_11  and  N_12 
REMARK    5  A    between atoms: N_12  and  C_13 
REMARK       I    between atoms: N_17  and  C_18 
REMARK    6  A    between atoms: C_18  and  C_19 
ROOT
HETATM    1  C   UNL     1     -10.441   1.437 -32.969  1.00  0.00     0.313 C 
HETATM    2  N   UNL     1      -9.984   2.708 -32.689  1.00  0.00    -0.319 N 
HETATM    3  O   UNL     1     -11.611   1.197 -33.247  1.00  0.00    -0.262 OA
HETATM    4  H   UNL     1     -10.709   3.337 -32.368  1.00  0.00     0.169 HD
ENDROOT
BRANCH   1   5
HETATM    5  C   UNL     1      -9.457   0.271 -32.785  1.00  0.00     0.309 C 
HETATM    6  N   UNL     1      -8.573   0.083 -33.826  1.00  0.00    -0.350 N 
HETATM    7  H   UNL     1      -8.542   0.756 -34.584  1.00  0.00     0.163 HD
HETATM    8  O   UNL     1      -9.489  -0.400 -31.761  1.00  0.00    -0.262 OA
BRANCH   6   9
HETATM    9  C   UNL     1      -7.509  -0.897 -33.714  1.00  0.00     0.161 C 
BRANCH   9  10
HETATM   10  C   UNL     1      -6.313  -0.604 -34.646  1.00  0.00     0.078 C 
HETATM   11  C   UNL     1      -5.609  -1.889 -35.124  1.00  0.00     0.078 C 
HETATM   12  C   UNL     1      -4.766  -2.544 -34.061  1.00  0.00    -0.049 A 
HETATM   13  C   UNL     1      -4.277  -1.816 -32.960  1.00  0.00    -0.052 A 
HETATM   14  C   UNL     1      -4.431  -3.899 -34.199  1.00  0.00     0.007 A 
HETATM   15  C   UNL     1      -3.496  -2.474 -31.998  1.00  0.00     0.007 A 
HETATM   16  C   UNL     1      -4.634  -0.366 -32.741  1.00  0.00     0.042 C 
HETATM   17  C   UNL     1      -3.182  -3.826 -32.138  1.00  0.00     0.001 A 
HETATM   18  C   UNL     1      -3.647  -4.537 -33.240  1.00  0.00     0.001 A 
HETATM   19  C   UNL     1      -5.279   0.300 -33.956  1.00  0.00     0.044 C 
BRANCH  10  20
HETATM   20  O   UNL     1      -6.831   0.096 -35.795  1.00  0.00    -0.388 OA
HETATM   21  H   UNL     1      -6.348   0.938 -35.873  1.00  0.00     0.210 HD
ENDBRANCH  10  20
ENDBRANCH   9  10
ENDBRANCH   6   9
ENDBRANCH   1   5
BRANCH   2  22
HETATM   22  C   UNL     1      -8.654   3.151 -32.654  1.00  0.00     0.035 A 
HETATM   23  C   UNL     1      -7.762   2.747 -31.664  1.00  0.00     0.039 A 
HETATM   24  C   UNL     1      -6.421   3.178 -31.672  1.00  0.00    -0.029 A 
HETATM   25  C   UNL     1      -5.963   4.072 -32.662  1.00  0.00     0.043 A 
HETATM   26  C   UNL     1      -5.526   2.665 -30.576  1.00  0.00     0.042 C 
HETATM   27  N   UNL     1      -4.620   4.597 -32.592  1.00  0.00    -0.313 N 
HETATM   28  C   UNL     1      -6.874   4.446 -33.662  1.00  0.00     0.032 A 
HETATM   29  C   UNL     1      -4.064   5.436 -33.589  1.00  0.00     0.265 C 
HETATM   30  C   UNL     1      -3.809   4.208 -31.429  1.00  0.00     0.133 C 
HETATM   31  O   UNL     1      -4.444   5.431 -34.759  1.00  0.00    -0.267 OA
HETATM   32  C   UNL     1      -4.071   2.784 -30.978  1.00  0.00     0.025 C 
HETATM   33  C   UNL     1      -8.191   3.965 -33.679  1.00  0.00     0.032 A 
BRANCH  29  34
HETATM   34  C   UNL     1      -2.989   6.332 -33.161  1.00  0.00     0.073 A 
HETATM   35  S   UNL     1      -3.334   7.585 -32.043  1.00  0.00    -0.097 SA
HETATM   36  C   UNL     1      -1.716   8.137 -32.060  1.00  0.00     0.050 A 
HETATM   37  C   UNL     1      -0.915   7.368 -32.873  1.00  0.00     0.009 A 
HETATM   38  C   UNL     1      -1.646   6.313 -33.495  1.00  0.00     0.025 A 
ENDBRANCH  29  34
ENDBRANCH   2  22
TORSDOF 6
ENDMDL
MODEL 6
REMARK VINA RESULT:      -9.5      4.401      7.827
REMARK  6 active torsions:
REMARK  status: ('A' for Active; 'I' for Inactive)
REMARK    1  A    between atoms: C_6  and  C_8 
REMARK    2  A    between atoms: C_6  and  O_7 
REMARK    3  A    between atoms: C_8  and  N_9 
REMARK       I    between atoms: N_9  and  C_10 
REMARK    4  A    between atoms: C_10  and  C_11 
REMARK       I    between atoms: C_11  and  N_12 
REMARK    5  A    between atoms: N_12  and  C_13 
REMARK       I    between atoms: N_17  and  C_18 
REMARK    6  A    between atoms: C_18  and  C_19 
ROOT
HETATM    1  C   UNL     1      -3.436   5.505 -31.181  1.00  0.00     0.313 C 
HETATM    2  N   UNL     1      -4.507   6.324 -31.470  1.00  0.00    -0.319 N 
HETATM    3  O   UNL     1      -2.417   5.910 -30.633  1.00  0.00    -0.262 OA
HETATM    4  H   UNL     1      -4.259   7.302 -31.548  1.00  0.00     0.169 HD
ENDROOT
BRANCH   1   5
HETATM    5  C   UNL     1      -3.488   4.058 -31.697  1.00  0.00     0.309 C 
HETATM    6  N   UNL     1      -3.928   3.126 -30.782  1.00  0.00    -0.350 N 
HETATM    7  H   UNL     1      -4.284   3.436 -29.884  1.00  0.00     0.163 HD
HETATM    8  O   UNL     1      -3.164   3.809 -32.851  1.00  0.00    -0.262 OA
BRANCH   6   9
HETATM    9  C   UNL     1      -4.149   1.751 -31.186  1.00  0.00     0.161 C 
BRANCH   9  10
HETATM   10  C   UNL     1      -5.490   1.176 -30.680  1.00  0.00     0.078 C 
HETATM   11  C   UNL     1      -5.754  -0.251 -31.197  1.00  0.00     0.078 C 
HETATM   12  C   UNL     1      -6.152  -0.300 -32.650  1.00  0.00    -0.049 A 
HETATM   13  C   UNL     1      -6.706   0.820 -33.297  1.00  0.00    -0.052 A 
HETATM   14  C   UNL     1      -6.001  -1.504 -33.355  1.00  0.00     0.007 A 
HETATM   15  C   UNL     1      -7.060   0.721 -34.651  1.00  0.00     0.007 A 
HETATM   16  C   UNL     1      -6.859   2.149 -32.599  1.00  0.00     0.042 C 
HETATM   17  C   UNL     1      -6.891  -0.477 -35.346  1.00  0.00     0.001 A 
HETATM   18  C   UNL     1      -6.365  -1.590 -34.697  1.00  0.00     0.001 A 
HETATM   19  C   UNL     1      -6.669   2.075 -31.084  1.00  0.00     0.044 C 
BRANCH  10  20
HETATM   20  O   UNL     1      -5.421   1.142 -29.240  1.00  0.00    -0.388 OA
HETATM   21  H   UNL     1      -5.959   0.390 -28.934  1.00  0.00     0.210 HD
ENDBRANCH  10  20
ENDBRANCH   9  10
ENDBRANCH   6   9
ENDBRANCH   1   5
BRANCH   2  22
HETATM   22  C   UNL     1      -5.812   5.939 -31.810  1.00  0.00     0.035 A 
HETATM   23  C   UNL     1      -6.812   5.779 -30.854  1.00  0.00     0.039 A 
HETATM   24  C   UNL     1      -8.125   5.429 -31.225  1.00  0.00    -0.029 A 
HETATM   25  C   UNL     1      -8.445   5.182 -32.577  1.00  0.00     0.043 A 
HETATM   26  C   UNL     1      -9.143   5.306 -30.124  1.00  0.00     0.042 C 
HETATM   27  N   UNL     1      -9.762   4.711 -32.930  1.00  0.00    -0.313 N 
HETATM   28  C   UNL     1      -7.426   5.373 -33.524  1.00  0.00     0.032 A 
HETATM   29  C   UNL     1     -10.181   4.516 -34.270  1.00  0.00     0.265 C 
HETATM   30  C   UNL     1     -10.698   4.447 -31.827  1.00  0.00     0.133 C 
HETATM   31  O   UNL     1      -9.692   5.124 -35.221  1.00  0.00    -0.267 OA
HETATM   32  C   UNL     1     -10.546   5.427 -30.680  1.00  0.00     0.025 C 
HETATM   33  C   UNL     1      -6.137   5.780 -33.151  1.00  0.00     0.032 A 
BRANCH  29  34
HETATM   34  C   UNL     1     -11.249   3.539 -34.483  1.00  0.00     0.073 A 
HETATM   35  S   UNL     1     -10.894   1.866 -34.363  1.00  0.00    -0.097 SA
HETATM   36  C   UNL     1     -12.507   1.429 -34.720  1.00  0.00     0.050 A 
HETATM   37  C   UNL     1     -13.315   2.530 -34.897  1.00  0.00     0.009 A 
HETATM   38  C   UNL     1     -12.592   3.749 -34.741  1.00  0.00     0.025 A 
ENDBRANCH  29  34
ENDBRANCH   2  22
TORSDOF 6
ENDMDL
MODEL 7
REMARK VINA RESULT:      -9.4      3.459      8.959
REMARK  6 active torsions:
REMARK  status: ('A' for Active; 'I' for Inactive)
REMARK    1  A    between atoms: C_6  and  C_8 
REMARK    2  A    between atoms: C_6  and  O_7 
REMARK    3  A    between atoms: C_8  and  N_9 
REMARK       I    between atoms: N_9  and  C_10 
REMARK    4  A    between atoms: C_10  and  C_11 
REMARK       I    between atoms: C_11  and  N_12 
REMARK    5  A    between atoms: N_12  and  C_13 
REMARK       I    between atoms: N_17  and  C_18 
REMARK    6  A    between atoms: C_18  and  C_19 
ROOT
HETATM    1  C   UNL     1      -6.241   7.284 -27.853  1.00  0.00     0.313 C 
HETATM    2  N   UNL     1      -6.775   6.719 -28.992  1.00  0.00    -0.319 N 
HETATM    3  O   UNL     1      -6.821   8.146 -27.203  1.00  0.00    -0.262 OA
HETATM    4  H   UNL     1      -7.465   7.302 -29.449  1.00  0.00     0.169 HD
ENDROOT
BRANCH   1   5
HETATM    5  C   UNL     1      -4.800   6.901 -27.478  1.00  0.00     0.309 C 
HETATM    6  N   UNL     1      -3.820   7.665 -28.073  1.00  0.00    -0.350 N 
HETATM    7  H   UNL     1      -4.082   8.477 -28.623  1.00  0.00     0.163 HD
HETATM    8  O   UNL     1      -4.597   5.986 -26.691  1.00  0.00    -0.262 OA
BRANCH   6   9
HETATM    9  C   UNL     1      -2.429   7.493 -27.697  1.00  0.00     0.161 C 
BRANCH   9  10
HETATM   10  C   UNL     1      -1.521   8.645 -28.181  1.00  0.00     0.078 C 
HETATM   11  C   UNL     1      -1.922   9.169 -29.572  1.00  0.00     0.078 C 
HETATM   12  C   UNL     1      -1.537   8.243 -30.698  1.00  0.00    -0.049 A 
HETATM   13  C   UNL     1      -0.508   7.295 -30.549  1.00  0.00    -0.052 A 
HETATM   14  C   UNL     1      -2.197   8.362 -31.930  1.00  0.00     0.007 A 
HETATM   15  C   UNL     1      -0.190   6.457 -31.628  1.00  0.00     0.007 A 
HETATM   16  C   UNL     1       0.211   7.098 -29.237  1.00  0.00     0.042 C 
HETATM   17  C   UNL     1      -0.863   6.574 -32.845  1.00  0.00     0.001 A 
HETATM   18  C   UNL     1      -1.863   7.529 -32.996  1.00  0.00     0.001 A 
HETATM   19  C   UNL     1      -0.047   8.211 -28.220  1.00  0.00     0.044 C 
BRANCH  10  20
HETATM   20  O   UNL     1      -1.650   9.717 -27.226  1.00  0.00    -0.388 OA
HETATM   21  H   UNL     1      -0.916   9.641 -26.592  1.00  0.00     0.210 HD
ENDBRANCH  10  20
ENDBRANCH   9  10
ENDBRANCH   6   9
ENDBRANCH   1   5
BRANCH   2  22
HETATM   22  C   UNL     1      -6.364   5.545 -29.639  1.00  0.00     0.035 A 
HETATM   23  C   UNL     1      -5.304   5.527 -30.544  1.00  0.00     0.039 A 
HETATM   24  C   UNL     1      -4.887   4.327 -31.152  1.00  0.00    -0.029 A 
HETATM   25  C   UNL     1      -5.569   3.119 -30.896  1.00  0.00     0.043 A 
HETATM   26  C   UNL     1      -3.715   4.404 -32.094  1.00  0.00     0.042 C 
HETATM   27  N   UNL     1      -5.206   1.921 -31.613  1.00  0.00    -0.313 N 
HETATM   28  C   UNL     1      -6.618   3.159 -29.963  1.00  0.00     0.032 A 
HETATM   29  C   UNL     1      -5.791   0.657 -31.355  1.00  0.00     0.265 C 
HETATM   30  C   UNL     1      -4.164   2.047 -32.643  1.00  0.00     0.133 C 
HETATM   31  O   UNL     1      -6.280   0.353 -30.268  1.00  0.00    -0.267 OA
HETATM   32  C   UNL     1      -3.081   3.039 -32.265  1.00  0.00     0.025 C 
HETATM   33  C   UNL     1      -6.988   4.347 -29.317  1.00  0.00     0.032 A 
BRANCH  29  34
HETATM   34  C   UNL     1      -5.788  -0.301 -32.462  1.00  0.00     0.073 A 
HETATM   35  S   UNL     1      -4.476  -1.392 -32.624  1.00  0.00    -0.097 SA
HETATM   36  C   UNL     1      -5.151  -2.101 -34.025  1.00  0.00     0.050 A 
HETATM   37  C   UNL     1      -6.367  -1.545 -34.352  1.00  0.00     0.009 A 
HETATM   38  C   UNL     1      -6.745  -0.518 -33.438  1.00  0.00     0.025 A 
ENDBRANCH  29  34
ENDBRANCH   2  22
TORSDOF 6
ENDMDL
MODEL 8
REMARK VINA RESULT:      -9.3      4.172      9.922
REMARK  6 active torsions:
REMARK  status: ('A' for Active; 'I' for Inactive)
REMARK    1  A    between atoms: C_6  and  C_8 
REMARK    2  A    between atoms: C_6  and  O_7 
REMARK    3  A    between atoms: C_8  and  N_9 
REMARK       I    between atoms: N_9  and  C_10 
REMARK    4  A    between atoms: C_10  and  C_11 
REMARK       I    between atoms: C_11  and  N_12 
REMARK    5  A    between atoms: N_12  and  C_13 
REMARK       I    between atoms: N_17  and  C_18 
REMARK    6  A    between atoms: C_18  and  C_19 
ROOT
HETATM    1  C   UNL     1      -3.677   1.722 -31.150  1.00  0.00     0.313 C 
HETATM    2  N   UNL     1      -4.850   1.147 -30.708  1.00  0.00    -0.319 N 
HETATM    3  O   UNL     1      -2.570   1.276 -30.868  1.00  0.00    -0.262 OA
HETATM    4  H   UNL     1      -4.739   0.593 -29.868  1.00  0.00     0.169 HD
ENDROOT
BRANCH   1   5
HETATM    5  C   UNL     1      -3.781   3.053 -31.911  1.00  0.00     0.309 C 
HETATM    6  N   UNL     1      -3.350   4.160 -31.212  1.00  0.00    -0.350 N 
HETATM    7  H   UNL     1      -2.905   4.040 -30.308  1.00  0.00     0.163 HD
HETATM    8  O   UNL     1      -4.208   3.069 -33.058  1.00  0.00    -0.262 OA
BRANCH   6   9
HETATM    9  C   UNL     1      -3.271   5.453 -31.866  1.00  0.00     0.161 C 
BRANCH   9  10
HETATM   10  C   UNL     1      -1.925   5.688 -32.587  1.00  0.00     0.078 C 
HETATM   11  C   UNL     1      -0.734   5.068 -31.833  1.00  0.00     0.078 C 
HETATM   12  C   UNL     1      -0.336   5.837 -30.599  1.00  0.00    -0.049 A 
HETATM   13  C   UNL     1      -0.663   7.197 -30.446  1.00  0.00    -0.052 A 
HETATM   14  C   UNL     1       0.410   5.187 -29.605  1.00  0.00     0.007 A 
HETATM   15  C   UNL     1      -0.268   7.867 -29.278  1.00  0.00     0.007 A 
HETATM   16  C   UNL     1      -1.493   7.938 -31.465  1.00  0.00     0.042 C 
HETATM   17  C   UNL     1       0.460   7.206 -28.288  1.00  0.00     0.001 A 
HETATM   18  C   UNL     1       0.802   5.868 -28.454  1.00  0.00     0.001 A 
HETATM   19  C   UNL     1      -1.657   7.189 -32.788  1.00  0.00     0.044 C 
BRANCH  10  20
HETATM   20  O   UNL     1      -2.025   5.070 -33.886  1.00  0.00    -0.388 OA
HETATM   21  H   UNL     1      -1.182   4.619 -34.066  1.00  0.00     0.210 HD
ENDBRANCH  10  20
ENDBRANCH   9  10
ENDBRANCH   6   9
ENDBRANCH   1   5
BRANCH   2  22
HETATM   22  C   UNL     1      -6.148   1.371 -31.189  1.00  0.00     0.035 A 
HETATM   23  C   UNL     1      -7.015   2.283 -30.593  1.00  0.00     0.039 A 
HETATM   24  C   UNL     1      -8.300   2.516 -31.119  1.00  0.00    -0.029 A 
HETATM   25  C   UNL     1      -8.759   1.790 -32.238  1.00  0.00     0.043 A 
HETATM   26  C   UNL     1      -9.154   3.542 -30.422  1.00  0.00     0.042 C 
HETATM   27  N   UNL     1     -10.118   1.954 -32.695  1.00  0.00    -0.313 N 
HETATM   28  C   UNL     1      -7.859   0.894 -32.835  1.00  0.00     0.032 A 
HETATM   29  C   UNL     1     -10.626   1.320 -33.855  1.00  0.00     0.265 C 
HETATM   30  C   UNL     1     -10.986   2.843 -31.909  1.00  0.00     0.133 C 
HETATM   31  O   UNL     1      -9.914   0.972 -34.797  1.00  0.00    -0.267 OA
HETATM   32  C   UNL     1     -10.246   4.040 -31.345  1.00  0.00     0.025 C 
HETATM   33  C   UNL     1      -6.559   0.712 -32.341  1.00  0.00     0.032 A 
BRANCH  29  34
HETATM   34  C   UNL     1     -12.071   1.091 -33.893  1.00  0.00     0.073 A 
HETATM   35  S   UNL     1     -13.098   2.307 -34.528  1.00  0.00    -0.097 SA
HETATM   36  C   UNL     1     -14.498   1.370 -34.240  1.00  0.00     0.050 A 
HETATM   37  C   UNL     1     -14.196   0.140 -33.701  1.00  0.00     0.009 A 
HETATM   38  C   UNL     1     -12.792  -0.029 -33.518  1.00  0.00     0.025 A 
ENDBRANCH  29  34
ENDBRANCH   2  22
TORSDOF 6
ENDMDL
MODEL 9
REMARK VINA RESULT:      -9.2      1.587      1.954
REMARK  6 active torsions:
REMARK  status: ('A' for Active; 'I' for Inactive)
REMARK    1  A    between atoms: C_6  and  C_8 
REMARK    2  A    between atoms: C_6  and  O_7 
REMARK    3  A    between atoms: C_8  and  N_9 
REMARK       I    between atoms: N_9  and  C_10 
REMARK    4  A    between atoms: C_10  and  C_11 
REMARK       I    between atoms: C_11  and  N_12 
REMARK    5  A    between atoms: N_12  and  C_13 
REMARK       I    between atoms: N_17  and  C_18 
REMARK    6  A    between atoms: C_18  and  C_19 
ROOT
HETATM    1  C   UNL     1      -2.240   5.597 -34.047  1.00  0.00     0.313 C 
HETATM    2  N   UNL     1      -2.139   6.892 -33.585  1.00  0.00    -0.319 N 
HETATM    3  O   UNL     1      -2.145   5.305 -35.234  1.00  0.00    -0.262 OA
HETATM    4  H   UNL     1      -2.355   7.590 -34.284  1.00  0.00     0.169 HD
ENDROOT
BRANCH   1   5
HETATM    5  C   UNL     1      -2.623   4.507 -33.034  1.00  0.00     0.309 C 
HETATM    6  N   UNL     1      -3.971   4.231 -32.955  1.00  0.00    -0.350 N 
HETATM    7  H   UNL     1      -4.610   4.663 -33.614  1.00  0.00     0.163 HD
HETATM    8  O   UNL     1      -1.752   3.946 -32.381  1.00  0.00    -0.262 OA
BRANCH   6   9
HETATM    9  C   UNL     1      -4.446   3.132 -32.136  1.00  0.00     0.161 C 
BRANCH   9  10
HETATM   10  C   UNL     1      -5.965   3.190 -31.859  1.00  0.00     0.078 C 
HETATM   11  C   UNL     1      -6.563   1.805 -31.553  1.00  0.00     0.078 C 
HETATM   12  C   UNL     1      -6.704   0.927 -32.770  1.00  0.00    -0.049 A 
HETATM   13  C   UNL     1      -6.768   1.474 -34.065  1.00  0.00    -0.052 A 
HETATM   14  C   UNL     1      -6.815  -0.460 -32.598  1.00  0.00     0.007 A 
HETATM   15  C   UNL     1      -6.899   0.613 -35.165  1.00  0.00     0.007 A 
HETATM   16  C   UNL     1      -6.620   2.956 -34.313  1.00  0.00     0.042 C 
HETATM   17  C   UNL     1      -6.993  -0.767 -34.983  1.00  0.00     0.001 A 
HETATM   18  C   UNL     1      -6.954  -1.303 -33.699  1.00  0.00     0.001 A 
HETATM   19  C   UNL     1      -6.722   3.806 -33.047  1.00  0.00     0.044 C 
BRANCH  10  20
HETATM   20  O   UNL     1      -6.155   4.042 -30.712  1.00  0.00    -0.388 OA
HETATM   21  H   UNL     1      -6.865   3.656 -30.169  1.00  0.00     0.210 HD
ENDBRANCH  10  20
ENDBRANCH   9  10
ENDBRANCH   6   9
ENDBRANCH   1   5
BRANCH   2  22
HETATM   22  C   UNL     1      -1.933   7.315 -32.263  1.00  0.00     0.035 A 
HETATM   23  C   UNL     1      -0.771   7.011 -31.558  1.00  0.00     0.039 A 
HETATM   24  C   UNL     1      -0.573   7.480 -30.245  1.00  0.00    -0.029 A 
HETATM   25  C   UNL     1      -1.575   8.231 -29.594  1.00  0.00     0.043 A 
HETATM   26  C   UNL     1       0.726   7.123 -29.574  1.00  0.00     0.042 C 
HETATM   27  N   UNL     1      -1.409   8.606 -28.211  1.00  0.00    -0.313 N 
HETATM   28  C   UNL     1      -2.725   8.545 -30.334  1.00  0.00     0.032 A 
HETATM   29  C   UNL     1      -2.332   9.424 -27.514  1.00  0.00     0.265 C 
HETATM   30  C   UNL     1      -0.205   8.116 -27.523  1.00  0.00     0.133 C 
HETATM   31  O   UNL     1      -3.066  10.236 -28.076  1.00  0.00    -0.267 OA
HETATM   32  C   UNL     1       1.011   8.071 -28.428  1.00  0.00     0.025 C 
HETATM   33  C   UNL     1      -2.888   8.124 -31.662  1.00  0.00     0.032 A 
BRANCH  29  34
HETATM   34  C   UNL     1      -2.379   9.262 -26.060  1.00  0.00     0.073 A 
HETATM   35  S   UNL     1      -1.594  10.414 -25.062  1.00  0.00    -0.097 SA
HETATM   36  C   UNL     1      -2.058   9.593 -23.636  1.00  0.00     0.050 A 
HETATM   37  C   UNL     1      -2.823   8.481 -23.904  1.00  0.00     0.009 A 
HETATM   38  C   UNL     1      -3.025   8.300 -25.304  1.00  0.00     0.025 A 
ENDBRANCH  29  34
ENDBRANCH   2  22
TORSDOF 6
ENDMDL
MODEL 10
REMARK VINA RESULT:      -9.2      4.112      9.342
REMARK  6 active torsions:
REMARK  status: ('A' for Active; 'I' for Inactive)
REMARK    1  A    between atoms: C_6  and  C_8 
REMARK    2  A    between atoms: C_6  and  O_7 
REMARK    3  A    between atoms: C_8  and  N_9 
REMARK       I    between atoms: N_9  and  C_10 
REMARK    4  A    between atoms: C_10  and  C_11 
REMARK       I    between atoms: C_11  and  N_12 
REMARK    5  A    between atoms: N_12  and  C_13 
REMARK       I    between atoms: N_17  and  C_18 
REMARK    6  A    between atoms: C_18  and  C_19 
ROOT
HETATM    1  C   UNL     1      -3.676   1.537 -31.200  1.00  0.00     0.313 C 
HETATM    2  N   UNL     1      -4.852   1.042 -30.679  1.00  0.00    -0.319 N 
HETATM    3  O   UNL     1      -2.593   0.984 -31.040  1.00  0.00    -0.262 OA
HETATM    4  H   UNL     1      -4.719   0.439 -29.877  1.00  0.00     0.169 HD
ENDROOT
BRANCH   1   5
HETATM    5  C   UNL     1      -3.725   2.909 -31.890  1.00  0.00     0.309 C 
HETATM    6  N   UNL     1      -3.228   3.956 -31.144  1.00  0.00    -0.350 N 
HETATM    7  H   UNL     1      -2.775   3.768 -30.256  1.00  0.00     0.163 HD
HETATM    8  O   UNL     1      -4.169   3.006 -33.027  1.00  0.00    -0.262 OA
BRANCH   6   9
HETATM    9  C   UNL     1      -3.095   5.275 -31.732  1.00  0.00     0.161 C 
BRANCH   9  10
HETATM   10  C   UNL     1      -1.723   5.506 -32.405  1.00  0.00     0.078 C 
HETATM   11  C   UNL     1      -0.551   4.999 -31.545  1.00  0.00     0.078 C 
HETATM   12  C   UNL     1      -0.245   5.882 -30.363  1.00  0.00    -0.049 A 
HETATM   13  C   UNL     1      -0.629   7.236 -30.340  1.00  0.00    -0.052 A 
HETATM   14  C   UNL     1       0.472   5.347 -29.283  1.00  0.00     0.007 A 
HETATM   15  C   UNL     1      -0.320   8.015 -29.215  1.00  0.00     0.007 A 
HETATM   16  C   UNL     1      -1.432   7.856 -31.457  1.00  0.00     0.042 C 
HETATM   17  C   UNL     1       0.381   7.468 -28.140  1.00  0.00     0.001 A 
HETATM   18  C   UNL     1       0.780   6.135 -28.175  1.00  0.00     0.001 A 
HETATM   19  C   UNL     1      -1.502   6.994 -32.718  1.00  0.00     0.044 C 
BRANCH  10  20
HETATM   20  O   UNL     1      -1.734   4.779 -33.650  1.00  0.00    -0.388 OA
HETATM   21  H   UNL     1      -2.182   3.929 -33.495  1.00  0.00     0.210 HD
ENDBRANCH  10  20
ENDBRANCH   9  10
ENDBRANCH   6   9
ENDBRANCH   1   5
BRANCH   2  22
HETATM   22  C   UNL     1      -6.162   1.401 -31.030  1.00  0.00     0.035 A 
HETATM   23  C   UNL     1      -6.892   0.702 -31.990  1.00  0.00     0.039 A 
HETATM   24  C   UNL     1      -8.219   1.060 -32.297  1.00  0.00    -0.029 A 
HETATM   25  C   UNL     1      -8.824   2.171 -31.673  1.00  0.00     0.043 A 
HETATM   26  C   UNL     1      -8.935   0.229 -33.327  1.00  0.00     0.042 C 
HETATM   27  N   UNL     1     -10.141   2.597 -32.081  1.00  0.00    -0.313 N 
HETATM   28  C   UNL     1      -8.077   2.844 -30.693  1.00  0.00     0.032 A 
HETATM   29  C   UNL     1     -10.843   3.653 -31.449  1.00  0.00     0.265 C 
HETATM   30  C   UNL     1     -10.765   1.870 -33.197  1.00  0.00     0.133 C 
HETATM   31  O   UNL     1     -10.647   3.985 -30.281  1.00  0.00    -0.267 OA
HETATM   32  C   UNL     1     -10.435   0.390 -33.191  1.00  0.00     0.025 C 
HETATM   33  C   UNL     1      -6.777   2.444 -30.350  1.00  0.00     0.032 A 
BRANCH  29  34
HETATM   34  C   UNL     1     -11.842   4.349 -32.262  1.00  0.00     0.073 A 
HETATM   35  S   UNL     1     -11.324   5.474 -33.447  1.00  0.00    -0.097 SA
HETATM   36  C   UNL     1     -12.931   5.827 -33.911  1.00  0.00     0.050 A 
HETATM   37  C   UNL     1     -13.849   5.084 -33.204  1.00  0.00     0.009 A 
HETATM   38  C   UNL     1     -13.219   4.216 -32.264  1.00  0.00     0.025 A 
ENDBRANCH  29  34
ENDBRANCH   2  22
TORSDOF 6
ENDMDL
