MODEL 1
REMARK VINA RESULT:      -8.2      0.000      0.000
REMARK  8 active torsions:
REMARK  status: ('A' for Active; 'I' for Inactive)
REMARK    1  A    between atoms: C_2  and  S_3 
REMARK    2  A    between atoms: S_3  and  C_4 
REMARK    3  A    between atoms: C_7  and  N_8 
REMARK    4  A    between atoms: N_8  and  C_9 
REMARK    5  A    between atoms: C_9  and  N_10 
REMARK       I    between atoms: N_10  and  C_11 
REMARK    6  A    between atoms: C_11  and  C_12 
REMARK    7  A    between atoms: C_21  and  C_22 
REMARK       I    between atoms: C_22  and  N_23 
REMARK    8  A    between atoms: C_25  and  C_26 
REMARK       I    between atoms: C_26  and  N_27 
ROOT
HETATM    1  C   UNL     1      -1.924   5.741 -31.015  1.00  0.00     0.088 A 
HETATM    2  N   UNL     1      -2.371   4.461 -30.926  1.00  0.00    -0.335 N 
HETATM    3  H   UNL     1      -2.184   3.846 -30.146  1.00  0.00     0.168 HD
HETATM    4  C   UNL     1      -3.063   4.113 -32.049  1.00  0.00     0.125 A 
HETATM    5  C   UNL     1      -3.118   5.242 -32.868  1.00  0.00     0.094 A 
HETATM    6  C   UNL     1      -2.346   6.295 -32.215  1.00  0.00     0.084 A 
ENDROOT
BRANCH   4   7
HETATM    7  N   UNL     1      -3.583   2.845 -32.269  1.00  0.00    -0.318 N 
HETATM    8  H   UNL     1      -2.900   2.098 -32.422  1.00  0.00     0.170 HD
BRANCH   7   9
HETATM    9  C   UNL     1      -4.895   2.427 -32.217  1.00  0.00     0.180 C 
HETATM   10  S   UNL     1      -6.218   3.179 -31.519  1.00  0.00    -0.040 SA
BRANCH   9  11
HETATM   11  N   UNL     1      -5.142   1.209 -32.831  1.00  0.00    -0.299 N 
HETATM   12  C   UNL     1      -4.887  -0.069 -32.351  1.00  0.00     0.259 C 
HETATM   13  O   UNL     1      -4.336  -0.302 -31.281  1.00  0.00    -0.267 OA
HETATM   14  H   UNL     1      -5.572   1.302 -33.743  1.00  0.00     0.171 HD
BRANCH  12  15
HETATM   15  C   UNL     1      -5.299  -1.167 -33.254  1.00  0.00     0.054 A 
HETATM   16  C   UNL     1      -6.644  -1.372 -33.584  1.00  0.00     0.049 A 
HETATM   17 CL   UNL     1      -7.911  -0.336 -33.036  1.00  0.00    -0.083 Cl
HETATM   18  C   UNL     1      -6.993  -2.424 -34.437  1.00  0.00     0.025 A 
HETATM   19  C   UNL     1      -6.008  -3.268 -34.955  1.00  0.00     0.002 A 
HETATM   20  C   UNL     1      -4.670  -3.068 -34.622  1.00  0.00     0.001 A 
HETATM   21  C   UNL     1      -4.312  -2.022 -33.770  1.00  0.00     0.019 A 
ENDBRANCH  12  15
ENDBRANCH   9  11
ENDBRANCH   7   9
ENDBRANCH   4   7
BRANCH   5  22
HETATM   22  C   UNL     1      -3.797   5.305 -34.157  1.00  0.00     0.254 C 
HETATM   23  N   UNL     1      -3.009   5.581 -35.236  1.00  0.00    -0.366 N 
HETATM   24  H   UNL     1      -2.000   5.613 -35.187  1.00  0.00     0.159 HD
HETATM   25  H   UNL     1      -3.443   5.601 -36.148  1.00  0.00     0.159 HD
HETATM   26  O   UNL     1      -4.997   5.098 -34.303  1.00  0.00    -0.268 OA
ENDBRANCH   5  22
BRANCH   1  27
HETATM   27  S   UNL     1      -1.008   6.315 -29.659  1.00  0.00    -0.112 SA
BRANCH  27  28
HETATM   28  C   UNL     1       0.374   5.135 -29.669  1.00  0.00     0.076 C 
HETATM   29  C   UNL     1       1.017   5.103 -31.044  1.00  0.00     0.016 C 
ENDBRANCH  27  28
ENDBRANCH   1  27
BRANCH   6  30
HETATM   30  C   UNL     1      -2.060   7.673 -32.629  1.00  0.00     0.253 C 
HETATM   31  N   UNL     1      -2.345   8.675 -31.752  1.00  0.00    -0.366 N 
HETATM   32  H   UNL     1      -2.909   8.533 -30.918  1.00  0.00     0.159 HD
HETATM   33  H   UNL     1      -2.239   9.620 -32.088  1.00  0.00     0.159 HD
HETATM   34  O   UNL     1      -1.597   7.981 -33.724  1.00  0.00    -0.268 OA
ENDBRANCH   6  30
TORSDOF 8
ENDMDL
MODEL 2
REMARK VINA RESULT:      -7.9      3.139      4.412
REMARK  8 active torsions:
REMARK  status: ('A' for Active; 'I' for Inactive)
REMARK    1  A    between atoms: C_2  and  S_3 
REMARK    2  A    between atoms: S_3  and  C_4 
REMARK    3  A    between atoms: C_7  and  N_8 
REMARK    4  A    between atoms: N_8  and  C_9 
REMARK    5  A    between atoms: C_9  and  N_10 
REMARK       I    between atoms: N_10  and  C_11 
REMARK    6  A    between atoms: C_11  and  C_12 
REMARK    7  A    between atoms: C_21  and  C_22 
REMARK       I    between atoms: C_22  and  N_23 
REMARK    8  A    between atoms: C_25  and  C_26 
REMARK       I    between atoms: C_26  and  N_27 
ROOT
HETATM    1  C   UNL     1      -4.780   3.247 -32.226  1.00  0.00     0.088 A 
HETATM    2  N   UNL     1      -5.438   2.432 -33.091  1.00  0.00    -0.335 N 
HETATM    3  H   UNL     1      -4.991   1.913 -33.835  1.00  0.00     0.168 HD
HETATM    4  C   UNL     1      -6.779   2.449 -32.844  1.00  0.00     0.125 A 
HETATM    5  C   UNL     1      -6.985   3.262 -31.728  1.00  0.00     0.094 A 
HETATM    6  C   UNL     1      -5.689   3.813 -31.344  1.00  0.00     0.084 A 
ENDROOT
BRANCH   4   7
HETATM    7  N   UNL     1      -7.711   1.762 -33.611  1.00  0.00    -0.318 N 
HETATM    8  H   UNL     1      -7.900   2.146 -34.541  1.00  0.00     0.170 HD
BRANCH   7   9
HETATM    9  C   UNL     1      -8.353   0.574 -33.334  1.00  0.00     0.180 C 
HETATM   10  S   UNL     1      -9.915   0.319 -32.788  1.00  0.00    -0.040 SA
BRANCH   9  11
HETATM   11  N   UNL     1      -7.587  -0.563 -33.538  1.00  0.00    -0.299 N 
HETATM   12  C   UNL     1      -6.851  -0.921 -34.660  1.00  0.00     0.259 C 
HETATM   13  O   UNL     1      -6.816  -0.265 -35.694  1.00  0.00    -0.267 OA
HETATM   14  H   UNL     1      -7.580  -1.187 -32.740  1.00  0.00     0.171 HD
BRANCH  12  15
HETATM   15  C   UNL     1      -6.117  -2.201 -34.541  1.00  0.00     0.054 A 
HETATM   16  C   UNL     1      -4.811  -2.248 -34.039  1.00  0.00     0.049 A 
HETATM   17 CL   UNL     1      -3.981  -0.851 -33.457  1.00  0.00    -0.083 Cl
HETATM   18  C   UNL     1      -4.151  -3.477 -33.948  1.00  0.00     0.025 A 
HETATM   19  C   UNL     1      -4.788  -4.652 -34.355  1.00  0.00     0.002 A 
HETATM   20  C   UNL     1      -6.085  -4.605 -34.860  1.00  0.00     0.001 A 
HETATM   21  C   UNL     1      -6.752  -3.382 -34.957  1.00  0.00     0.019 A 
ENDBRANCH  12  15
ENDBRANCH   9  11
ENDBRANCH   7   9
ENDBRANCH   4   7
BRANCH   5  22
HETATM   22  C   UNL     1      -8.282   3.523 -31.114  1.00  0.00     0.254 C 
HETATM   23  N   UNL     1      -8.674   2.643 -30.148  1.00  0.00    -0.366 N 
HETATM   24  H   UNL     1      -8.065   1.928 -29.774  1.00  0.00     0.159 HD
HETATM   25  H   UNL     1      -9.553   2.812 -29.681  1.00  0.00     0.159 HD
HETATM   26  O   UNL     1      -8.989   4.482 -31.404  1.00  0.00    -0.268 OA
ENDBRANCH   5  22
BRANCH   1  27
HETATM   27  S   UNL     1      -3.061   3.338 -32.436  1.00  0.00    -0.112 SA
BRANCH  27  28
HETATM   28  C   UNL     1      -2.891   5.040 -33.050  1.00  0.00     0.076 C 
HETATM   29  C   UNL     1      -2.636   5.027 -34.547  1.00  0.00     0.016 C 
ENDBRANCH  27  28
ENDBRANCH   1  27
BRANCH   6  30
HETATM   30  C   UNL     1      -5.319   4.729 -30.259  1.00  0.00     0.253 C 
HETATM   31  N   UNL     1      -5.295   4.239 -28.989  1.00  0.00    -0.366 N 
HETATM   32  H   UNL     1      -5.695   3.338 -28.739  1.00  0.00     0.159 HD
HETATM   33  H   UNL     1      -5.140   4.903 -28.246  1.00  0.00     0.159 HD
HETATM   34  O   UNL     1      -5.048   5.916 -30.424  1.00  0.00    -0.268 OA
ENDBRANCH   6  30
TORSDOF 8
ENDMDL
MODEL 3
REMARK VINA RESULT:      -7.8      4.804      7.683
REMARK  8 active torsions:
REMARK  status: ('A' for Active; 'I' for Inactive)
REMARK    1  A    between atoms: C_2  and  S_3 
REMARK    2  A    between atoms: S_3  and  C_4 
REMARK    3  A    between atoms: C_7  and  N_8 
REMARK    4  A    between atoms: N_8  and  C_9 
REMARK    5  A    between atoms: C_9  and  N_10 
REMARK       I    between atoms: N_10  and  C_11 
REMARK    6  A    between atoms: C_11  and  C_12 
REMARK    7  A    between atoms: C_21  and  C_22 
REMARK       I    between atoms: C_22  and  N_23 
REMARK    8  A    between atoms: C_25  and  C_26 
REMARK       I    between atoms: C_26  and  N_27 
ROOT
HETATM    1  C   UNL     1     -10.596   3.572 -34.321  1.00  0.00     0.088 A 
HETATM    2  N   UNL     1      -9.366   3.873 -33.829  1.00  0.00    -0.335 N 
HETATM    3  H   UNL     1      -8.873   4.736 -34.016  1.00  0.00     0.168 HD
HETATM    4  C   UNL     1      -8.875   2.835 -33.093  1.00  0.00     0.125 A 
HETATM    5  C   UNL     1      -9.863   1.849 -33.057  1.00  0.00     0.094 A 
HETATM    6  C   UNL     1     -10.972   2.310 -33.886  1.00  0.00     0.084 A 
ENDROOT
BRANCH   4   7
HETATM    7  N   UNL     1      -7.611   2.829 -32.520  1.00  0.00    -0.318 N 
HETATM    8  H   UNL     1      -7.577   2.925 -31.501  1.00  0.00     0.170 HD
BRANCH   7   9
HETATM    9  C   UNL     1      -6.389   2.615 -33.120  1.00  0.00     0.180 C 
HETATM   10  S   UNL     1      -5.160   3.708 -33.435  1.00  0.00    -0.040 SA
BRANCH   9  11
HETATM   11  N   UNL     1      -6.156   1.308 -33.518  1.00  0.00    -0.299 N 
HETATM   12  C   UNL     1      -6.183   0.152 -32.748  1.00  0.00     0.259 C 
HETATM   13  O   UNL     1      -6.381   0.138 -31.539  1.00  0.00    -0.267 OA
HETATM   14  H   UNL     1      -5.951   1.222 -34.506  1.00  0.00     0.171 HD
BRANCH  12  15
HETATM   15  C   UNL     1      -5.912  -1.098 -33.494  1.00  0.00     0.054 A 
HETATM   16  C   UNL     1      -4.604  -1.550 -33.706  1.00  0.00     0.049 A 
HETATM   17 CL   UNL     1      -3.219  -0.743 -33.068  1.00  0.00    -0.083 Cl
HETATM   18  C   UNL     1      -4.391  -2.734 -34.420  1.00  0.00     0.025 A 
HETATM   19  C   UNL     1      -5.474  -3.461 -34.920  1.00  0.00     0.002 A 
HETATM   20  C   UNL     1      -6.775  -3.008 -34.714  1.00  0.00     0.001 A 
HETATM   21  C   UNL     1      -6.998  -1.826 -34.004  1.00  0.00     0.019 A 
ENDBRANCH  12  15
ENDBRANCH   9  11
ENDBRANCH   7   9
ENDBRANCH   4   7
BRANCH   5  22
HETATM   22  C   UNL     1      -9.751   0.582 -32.343  1.00  0.00     0.254 C 
HETATM   23  N   UNL     1      -9.397   0.665 -31.029  1.00  0.00    -0.366 N 
HETATM   24  H   UNL     1      -9.342   1.541 -30.528  1.00  0.00     0.159 HD
HETATM   25  H   UNL     1      -9.340  -0.192 -30.496  1.00  0.00     0.159 HD
HETATM   26  O   UNL     1      -9.981  -0.508 -32.856  1.00  0.00    -0.268 OA
ENDBRANCH   5  22
BRANCH   1  27
HETATM   27  S   UNL     1     -11.337   4.800 -35.297  1.00  0.00    -0.112 SA
BRANCH  27  28
HETATM   28  C   UNL     1     -11.758   6.026 -34.023  1.00  0.00     0.076 C 
HETATM   29  C   UNL     1     -12.629   5.386 -32.957  1.00  0.00     0.016 C 
ENDBRANCH  27  28
ENDBRANCH   1  27
BRANCH   6  30
HETATM   30  C   UNL     1     -12.255   1.678 -34.211  1.00  0.00     0.253 C 
HETATM   31  N   UNL     1     -13.105   1.392 -33.185  1.00  0.00    -0.366 N 
HETATM   32  H   UNL     1     -12.820   1.423 -32.210  1.00  0.00     0.159 HD
HETATM   33  H   UNL     1     -13.935   0.866 -33.413  1.00  0.00     0.159 HD
HETATM   34  O   UNL     1     -12.603   1.373 -35.348  1.00  0.00    -0.268 OA
ENDBRANCH   6  30
TORSDOF 8
ENDMDL
MODEL 4
REMARK VINA RESULT:      -7.8      2.592      3.442
REMARK  8 active torsions:
REMARK  status: ('A' for Active; 'I' for Inactive)
REMARK    1  A    between atoms: C_2  and  S_3 
REMARK    2  A    between atoms: S_3  and  C_4 
REMARK    3  A    between atoms: C_7  and  N_8 
REMARK    4  A    between atoms: N_8  and  C_9 
REMARK    5  A    between atoms: C_9  and  N_10 
REMARK       I    between atoms: N_10  and  C_11 
REMARK    6  A    between atoms: C_11  and  C_12 
REMARK    7  A    between atoms: C_21  and  C_22 
REMARK       I    between atoms: C_22  and  N_23 
REMARK    8  A    between atoms: C_25  and  C_26 
REMARK       I    between atoms: C_26  and  N_27 
ROOT
HETATM    1  C   UNL     1      -3.415   4.082 -32.386  1.00  0.00     0.088 A 
HETATM    2  N   UNL     1      -3.746   2.766 -32.453  1.00  0.00    -0.335 N 
HETATM    3  H   UNL     1      -3.357   2.115 -33.122  1.00  0.00     0.168 HD
HETATM    4  C   UNL     1      -4.703   2.463 -31.530  1.00  0.00     0.125 A 
HETATM    5  C   UNL     1      -4.950   3.622 -30.792  1.00  0.00     0.094 A 
HETATM    6  C   UNL     1      -4.139   4.689 -31.370  1.00  0.00     0.084 A 
ENDROOT
BRANCH   4   7
HETATM    7  N   UNL     1      -5.283   1.208 -31.408  1.00  0.00    -0.318 N 
HETATM    8  H   UNL     1      -4.989   0.651 -30.602  1.00  0.00     0.170 HD
BRANCH   7   9
HETATM    9  C   UNL     1      -6.278   0.637 -32.172  1.00  0.00     0.180 C 
HETATM   10  S   UNL     1      -7.794   1.237 -32.555  1.00  0.00    -0.040 SA
BRANCH   9  11
HETATM   11  N   UNL     1      -5.970  -0.612 -32.690  1.00  0.00    -0.299 N 
HETATM   12  C   UNL     1      -4.777  -1.044 -33.254  1.00  0.00     0.259 C 
HETATM   13  O   UNL     1      -3.798  -0.326 -33.421  1.00  0.00    -0.267 OA
HETATM   14  H   UNL     1      -6.737  -1.270 -32.624  1.00  0.00     0.171 HD
BRANCH  12  15
HETATM   15  C   UNL     1      -4.771  -2.459 -33.690  1.00  0.00     0.054 A 
HETATM   16  C   UNL     1      -3.899  -3.393 -33.118  1.00  0.00     0.049 A 
HETATM   17 CL   UNL     1      -2.823  -3.002 -31.827  1.00  0.00    -0.083 Cl
HETATM   18  C   UNL     1      -3.922  -4.719 -33.561  1.00  0.00     0.025 A 
HETATM   19  C   UNL     1      -4.806  -5.112 -34.570  1.00  0.00     0.002 A 
HETATM   20  C   UNL     1      -5.670  -4.181 -35.143  1.00  0.00     0.001 A 
HETATM   21  C   UNL     1      -5.653  -2.854 -34.709  1.00  0.00     0.019 A 
ENDBRANCH  12  15
ENDBRANCH   9  11
ENDBRANCH   7   9
ENDBRANCH   4   7
BRANCH   5  22
HETATM   22  C   UNL     1      -5.888   3.719 -29.680  1.00  0.00     0.254 C 
HETATM   23  N   UNL     1      -5.439   4.379 -28.574  1.00  0.00    -0.366 N 
HETATM   24  H   UNL     1      -4.568   4.889 -28.554  1.00  0.00     0.159 HD
HETATM   25  H   UNL     1      -6.076   4.491 -27.797  1.00  0.00     0.159 HD
HETATM   26  O   UNL     1      -7.030   3.271 -29.715  1.00  0.00    -0.268 OA
ENDBRANCH   5  22
BRANCH   1  27
HETATM   27  S   UNL     1      -2.217   4.616 -33.521  1.00  0.00    -0.112 SA
BRANCH  27  28
HETATM   28  C   UNL     1      -0.925   5.206 -32.386  1.00  0.00     0.076 C 
HETATM   29  C   UNL     1      -0.717   6.699 -32.569  1.00  0.00     0.016 C 
ENDBRANCH  27  28
ENDBRANCH   1  27
BRANCH   6  30
HETATM   30  C   UNL     1      -4.013   6.104 -31.004  1.00  0.00     0.253 C 
HETATM   31  N   UNL     1      -4.542   7.032 -31.850  1.00  0.00    -0.366 N 
HETATM   32  H   UNL     1      -4.847   6.807 -32.793  1.00  0.00     0.159 HD
HETATM   33  H   UNL     1      -4.358   8.001 -31.637  1.00  0.00     0.159 HD
HETATM   34  O   UNL     1      -3.444   6.506 -29.993  1.00  0.00    -0.268 OA
ENDBRANCH   6  30
TORSDOF 8
ENDMDL
MODEL 5
REMARK VINA RESULT:      -7.8      5.824      8.085
REMARK  8 active torsions:
REMARK  status: ('A' for Active; 'I' for Inactive)
REMARK    1  A    between atoms: C_2  and  S_3 
REMARK    2  A    between atoms: S_3  and  C_4 
REMARK    3  A    between atoms: C_7  and  N_8 
REMARK    4  A    between atoms: N_8  and  C_9 
REMARK    5  A    between atoms: C_9  and  N_10 
REMARK       I    between atoms: N_10  and  C_11 
REMARK    6  A    between atoms: C_11  and  C_12 
REMARK    7  A    between atoms: C_21  and  C_22 
REMARK       I    between atoms: C_22  and  N_23 
REMARK    8  A    between atoms: C_25  and  C_26 
REMARK       I    between atoms: C_26  and  N_27 
ROOT
HETATM    1  C   UNL     1     -11.427   2.052 -33.995  1.00  0.00     0.088 A 
HETATM    2  N   UNL     1     -10.367   1.220 -33.825  1.00  0.00    -0.335 N 
HETATM    3  H   UNL     1     -10.145   0.448 -34.440  1.00  0.00     0.168 HD
HETATM    4  C   UNL     1      -9.678   1.541 -32.693  1.00  0.00     0.125 A 
HETATM    5  C   UNL     1     -10.287   2.672 -32.145  1.00  0.00     0.094 A 
HETATM    6  C   UNL     1     -11.448   2.988 -32.971  1.00  0.00     0.084 A 
ENDROOT
BRANCH   4   7
HETATM    7  N   UNL     1      -8.585   0.824 -32.227  1.00  0.00    -0.318 N 
HETATM    8  H   UNL     1      -8.777   0.132 -31.498  1.00  0.00     0.170 HD
BRANCH   7   9
HETATM    9  C   UNL     1      -7.282   0.843 -32.677  1.00  0.00     0.180 C 
HETATM   10  S   UNL     1      -6.237   2.141 -32.834  1.00  0.00    -0.040 SA
BRANCH   9  11
HETATM   11  N   UNL     1      -6.778  -0.393 -33.050  1.00  0.00    -0.299 N 
HETATM   12  C   UNL     1      -6.613  -0.910 -34.329  1.00  0.00     0.259 C 
HETATM   13  O   UNL     1      -6.954  -0.328 -35.352  1.00  0.00    -0.267 OA
HETATM   14  H   UNL     1      -6.495  -0.963 -32.262  1.00  0.00     0.171 HD
BRANCH  12  15
HETATM   15  C   UNL     1      -6.016  -2.264 -34.381  1.00  0.00     0.054 A 
HETATM   16  C   UNL     1      -4.672  -2.479 -34.056  1.00  0.00     0.049 A 
HETATM   17 CL   UNL     1      -3.628  -1.221 -33.506  1.00  0.00    -0.083 Cl
HETATM   18  C   UNL     1      -4.145  -3.773 -34.124  1.00  0.00     0.025 A 
HETATM   19  C   UNL     1      -4.953  -4.845 -34.514  1.00  0.00     0.002 A 
HETATM   20  C   UNL     1      -6.289  -4.629 -34.843  1.00  0.00     0.001 A 
HETATM   21  C   UNL     1      -6.824  -3.341 -34.781  1.00  0.00     0.019 A 
ENDBRANCH  12  15
ENDBRANCH   9  11
ENDBRANCH   7   9
ENDBRANCH   4   7
BRANCH   5  22
HETATM   22  C   UNL     1      -9.837   3.360 -30.940  1.00  0.00     0.254 C 
HETATM   23  N   UNL     1     -10.796   3.614 -30.004  1.00  0.00    -0.366 N 
HETATM   24  H   UNL     1     -11.734   3.242 -30.061  1.00  0.00     0.159 HD
HETATM   25  H   UNL     1     -10.513   4.061 -29.143  1.00  0.00     0.159 HD
HETATM   26  O   UNL     1      -8.671   3.679 -30.736  1.00  0.00    -0.268 OA
ENDBRANCH   5  22
BRANCH   1  27
HETATM   27  S   UNL     1     -12.408   1.747 -35.393  1.00  0.00    -0.112 SA
BRANCH  27  28
HETATM   28  C   UNL     1     -13.881   1.023 -34.613  1.00  0.00     0.076 C 
HETATM   29  C   UNL     1     -13.469  -0.082 -33.656  1.00  0.00     0.016 C 
ENDBRANCH  27  28
ENDBRANCH   1  27
BRANCH   6  30
HETATM   30  C   UNL     1     -12.447   4.056 -32.855  1.00  0.00     0.253 C 
HETATM   31  N   UNL     1     -12.037   5.338 -33.061  1.00  0.00    -0.366 N 
HETATM   32  H   UNL     1     -11.057   5.603 -33.104  1.00  0.00     0.159 HD
HETATM   33  H   UNL     1     -12.710   6.067 -32.877  1.00  0.00     0.159 HD
HETATM   34  O   UNL     1     -13.626   3.867 -32.566  1.00  0.00    -0.268 OA
ENDBRANCH   6  30
TORSDOF 8
ENDMDL
MODEL 6
REMARK VINA RESULT:      -7.7      1.897      2.282
REMARK  8 active torsions:
REMARK  status: ('A' for Active; 'I' for Inactive)
REMARK    1  A    between atoms: C_2  and  S_3 
REMARK    2  A    between atoms: S_3  and  C_4 
REMARK    3  A    between atoms: C_7  and  N_8 
REMARK    4  A    between atoms: N_8  and  C_9 
REMARK    5  A    between atoms: C_9  and  N_10 
REMARK       I    between atoms: N_10  and  C_11 
REMARK    6  A    between atoms: C_11  and  C_12 
REMARK    7  A    between atoms: C_21  and  C_22 
REMARK       I    between atoms: C_22  and  N_23 
REMARK    8  A    between atoms: C_25  and  C_26 
REMARK       I    between atoms: C_26  and  N_27 
ROOT
HETATM    1  C   UNL     1      -2.166   4.953 -31.782  1.00  0.00     0.088 A 
HETATM    2  N   UNL     1      -3.059   4.357 -30.948  1.00  0.00    -0.335 N 
HETATM    3  H   UNL     1      -2.829   3.996 -30.032  1.00  0.00     0.168 HD
HETATM    4  C   UNL     1      -4.287   4.276 -31.536  1.00  0.00     0.125 A 
HETATM    5  C   UNL     1      -4.194   4.906 -32.778  1.00  0.00     0.094 A 
HETATM    6  C   UNL     1      -2.805   5.317 -32.958  1.00  0.00     0.084 A 
ENDROOT
BRANCH   4   7
HETATM    7  N   UNL     1      -5.382   3.658 -30.948  1.00  0.00    -0.318 N 
HETATM    8  H   UNL     1      -5.464   3.758 -29.932  1.00  0.00     0.170 HD
BRANCH   7   9
HETATM    9  C   UNL     1      -6.433   3.003 -31.551  1.00  0.00     0.180 C 
HETATM   10  S   UNL     1      -8.046   3.446 -31.636  1.00  0.00    -0.040 SA
BRANCH   9  11
HETATM   11  N   UNL     1      -6.098   1.808 -32.169  1.00  0.00    -0.299 N 
HETATM   12  C   UNL     1      -6.326   0.512 -31.728  1.00  0.00     0.259 C 
HETATM   13  O   UNL     1      -6.843   0.235 -30.651  1.00  0.00    -0.267 OA
HETATM   14  H   UNL     1      -5.634   1.938 -33.060  1.00  0.00     0.171 HD
BRANCH  12  15
HETATM   15  C   UNL     1      -5.860  -0.550 -32.648  1.00  0.00     0.054 A 
HETATM   16  C   UNL     1      -4.573  -1.089 -32.545  1.00  0.00     0.049 A 
HETATM   17 CL   UNL     1      -3.458  -0.624 -31.312  1.00  0.00    -0.083 Cl
HETATM   18  C   UNL     1      -4.169  -2.088 -33.437  1.00  0.00     0.025 A 
HETATM   19  C   UNL     1      -5.043  -2.545 -34.427  1.00  0.00     0.002 A 
HETATM   20  C   UNL     1      -6.323  -2.004 -34.533  1.00  0.00     0.001 A 
HETATM   21  C   UNL     1      -6.734  -1.005 -33.648  1.00  0.00     0.019 A 
ENDBRANCH  12  15
ENDBRANCH   9  11
ENDBRANCH   7   9
ENDBRANCH   4   7
BRANCH   5  22
HETATM   22  C   UNL     1      -5.299   5.066 -33.717  1.00  0.00     0.254 C 
HETATM   23  N   UNL     1      -6.187   6.061 -33.431  1.00  0.00    -0.366 N 
HETATM   24  H   UNL     1      -6.037   6.740 -32.698  1.00  0.00     0.159 HD
HETATM   25  H   UNL     1      -6.948   6.220 -34.077  1.00  0.00     0.159 HD
HETATM   26  O   UNL     1      -5.436   4.384 -34.727  1.00  0.00    -0.268 OA
ENDBRANCH   5  22
BRANCH   1  27
HETATM   27  S   UNL     1      -0.551   5.108 -31.169  1.00  0.00    -0.112 SA
BRANCH  27  28
HETATM   28  C   UNL     1      -0.810   6.343 -29.861  1.00  0.00     0.076 C 
HETATM   29  C   UNL     1       0.454   7.161 -29.664  1.00  0.00     0.016 C 
ENDBRANCH  27  28
ENDBRANCH   1  27
BRANCH   6  30
HETATM   30  C   UNL     1      -2.144   6.005 -34.073  1.00  0.00     0.253 C 
HETATM   31  N   UNL     1      -1.538   5.242 -35.025  1.00  0.00    -0.366 N 
HETATM   32  H   UNL     1      -1.363   4.248 -34.904  1.00  0.00     0.159 HD
HETATM   33  H   UNL     1      -1.002   5.729 -35.727  1.00  0.00     0.159 HD
HETATM   34  O   UNL     1      -2.087   7.226 -34.191  1.00  0.00    -0.268 OA
ENDBRANCH   6  30
TORSDOF 8
ENDMDL
MODEL 7
REMARK VINA RESULT:      -7.6      4.294      5.678
REMARK  8 active torsions:
REMARK  status: ('A' for Active; 'I' for Inactive)
REMARK    1  A    between atoms: C_2  and  S_3 
REMARK    2  A    between atoms: S_3  and  C_4 
REMARK    3  A    between atoms: C_7  and  N_8 
REMARK    4  A    between atoms: N_8  and  C_9 
REMARK    5  A    between atoms: C_9  and  N_10 
REMARK       I    between atoms: N_10  and  C_11 
REMARK    6  A    between atoms: C_11  and  C_12 
REMARK    7  A    between atoms: C_21  and  C_22 
REMARK       I    between atoms: C_22  and  N_23 
REMARK    8  A    between atoms: C_25  and  C_26 
REMARK       I    between atoms: C_26  and  N_27 
ROOT
HETATM    1  C   UNL     1      -7.502   3.994 -29.925  1.00  0.00     0.088 A 
HETATM    2  N   UNL     1      -7.686   2.686 -30.247  1.00  0.00    -0.335 N 
HETATM    3  H   UNL     1      -6.961   1.983 -30.206  1.00  0.00     0.168 HD
HETATM    4  C   UNL     1      -8.963   2.470 -30.672  1.00  0.00     0.125 A 
HETATM    5  C   UNL     1      -9.649   3.681 -30.557  1.00  0.00     0.094 A 
HETATM    6  C   UNL     1      -8.692   4.685 -30.105  1.00  0.00     0.084 A 
ENDROOT
BRANCH   4   7
HETATM    7  N   UNL     1      -9.424   1.243 -31.129  1.00  0.00    -0.318 N 
HETATM    8  H   UNL     1      -9.829   0.622 -30.423  1.00  0.00     0.170 HD
BRANCH   7   9
HETATM    9  C   UNL     1      -9.502   0.775 -32.423  1.00  0.00     0.180 C 
HETATM   10  S   UNL     1     -10.694   1.033 -33.571  1.00  0.00    -0.040 SA
BRANCH   9  11
HETATM   11  N   UNL     1      -8.440  -0.023 -32.818  1.00  0.00    -0.299 N 
HETATM   12  C   UNL     1      -7.125   0.348 -33.068  1.00  0.00     0.259 C 
HETATM   13  O   UNL     1      -6.717   1.502 -33.014  1.00  0.00    -0.267 OA
HETATM   14  H   UNL     1      -8.691  -0.999 -32.921  1.00  0.00     0.171 HD
BRANCH  12  15
HETATM   15  C   UNL     1      -6.226  -0.764 -33.451  1.00  0.00     0.054 A 
HETATM   16  C   UNL     1      -5.057  -1.036 -32.732  1.00  0.00     0.049 A 
HETATM   17 CL   UNL     1      -4.603  -0.160 -31.316  1.00  0.00    -0.083 Cl
HETATM   18  C   UNL     1      -4.232  -2.093 -33.130  1.00  0.00     0.025 A 
HETATM   19  C   UNL     1      -4.569  -2.872 -34.239  1.00  0.00     0.002 A 
HETATM   20  C   UNL     1      -5.730  -2.598 -34.959  1.00  0.00     0.001 A 
HETATM   21  C   UNL     1      -6.559  -1.544 -34.571  1.00  0.00     0.019 A 
ENDBRANCH  12  15
ENDBRANCH   9  11
ENDBRANCH   7   9
ENDBRANCH   4   7
BRANCH   5  22
HETATM   22  C   UNL     1     -11.058   3.875 -30.882  1.00  0.00     0.254 C 
HETATM   23  N   UNL     1     -11.940   3.676 -29.861  1.00  0.00    -0.366 N 
HETATM   24  H   UNL     1     -11.651   3.533 -28.904  1.00  0.00     0.159 HD
HETATM   25  H   UNL     1     -12.921   3.833 -30.044  1.00  0.00     0.159 HD
HETATM   26  O   UNL     1     -11.457   4.224 -31.988  1.00  0.00    -0.268 OA
ENDBRANCH   5  22
BRANCH   1  27
HETATM   27  S   UNL     1      -5.911   4.420 -29.382  1.00  0.00    -0.112 SA
BRANCH  27  28
HETATM   28  C   UNL     1      -4.961   4.169 -30.911  1.00  0.00     0.076 C 
HETATM   29  C   UNL     1      -5.513   5.055 -32.014  1.00  0.00     0.016 C 
ENDBRANCH  27  28
ENDBRANCH   1  27
BRANCH   6  30
HETATM   30  C   UNL     1      -8.860   6.116 -29.829  1.00  0.00     0.253 C 
HETATM   31  N   UNL     1      -9.034   6.501 -28.534  1.00  0.00    -0.366 N 
HETATM   32  H   UNL     1      -9.238   5.842 -27.787  1.00  0.00     0.159 HD
HETATM   33  H   UNL     1      -9.250   7.472 -28.372  1.00  0.00     0.159 HD
HETATM   34  O   UNL     1      -8.871   6.987 -30.695  1.00  0.00    -0.268 OA
ENDBRANCH   6  30
TORSDOF 8
ENDMDL
MODEL 8
REMARK VINA RESULT:      -7.6      4.631      7.011
REMARK  8 active torsions:
REMARK  status: ('A' for Active; 'I' for Inactive)
REMARK    1  A    between atoms: C_2  and  S_3 
REMARK    2  A    between atoms: S_3  and  C_4 
REMARK    3  A    between atoms: C_7  and  N_8 
REMARK    4  A    between atoms: N_8  and  C_9 
REMARK    5  A    between atoms: C_9  and  N_10 
REMARK       I    between atoms: N_10  and  C_11 
REMARK    6  A    between atoms: C_11  and  C_12 
REMARK    7  A    between atoms: C_21  and  C_22 
REMARK       I    between atoms: C_22  and  N_23 
REMARK    8  A    between atoms: C_25  and  C_26 
REMARK       I    between atoms: C_26  and  N_27 
ROOT
HETATM    1  C   UNL     1     -10.862   2.679 -33.226  1.00  0.00     0.088 A 
HETATM    2  N   UNL     1     -10.282   1.862 -32.307  1.00  0.00    -0.335 N 
HETATM    3  H   UNL     1     -10.694   1.004 -31.969  1.00  0.00     0.168 HD
HETATM    4  C   UNL     1      -9.098   2.385 -31.877  1.00  0.00     0.125 A 
HETATM    5  C   UNL     1      -8.877   3.559 -32.599  1.00  0.00     0.094 A 
HETATM    6  C   UNL     1     -10.040   3.773 -33.454  1.00  0.00     0.084 A 
ENDROOT
BRANCH   4   7
HETATM    7  N   UNL     1      -8.314   1.803 -30.890  1.00  0.00    -0.318 N 
HETATM    8  H   UNL     1      -8.803   1.508 -30.041  1.00  0.00     0.170 HD
BRANCH   7   9
HETATM    9  C   UNL     1      -6.976   1.477 -30.929  1.00  0.00     0.180 C 
HETATM   10  S   UNL     1      -5.689   2.195 -30.134  1.00  0.00    -0.040 SA
BRANCH   9  11
HETATM   11  N   UNL     1      -6.662   0.402 -31.746  1.00  0.00    -0.299 N 
HETATM   12  C   UNL     1      -6.303   0.411 -33.087  1.00  0.00     0.259 C 
HETATM   13  O   UNL     1      -6.258   1.422 -33.778  1.00  0.00    -0.267 OA
HETATM   14  H   UNL     1      -6.703  -0.489 -31.265  1.00  0.00     0.171 HD
BRANCH  12  15
HETATM   15  C   UNL     1      -6.004  -0.921 -33.660  1.00  0.00     0.054 A 
HETATM   16  C   UNL     1      -4.691  -1.397 -33.750  1.00  0.00     0.049 A 
HETATM   17 CL   UNL     1      -3.333  -0.519 -33.145  1.00  0.00    -0.083 Cl
HETATM   18  C   UNL     1      -4.450  -2.659 -34.303  1.00  0.00     0.025 A 
HETATM   19  C   UNL     1      -5.512  -3.440 -34.766  1.00  0.00     0.002 A 
HETATM   20  C   UNL     1      -6.819  -2.964 -34.682  1.00  0.00     0.001 A 
HETATM   21  C   UNL     1      -7.069  -1.705 -34.133  1.00  0.00     0.019 A 
ENDBRANCH  12  15
ENDBRANCH   9  11
ENDBRANCH   7   9
ENDBRANCH   4   7
BRANCH   5  22
HETATM   22  C   UNL     1      -7.701   4.412 -32.464  1.00  0.00     0.254 C 
HETATM   23  N   UNL     1      -6.916   4.528 -33.573  1.00  0.00    -0.366 N 
HETATM   24  H   UNL     1      -7.182   4.163 -34.477  1.00  0.00     0.159 HD
HETATM   25  H   UNL     1      -6.110   5.136 -33.523  1.00  0.00     0.159 HD
HETATM   26  O   UNL     1      -7.422   5.026 -31.440  1.00  0.00    -0.268 OA
ENDBRANCH   5  22
BRANCH   1  27
HETATM   27  S   UNL     1     -12.390   2.146 -33.850  1.00  0.00    -0.112 SA
BRANCH  27  28
HETATM   28  C   UNL     1     -12.229   0.349 -33.627  1.00  0.00     0.076 C 
HETATM   29  C   UNL     1     -13.600  -0.303 -33.678  1.00  0.00     0.016 C 
ENDBRANCH  27  28
ENDBRANCH   1  27
BRANCH   6  30
HETATM   30  C   UNL     1     -10.347   4.846 -34.406  1.00  0.00     0.253 C 
HETATM   31  N   UNL     1     -11.516   5.527 -34.246  1.00  0.00    -0.366 N 
HETATM   32  H   UNL     1     -12.257   5.211 -33.626  1.00  0.00     0.159 HD
HETATM   33  H   UNL     1     -11.761   6.190 -34.966  1.00  0.00     0.159 HD
HETATM   34  O   UNL     1      -9.625   5.156 -35.350  1.00  0.00    -0.268 OA
ENDBRANCH   6  30
TORSDOF 8
ENDMDL
MODEL 9
REMARK VINA RESULT:      -7.6      2.843      3.914
REMARK  8 active torsions:
REMARK  status: ('A' for Active; 'I' for Inactive)
REMARK    1  A    between atoms: C_2  and  S_3 
REMARK    2  A    between atoms: S_3  and  C_4 
REMARK    3  A    between atoms: C_7  and  N_8 
REMARK    4  A    between atoms: N_8  and  C_9 
REMARK    5  A    between atoms: C_9  and  N_10 
REMARK       I    between atoms: N_10  and  C_11 
REMARK    6  A    between atoms: C_11  and  C_12 
REMARK    7  A    between atoms: C_21  and  C_22 
REMARK       I    between atoms: C_22  and  N_23 
REMARK    8  A    between atoms: C_25  and  C_26 
REMARK       I    between atoms: C_26  and  N_27 
ROOT
HETATM    1  C   UNL     1      -4.557   4.510 -33.506  1.00  0.00     0.088 A 
HETATM    2  N   UNL     1      -5.853   4.291 -33.849  1.00  0.00    -0.335 N 
HETATM    3  H   UNL     1      -6.215   4.376 -34.789  1.00  0.00     0.168 HD
HETATM    4  C   UNL     1      -6.598   3.986 -32.748  1.00  0.00     0.125 A 
HETATM    5  C   UNL     1      -5.728   3.944 -31.657  1.00  0.00     0.094 A 
HETATM    6  C   UNL     1      -4.403   4.321 -32.140  1.00  0.00     0.084 A 
ENDROOT
BRANCH   4   7
HETATM    7  N   UNL     1      -7.970   3.775 -32.781  1.00  0.00    -0.318 N 
HETATM    8  H   UNL     1      -8.556   4.609 -32.692  1.00  0.00     0.170 HD
BRANCH   7   9
HETATM    9  C   UNL     1      -8.660   2.605 -33.015  1.00  0.00     0.180 C 
HETATM   10  S   UNL     1     -10.308   2.318 -32.942  1.00  0.00    -0.040 SA
BRANCH   9  11
HETATM   11  N   UNL     1      -7.868   1.520 -33.355  1.00  0.00    -0.299 N 
HETATM   12  C   UNL     1      -7.360   0.527 -32.528  1.00  0.00     0.259 C 
HETATM   13  O   UNL     1      -7.515   0.502 -31.312  1.00  0.00    -0.267 OA
HETATM   14  H   UNL     1      -7.659   1.473 -34.345  1.00  0.00     0.171 HD
BRANCH  12  15
HETATM   15  C   UNL     1      -6.564  -0.513 -33.219  1.00  0.00     0.054 A 
HETATM   16  C   UNL     1      -5.165  -0.482 -33.214  1.00  0.00     0.049 A 
HETATM   17 CL   UNL     1      -4.258   0.709 -32.355  1.00  0.00    -0.083 Cl
HETATM   18  C   UNL     1      -4.450  -1.480 -33.884  1.00  0.00     0.025 A 
HETATM   19  C   UNL     1      -5.126  -2.502 -34.556  1.00  0.00     0.002 A 
HETATM   20  C   UNL     1      -6.519  -2.529 -34.567  1.00  0.00     0.001 A 
HETATM   21  C   UNL     1      -7.241  -1.536 -33.903  1.00  0.00     0.019 A 
ENDBRANCH  12  15
ENDBRANCH   9  11
ENDBRANCH   7   9
ENDBRANCH   4   7
BRANCH   5  22
HETATM   22  C   UNL     1      -6.119   3.621 -30.290  1.00  0.00     0.254 C 
HETATM   23  N   UNL     1      -5.713   2.406 -29.823  1.00  0.00    -0.366 N 
HETATM   24  H   UNL     1      -5.071   1.809 -30.326  1.00  0.00     0.159 HD
HETATM   25  H   UNL     1      -5.941   2.163 -28.869  1.00  0.00     0.159 HD
HETATM   26  O   UNL     1      -6.749   4.385 -29.566  1.00  0.00    -0.268 OA
ENDBRANCH   5  22
BRANCH   1  27
HETATM   27  S   UNL     1      -3.493   4.927 -34.810  1.00  0.00    -0.112 SA
BRANCH  27  28
HETATM   28  C   UNL     1      -2.706   6.419 -34.132  1.00  0.00     0.076 C 
HETATM   29  C   UNL     1      -1.196   6.257 -34.141  1.00  0.00     0.016 C 
ENDBRANCH  27  28
ENDBRANCH   1  27
BRANCH   6  30
HETATM   30  C   UNL     1      -3.125   4.454 -31.432  1.00  0.00     0.253 C 
HETATM   31  N   UNL     1      -2.978   5.499 -30.571  1.00  0.00    -0.366 N 
HETATM   32  H   UNL     1      -3.627   6.280 -30.538  1.00  0.00     0.159 HD
HETATM   33  H   UNL     1      -2.062   5.635 -30.171  1.00  0.00     0.159 HD
HETATM   34  O   UNL     1      -2.173   3.692 -31.581  1.00  0.00    -0.268 OA
ENDBRANCH   6  30
TORSDOF 8
ENDMDL
MODEL 10
REMARK VINA RESULT:      -7.5      3.012      4.591
REMARK  8 active torsions:
REMARK  status: ('A' for Active; 'I' for Inactive)
REMARK    1  A    between atoms: C_2  and  S_3 
REMARK    2  A    between atoms: S_3  and  C_4 
REMARK    3  A    between atoms: C_7  and  N_8 
REMARK    4  A    between atoms: N_8  and  C_9 
REMARK    5  A    between atoms: C_9  and  N_10 
REMARK       I    between atoms: N_10  and  C_11 
REMARK    6  A    between atoms: C_11  and  C_12 
REMARK    7  A    between atoms: C_21  and  C_22 
REMARK       I    between atoms: C_22  and  N_23 
REMARK    8  A    between atoms: C_25  and  C_26 
REMARK       I    between atoms: C_26  and  N_27 
ROOT
HETATM    1  C   UNL     1      -1.872   6.985 -29.563  1.00  0.00     0.088 A 
HETATM    2  N   UNL     1      -2.066   6.590 -30.849  1.00  0.00    -0.335 N 
HETATM    3  H   UNL     1      -2.833   6.900 -31.430  1.00  0.00     0.168 HD
HETATM    4  C   UNL     1      -1.113   5.690 -31.224  1.00  0.00     0.125 A 
HETATM    5  C   UNL     1      -0.230   5.549 -30.152  1.00  0.00     0.094 A 
HETATM    6  C   UNL     1      -0.741   6.365 -29.055  1.00  0.00     0.084 A 
ENDROOT
BRANCH   4   7
HETATM    7  N   UNL     1      -1.093   5.062 -32.463  1.00  0.00    -0.318 N 
HETATM    8  H   UNL     1      -0.183   4.719 -32.780  1.00  0.00     0.170 HD
BRANCH   7   9
HETATM    9  C   UNL     1      -2.149   4.748 -33.290  1.00  0.00     0.180 C 
HETATM   10  S   UNL     1      -2.825   5.647 -34.531  1.00  0.00    -0.040 SA
BRANCH   9  11
HETATM   11  N   UNL     1      -2.728   3.511 -33.052  1.00  0.00    -0.299 N 
HETATM   12  C   UNL     1      -3.547   3.127 -31.997  1.00  0.00     0.259 C 
HETATM   13  O   UNL     1      -3.846   3.859 -31.061  1.00  0.00    -0.267 OA
HETATM   14  H   UNL     1      -2.509   2.824 -33.764  1.00  0.00     0.171 HD
BRANCH  12  15
HETATM   15  C   UNL     1      -4.021   1.726 -32.055  1.00  0.00     0.054 A 
HETATM   16  C   UNL     1      -5.179   1.379 -32.760  1.00  0.00     0.049 A 
HETATM   17 CL   UNL     1      -6.101   2.520 -33.669  1.00  0.00    -0.083 Cl
HETATM   18  C   UNL     1      -5.597   0.044 -32.786  1.00  0.00     0.025 A 
HETATM   19  C   UNL     1      -4.866  -0.937 -32.111  1.00  0.00     0.002 A 
HETATM   20  C   UNL     1      -3.716  -0.590 -31.405  1.00  0.00     0.001 A 
HETATM   21  C   UNL     1      -3.293   0.740 -31.372  1.00  0.00     0.019 A 
ENDBRANCH  12  15
ENDBRANCH   9  11
ENDBRANCH   7   9
ENDBRANCH   4   7
BRANCH   5  22
HETATM   22  C   UNL     1       0.955   4.698 -30.154  1.00  0.00     0.254 C 
HETATM   23  N   UNL     1       1.241   4.070 -28.977  1.00  0.00    -0.366 N 
HETATM   24  H   UNL     1       0.615   4.074 -28.184  1.00  0.00     0.159 HD
HETATM   25  H   UNL     1       2.037   3.448 -28.952  1.00  0.00     0.159 HD
HETATM   26  O   UNL     1       1.656   4.513 -31.142  1.00  0.00    -0.268 OA
ENDBRANCH   5  22
BRANCH   1  27
HETATM   27  S   UNL     1      -3.026   8.122 -28.943  1.00  0.00    -0.112 SA
BRANCH  27  28
HETATM   28  C   UNL     1      -4.000   7.044 -27.851  1.00  0.00     0.076 C 
HETATM   29  C   UNL     1      -5.065   6.319 -28.655  1.00  0.00     0.016 C 
ENDBRANCH  27  28
ENDBRANCH   1  27
BRANCH   6  30
HETATM   30  C   UNL     1      -0.225   6.581 -27.699  1.00  0.00     0.253 C 
HETATM   31  N   UNL     1      -0.706   5.792 -26.699  1.00  0.00    -0.366 N 
HETATM   32  H   UNL     1      -1.524   5.200 -26.810  1.00  0.00     0.159 HD
HETATM   33  H   UNL     1      -0.419   6.020 -25.759  1.00  0.00     0.159 HD
HETATM   34  O   UNL     1       0.600   7.443 -27.406  1.00  0.00    -0.268 OA
ENDBRANCH   6  30
TORSDOF 8
ENDMDL
