MODEL 1
REMARK VINA RESULT:      -9.2      0.000      0.000
REMARK  3 active torsions:
REMARK  status: ('A' for Active; 'I' for Inactive)
REMARK    1  A    between atoms: C_5  and  C_6 
REMARK    2  A    between atoms: C_10  and  N_11 
REMARK    3  A    between atoms: C_18  and  C_19 
ROOT
HETATM    1  C   UNL     1      -4.652  -0.609 -33.722  1.00  0.00     0.106 A 
HETATM    2  C   UNL     1      -4.419  -2.124 -33.701  1.00  0.00     0.081 A 
HETATM    3  C   UNL     1      -4.961  -2.867 -34.789  1.00  0.00     0.100 C 
HETATM    4  N   UNL     1      -5.400  -3.473 -35.677  1.00  0.00    -0.191 NA
HETATM    5  C   UNL     1      -3.694  -2.748 -32.732  1.00  0.00     0.140 A 
HETATM    6  O   UNL     1      -3.103  -2.038 -31.673  1.00  0.00    -0.279 OA
HETATM    7  C   UNL     1      -3.214  -0.716 -31.715  1.00  0.00     0.175 A 
HETATM    8  C   UNL     1      -3.897   0.054 -32.621  1.00  0.00     0.040 A 
HETATM    9  N   UNL     1      -2.640   0.129 -30.828  1.00  0.00    -0.256 N 
HETATM   10  H   UNL     1      -2.063  -0.097 -30.026  1.00  0.00     0.191 HD
HETATM   11  N   UNL     1      -2.894   1.420 -31.101  1.00  0.00    -0.172 NA
HETATM   12  C   UNL     1      -3.647   1.399 -32.222  1.00  0.00     0.099 A 
ENDROOT
BRANCH   1  13
HETATM   13  C   UNL     1      -6.125  -0.258 -33.543  1.00  0.00    -0.044 A 
HETATM   14  C   UNL     1      -6.773  -0.306 -32.296  1.00  0.00     0.009 A 
HETATM   15  C   UNL     1      -8.142  -0.049 -32.189  1.00  0.00     0.007 A 
HETATM   16  C   UNL     1      -8.901   0.253 -33.324  1.00  0.00    -0.062 A 
HETATM   17  C   UNL     1     -10.381   0.469 -33.210  1.00  0.00     0.048 C 
HETATM   18  C   UNL     1      -8.271   0.281 -34.571  1.00  0.00     0.007 A 
HETATM   19  C   UNL     1      -6.899   0.034 -34.680  1.00  0.00     0.009 A 
ENDBRANCH   1  13
BRANCH   5  20
HETATM   20  N   UNL     1      -3.451  -4.102 -32.664  1.00  0.00    -0.282 NA
HETATM   21  H   UNL     1      -4.123  -4.692 -33.147  1.00  0.00     0.126 HD
HETATM   22  H   UNL     1      -3.264  -4.410 -31.712  1.00  0.00     0.126 HD
ENDBRANCH   5  20
BRANCH  12  23
HETATM   23  C   UNL     1      -4.088   2.654 -32.835  1.00  0.00    -0.005 A 
HETATM   24  C   UNL     1      -5.436   2.889 -33.136  1.00  0.00     0.014 A 
HETATM   25  C   UNL     1      -5.831   4.088 -33.735  1.00  0.00     0.001 A 
HETATM   26  C   UNL     1      -4.883   5.061 -34.049  1.00  0.00     0.000 A 
HETATM   27  C   UNL     1      -3.539   4.834 -33.767  1.00  0.00     0.001 A 
HETATM   28  C   UNL     1      -3.144   3.637 -33.165  1.00  0.00     0.014 A 
ENDBRANCH  12  23
TORSDOF 3
ENDMDL
MODEL 2
REMARK VINA RESULT:      -8.7      4.387      6.339
REMARK  3 active torsions:
REMARK  status: ('A' for Active; 'I' for Inactive)
REMARK    1  A    between atoms: C_5  and  C_6 
REMARK    2  A    between atoms: C_10  and  N_11 
REMARK    3  A    between atoms: C_18  and  C_19 
ROOT
HETATM    1  C   UNL     1     -10.019   1.835 -33.260  1.00  0.00     0.106 A 
HETATM    2  C   UNL     1     -11.324   1.511 -33.997  1.00  0.00     0.081 A 
HETATM    3  C   UNL     1     -12.007   0.328 -33.593  1.00  0.00     0.100 C 
HETATM    4  N   UNL     1     -12.566  -0.634 -33.262  1.00  0.00    -0.191 NA
HETATM    5  C   UNL     1     -11.851   2.318 -34.959  1.00  0.00     0.140 A 
HETATM    6  O   UNL     1     -11.229   3.518 -35.345  1.00  0.00    -0.279 OA
HETATM    7  C   UNL     1     -10.146   3.867 -34.662  1.00  0.00     0.175 A 
HETATM    8  C   UNL     1      -9.503   3.172 -33.668  1.00  0.00     0.040 A 
HETATM    9  N   UNL     1      -9.468   5.024 -34.839  1.00  0.00    -0.256 N 
HETATM   10  H   UNL     1      -9.664   5.774 -35.492  1.00  0.00     0.191 HD
HETATM   11  N   UNL     1      -8.416   5.142 -34.011  1.00  0.00    -0.172 NA
HETATM   12  C   UNL     1      -8.434   4.021 -33.259  1.00  0.00     0.099 A 
ENDROOT
BRANCH   1  13
HETATM   13  C   UNL     1      -8.929   0.813 -33.558  1.00  0.00    -0.044 A 
HETATM   14  C   UNL     1      -8.211   0.148 -32.548  1.00  0.00     0.009 A 
HETATM   15  C   UNL     1      -7.168  -0.725 -32.864  1.00  0.00     0.007 A 
HETATM   16  C   UNL     1      -6.808  -0.951 -34.196  1.00  0.00    -0.062 A 
HETATM   17  C   UNL     1      -5.649  -1.845 -34.527  1.00  0.00     0.048 C 
HETATM   18  C   UNL     1      -7.500  -0.280 -35.207  1.00  0.00     0.007 A 
HETATM   19  C   UNL     1      -8.551   0.588 -34.894  1.00  0.00     0.009 A 
ENDBRANCH   1  13
BRANCH   5  20
HETATM   20  N   UNL     1     -13.017   2.079 -35.651  1.00  0.00    -0.282 NA
HETATM   21  H   UNL     1     -12.957   1.372 -36.380  1.00  0.00     0.126 HD
HETATM   22  H   UNL     1     -13.457   2.940 -35.968  1.00  0.00     0.126 HD
ENDBRANCH   5  20
BRANCH  12  23
HETATM   23  C   UNL     1      -7.433   3.824 -32.209  1.00  0.00    -0.005 A 
HETATM   24  C   UNL     1      -6.197   3.225 -32.478  1.00  0.00     0.014 A 
HETATM   25  C   UNL     1      -5.262   3.033 -31.457  1.00  0.00     0.001 A 
HETATM   26  C   UNL     1      -5.558   3.429 -30.153  1.00  0.00     0.000 A 
HETATM   27  C   UNL     1      -6.789   4.015 -29.869  1.00  0.00     0.001 A 
HETATM   28  C   UNL     1      -7.721   4.209 -30.891  1.00  0.00     0.014 A 
ENDBRANCH  12  23
TORSDOF 3
ENDMDL
MODEL 3
REMARK VINA RESULT:      -8.5      4.817      7.437
REMARK  3 active torsions:
REMARK  status: ('A' for Active; 'I' for Inactive)
REMARK    1  A    between atoms: C_5  and  C_6 
REMARK    2  A    between atoms: C_10  and  N_11 
REMARK    3  A    between atoms: C_18  and  C_19 
ROOT
HETATM    1  C   UNL     1      -9.557   2.871 -33.987  1.00  0.00     0.106 A 
HETATM    2  C   UNL     1     -10.656   3.756 -34.587  1.00  0.00     0.081 A 
HETATM    3  C   UNL     1     -10.235   4.983 -35.178  1.00  0.00     0.100 C 
HETATM    4  N   UNL     1      -9.892   5.980 -35.662  1.00  0.00    -0.191 NA
HETATM    5  C   UNL     1     -11.968   3.393 -34.610  1.00  0.00     0.140 A 
HETATM    6  O   UNL     1     -12.409   2.167 -34.083  1.00  0.00    -0.279 OA
HETATM    7  C   UNL     1     -11.468   1.344 -33.638  1.00  0.00     0.175 A 
HETATM    8  C   UNL     1     -10.115   1.559 -33.556  1.00  0.00     0.040 A 
HETATM    9  N   UNL     1     -11.700   0.095 -33.173  1.00  0.00    -0.256 N 
HETATM   10  H   UNL     1     -12.586  -0.391 -33.090  1.00  0.00     0.191 HD
HETATM   11  N   UNL     1     -10.576  -0.537 -32.797  1.00  0.00    -0.172 NA
HETATM   12  C   UNL     1      -9.580   0.339 -33.050  1.00  0.00     0.099 A 
ENDROOT
BRANCH   1  13
HETATM   13  C   UNL     1      -8.909   3.517 -32.768  1.00  0.00    -0.044 A 
HETATM   14  C   UNL     1      -7.535   3.811 -32.701  1.00  0.00     0.009 A 
HETATM   15  C   UNL     1      -6.969   4.333 -31.536  1.00  0.00     0.007 A 
HETATM   16  C   UNL     1      -7.757   4.567 -30.405  1.00  0.00    -0.062 A 
HETATM   17  C   UNL     1      -7.132   5.073 -29.138  1.00  0.00     0.048 C 
HETATM   18  C   UNL     1      -9.119   4.258 -30.453  1.00  0.00     0.007 A 
HETATM   19  C   UNL     1      -9.690   3.744 -31.621  1.00  0.00     0.009 A 
ENDBRANCH   1  13
BRANCH   5  20
HETATM   20  N   UNL     1     -12.995   4.144 -35.136  1.00  0.00    -0.282 NA
HETATM   21  H   UNL     1     -13.628   4.557 -34.456  1.00  0.00     0.126 HD
HETATM   22  H   UNL     1     -13.480   3.657 -35.886  1.00  0.00     0.126 HD
ENDBRANCH   5  20
BRANCH  12  23
HETATM   23  C   UNL     1      -8.188  -0.034 -32.788  1.00  0.00    -0.005 A 
HETATM   24  C   UNL     1      -7.437  -0.760 -33.720  1.00  0.00     0.014 A 
HETATM   25  C   UNL     1      -6.114  -1.118 -33.442  1.00  0.00     0.001 A 
HETATM   26  C   UNL     1      -5.533  -0.763 -32.226  1.00  0.00     0.000 A 
HETATM   27  C   UNL     1      -6.274  -0.052 -31.285  1.00  0.00     0.001 A 
HETATM   28  C   UNL     1      -7.594   0.308 -31.564  1.00  0.00     0.014 A 
ENDBRANCH  12  23
TORSDOF 3
ENDMDL
MODEL 4
REMARK VINA RESULT:      -8.4      3.618      6.256
REMARK  3 active torsions:
REMARK  status: ('A' for Active; 'I' for Inactive)
REMARK    1  A    between atoms: C_5  and  C_6 
REMARK    2  A    between atoms: C_10  and  N_11 
REMARK    3  A    between atoms: C_18  and  C_19 
ROOT
HETATM    1  C   UNL     1      -6.765   3.641 -33.256  1.00  0.00     0.106 A 
HETATM    2  C   UNL     1      -5.532   4.547 -33.164  1.00  0.00     0.081 A 
HETATM    3  C   UNL     1      -4.841   4.809 -34.383  1.00  0.00     0.100 C 
HETATM    4  N   UNL     1      -4.280   5.025 -35.377  1.00  0.00    -0.191 NA
HETATM    5  C   UNL     1      -5.122   5.125 -32.002  1.00  0.00     0.140 A 
HETATM    6  O   UNL     1      -5.811   4.929 -30.792  1.00  0.00    -0.279 OA
HETATM    7  C   UNL     1      -6.931   4.221 -30.860  1.00  0.00     0.175 A 
HETATM    8  C   UNL     1      -7.476   3.588 -31.948  1.00  0.00     0.040 A 
HETATM    9  N   UNL     1      -7.763   4.002 -29.815  1.00  0.00    -0.256 N 
HETATM   10  H   UNL     1      -7.669   4.323 -28.858  1.00  0.00     0.191 HD
HETATM   11  N   UNL     1      -8.837   3.267 -30.151  1.00  0.00    -0.172 NA
HETATM   12  C   UNL     1      -8.695   3.022 -31.471  1.00  0.00     0.099 A 
ENDROOT
BRANCH   1  13
HETATM   13  C   UNL     1      -6.394   2.212 -33.634  1.00  0.00    -0.044 A 
HETATM   14  C   UNL     1      -7.006   1.522 -34.696  1.00  0.00     0.009 A 
HETATM   15  C   UNL     1      -6.690   0.187 -34.961  1.00  0.00     0.007 A 
HETATM   16  C   UNL     1      -5.761  -0.495 -34.169  1.00  0.00    -0.062 A 
HETATM   17  C   UNL     1      -5.470  -1.945 -34.422  1.00  0.00     0.048 C 
HETATM   18  C   UNL     1      -5.164   0.175 -33.098  1.00  0.00     0.007 A 
HETATM   19  C   UNL     1      -5.471   1.513 -32.836  1.00  0.00     0.009 A 
ENDBRANCH   1  13
BRANCH   5  20
HETATM   20  N   UNL     1      -4.027   5.947 -31.861  1.00  0.00    -0.282 NA
HETATM   21  H   UNL     1      -3.238   5.543 -31.362  1.00  0.00     0.126 HD
HETATM   22  H   UNL     1      -4.283   6.870 -31.518  1.00  0.00     0.126 HD
ENDBRANCH   5  20
BRANCH  12  23
HETATM   23  C   UNL     1      -9.717   2.261 -32.192  1.00  0.00    -0.005 A 
HETATM   24  C   UNL     1      -9.614   0.876 -32.364  1.00  0.00     0.014 A 
HETATM   25  C   UNL     1     -10.595   0.172 -33.070  1.00  0.00     0.001 A 
HETATM   26  C   UNL     1     -11.684   0.848 -33.618  1.00  0.00     0.000 A 
HETATM   27  C   UNL     1     -11.791   2.228 -33.465  1.00  0.00     0.001 A 
HETATM   28  C   UNL     1     -10.813   2.930 -32.758  1.00  0.00     0.014 A 
ENDBRANCH  12  23
TORSDOF 3
ENDMDL
MODEL 5
REMARK VINA RESULT:      -8.1      3.478      6.054
REMARK  3 active torsions:
REMARK  status: ('A' for Active; 'I' for Inactive)
REMARK    1  A    between atoms: C_5  and  C_6 
REMARK    2  A    between atoms: C_10  and  N_11 
REMARK    3  A    between atoms: C_18  and  C_19 
ROOT
HETATM    1  C   UNL     1      -5.059   3.353 -32.257  1.00  0.00     0.106 A 
HETATM    2  C   UNL     1      -3.882   4.285 -31.947  1.00  0.00     0.081 A 
HETATM    3  C   UNL     1      -2.875   4.394 -32.950  1.00  0.00     0.100 C 
HETATM    4  N   UNL     1      -2.056   4.485 -33.768  1.00  0.00    -0.191 NA
HETATM    5  C   UNL     1      -3.800   5.020 -30.804  1.00  0.00     0.140 A 
HETATM    6  O   UNL     1      -4.801   4.975 -29.819  1.00  0.00    -0.279 OA
HETATM    7  C   UNL     1      -5.873   4.245 -30.100  1.00  0.00     0.175 A 
HETATM    8  C   UNL     1      -6.107   3.462 -31.202  1.00  0.00     0.040 A 
HETATM    9  N   UNL     1      -6.966   4.152 -29.308  1.00  0.00    -0.256 N 
HETATM   10  H   UNL     1      -7.135   4.600 -28.415  1.00  0.00     0.191 HD
HETATM   11  N   UNL     1      -7.919   3.360 -29.828  1.00  0.00    -0.172 NA
HETATM   12  C   UNL     1      -7.420   2.943 -31.012  1.00  0.00     0.099 A 
ENDROOT
BRANCH   1  13
HETATM   13  C   UNL     1      -4.626   1.893 -32.323  1.00  0.00    -0.044 A 
HETATM   14  C   UNL     1      -5.165   0.980 -33.247  1.00  0.00     0.009 A 
HETATM   15  C   UNL     1      -4.795  -0.367 -33.225  1.00  0.00     0.007 A 
HETATM   16  C   UNL     1      -3.885  -0.839 -32.273  1.00  0.00    -0.062 A 
HETATM   17  C   UNL     1      -3.538  -2.298 -32.216  1.00  0.00     0.048 C 
HETATM   18  C   UNL     1      -3.361   0.055 -31.336  1.00  0.00     0.007 A 
HETATM   19  C   UNL     1      -3.722   1.405 -31.363  1.00  0.00     0.009 A 
ENDBRANCH   1  13
BRANCH   5  20
HETATM   20  N   UNL     1      -2.770   5.873 -30.476  1.00  0.00    -0.282 NA
HETATM   21  H   UNL     1      -2.507   6.539 -31.198  1.00  0.00     0.126 HD
HETATM   22  H   UNL     1      -1.974   5.378 -30.082  1.00  0.00     0.126 HD
ENDBRANCH   5  20
BRANCH  12  23
HETATM   23  C   UNL     1      -8.218   2.075 -31.881  1.00  0.00    -0.005 A 
HETATM   24  C   UNL     1      -8.622   0.799 -31.469  1.00  0.00     0.014 A 
HETATM   25  C   UNL     1      -9.370  -0.019 -32.321  1.00  0.00     0.001 A 
HETATM   26  C   UNL     1      -9.713   0.426 -33.597  1.00  0.00     0.000 A 
HETATM   27  C   UNL     1      -9.305   1.688 -34.023  1.00  0.00     0.001 A 
HETATM   28  C   UNL     1      -8.561   2.506 -33.171  1.00  0.00     0.014 A 
ENDBRANCH  12  23
TORSDOF 3
ENDMDL
MODEL 6
REMARK VINA RESULT:      -7.5      3.776      5.871
REMARK  3 active torsions:
REMARK  status: ('A' for Active; 'I' for Inactive)
REMARK    1  A    between atoms: C_5  and  C_6 
REMARK    2  A    between atoms: C_10  and  N_11 
REMARK    3  A    between atoms: C_18  and  C_19 
ROOT
HETATM    1  C   UNL     1      -4.558   2.475 -30.540  1.00  0.00     0.106 A 
HETATM    2  C   UNL     1      -4.688   1.034 -31.046  1.00  0.00     0.081 A 
HETATM    3  C   UNL     1      -3.473   0.321 -31.258  1.00  0.00     0.100 C 
HETATM    4  N   UNL     1      -2.483  -0.262 -31.428  1.00  0.00    -0.191 NA
HETATM    5  C   UNL     1      -5.889   0.425 -31.247  1.00  0.00     0.140 A 
HETATM    6  O   UNL     1      -7.106   1.083 -30.998  1.00  0.00    -0.279 OA
HETATM    7  C   UNL     1      -7.023   2.300 -30.475  1.00  0.00     0.175 A 
HETATM    8  C   UNL     1      -5.898   3.038 -30.209  1.00  0.00     0.040 A 
HETATM    9  N   UNL     1      -8.086   3.045 -30.097  1.00  0.00    -0.256 N 
HETATM   10  H   UNL     1      -9.070   2.810 -30.150  1.00  0.00     0.191 HD
HETATM   11  N   UNL     1      -7.730   4.235 -29.583  1.00  0.00    -0.172 NA
HETATM   12  C   UNL     1      -6.380   4.242 -29.618  1.00  0.00     0.099 A 
ENDROOT
BRANCH   1  13
HETATM   13  C   UNL     1      -3.921   3.388 -31.581  1.00  0.00    -0.044 A 
HETATM   14  C   UNL     1      -4.568   3.747 -32.777  1.00  0.00     0.009 A 
HETATM   15  C   UNL     1      -3.919   4.525 -33.738  1.00  0.00     0.007 A 
HETATM   16  C   UNL     1      -2.605   4.957 -33.535  1.00  0.00    -0.062 A 
HETATM   17  C   UNL     1      -1.893   5.743 -34.597  1.00  0.00     0.048 C 
HETATM   18  C   UNL     1      -1.945   4.588 -32.360  1.00  0.00     0.007 A 
HETATM   19  C   UNL     1      -2.596   3.817 -31.392  1.00  0.00     0.009 A 
ENDBRANCH   1  13
BRANCH   5  20
HETATM   20  N   UNL     1      -6.066  -0.865 -31.696  1.00  0.00    -0.282 NA
HETATM   21  H   UNL     1      -6.276  -1.554 -30.978  1.00  0.00     0.126 HD
HETATM   22  H   UNL     1      -5.318  -1.158 -32.321  1.00  0.00     0.126 HD
ENDBRANCH   5  20
BRANCH  12  23
HETATM   23  C   UNL     1      -5.637   5.391 -29.096  1.00  0.00    -0.005 A 
HETATM   24  C   UNL     1      -4.976   6.284 -29.949  1.00  0.00     0.014 A 
HETATM   25  C   UNL     1      -4.260   7.365 -29.428  1.00  0.00     0.001 A 
HETATM   26  C   UNL     1      -4.189   7.560 -28.049  1.00  0.00     0.000 A 
HETATM   27  C   UNL     1      -4.831   6.672 -27.190  1.00  0.00     0.001 A 
HETATM   28  C   UNL     1      -5.549   5.593 -27.711  1.00  0.00     0.014 A 
ENDBRANCH  12  23
TORSDOF 3
ENDMDL
MODEL 7
REMARK VINA RESULT:      -7.2      3.963      6.149
REMARK  3 active torsions:
REMARK  status: ('A' for Active; 'I' for Inactive)
REMARK    1  A    between atoms: C_5  and  C_6 
REMARK    2  A    between atoms: C_10  and  N_11 
REMARK    3  A    between atoms: C_18  and  C_19 
ROOT
HETATM    1  C   UNL     1      -6.418   2.780 -32.532  1.00  0.00     0.106 A 
HETATM    2  C   UNL     1      -6.893   1.703 -33.514  1.00  0.00     0.081 A 
HETATM    3  C   UNL     1      -6.009   0.606 -33.733  1.00  0.00     0.100 C 
HETATM    4  N   UNL     1      -5.291  -0.289 -33.909  1.00  0.00    -0.191 NA
HETATM    5  C   UNL     1      -8.109   1.742 -34.125  1.00  0.00     0.140 A 
HETATM    6  O   UNL     1      -9.024   2.782 -33.892  1.00  0.00    -0.279 OA
HETATM    7  C   UNL     1      -8.676   3.681 -32.979  1.00  0.00     0.175 A 
HETATM    8  C   UNL     1      -7.500   3.773 -32.277  1.00  0.00     0.040 A 
HETATM    9  N   UNL     1      -9.464   4.701 -32.568  1.00  0.00    -0.256 N 
HETATM   10  H   UNL     1     -10.400   4.936 -32.876  1.00  0.00     0.191 HD
HETATM   11  N   UNL     1      -8.882   5.459 -31.624  1.00  0.00    -0.172 NA
HETATM   12  C   UNL     1      -7.678   4.888 -31.408  1.00  0.00     0.099 A 
ENDROOT
BRANCH   1  13
HETATM   13  C   UNL     1      -5.212   3.544 -33.064  1.00  0.00    -0.044 A 
HETATM   14  C   UNL     1      -5.280   4.389 -34.186  1.00  0.00     0.009 A 
HETATM   15  C   UNL     1      -4.134   5.012 -34.687  1.00  0.00     0.007 A 
HETATM   16  C   UNL     1      -2.890   4.801 -34.086  1.00  0.00    -0.062 A 
HETATM   17  C   UNL     1      -1.654   5.425 -34.664  1.00  0.00     0.048 C 
HETATM   18  C   UNL     1      -2.806   3.945 -32.984  1.00  0.00     0.007 A 
HETATM   19  C   UNL     1      -3.953   3.328 -32.476  1.00  0.00     0.009 A 
ENDBRANCH   1  13
BRANCH   5  20
HETATM   20  N   UNL     1      -8.587   0.804 -35.012  1.00  0.00    -0.282 NA
HETATM   21  H   UNL     1      -9.593   0.654 -34.990  1.00  0.00     0.126 HD
HETATM   22  H   UNL     1      -8.056  -0.063 -34.976  1.00  0.00     0.126 HD
ENDBRANCH   5  20
BRANCH  12  23
HETATM   23  C   UNL     1      -6.771   5.442 -30.400  1.00  0.00    -0.005 A 
HETATM   24  C   UNL     1      -5.671   6.231 -30.759  1.00  0.00     0.014 A 
HETATM   25  C   UNL     1      -4.810   6.736 -29.780  1.00  0.00     0.001 A 
HETATM   26  C   UNL     1      -5.034   6.449 -28.434  1.00  0.00     0.000 A 
HETATM   27  C   UNL     1      -6.117   5.655 -28.066  1.00  0.00     0.001 A 
HETATM   28  C   UNL     1      -6.979   5.152 -29.043  1.00  0.00     0.014 A 
ENDBRANCH  12  23
TORSDOF 3
ENDMDL
MODEL 8
REMARK VINA RESULT:      -7.2      4.251      7.389
REMARK  3 active torsions:
REMARK  status: ('A' for Active; 'I' for Inactive)
REMARK    1  A    between atoms: C_5  and  C_6 
REMARK    2  A    between atoms: C_10  and  N_11 
REMARK    3  A    between atoms: C_18  and  C_19 
ROOT
HETATM    1  C   UNL     1      -3.806   5.316 -31.344  1.00  0.00     0.106 A 
HETATM    2  C   UNL     1      -2.836   6.493 -31.497  1.00  0.00     0.081 A 
HETATM    3  C   UNL     1      -2.149   6.910 -30.320  1.00  0.00     0.100 C 
HETATM    4  N   UNL     1      -1.586   7.248 -29.363  1.00  0.00    -0.191 NA
HETATM    5  C   UNL     1      -2.588   7.097 -32.692  1.00  0.00     0.140 A 
HETATM    6  O   UNL     1      -3.211   6.677 -33.879  1.00  0.00    -0.279 OA
HETATM    7  C   UNL     1      -3.987   5.604 -33.791  1.00  0.00     0.175 A 
HETATM    8  C   UNL     1      -4.325   4.886 -32.673  1.00  0.00     0.040 A 
HETATM    9  N   UNL     1      -4.598   5.012 -34.844  1.00  0.00    -0.256 N 
HETATM   10  H   UNL     1      -4.567   5.279 -35.820  1.00  0.00     0.191 HD
HETATM   11  N   UNL     1      -5.315   3.933 -34.488  1.00  0.00    -0.172 NA
HETATM   12  C   UNL     1      -5.139   3.819 -33.154  1.00  0.00     0.099 A 
ENDROOT
BRANCH   1  13
HETATM   13  C   UNL     1      -5.007   5.677 -30.478  1.00  0.00    -0.044 A 
HETATM   14  C   UNL     1      -5.417   4.899 -29.381  1.00  0.00     0.009 A 
HETATM   15  C   UNL     1      -6.569   5.225 -28.660  1.00  0.00     0.007 A 
HETATM   16  C   UNL     1      -7.345   6.331 -29.021  1.00  0.00    -0.062 A 
HETATM   17  C   UNL     1      -8.612   6.641 -28.279  1.00  0.00     0.048 C 
HETATM   18  C   UNL     1      -6.958   7.098 -30.122  1.00  0.00     0.007 A 
HETATM   19  C   UNL     1      -5.801   6.780 -30.839  1.00  0.00     0.009 A 
ENDBRANCH   1  13
BRANCH   5  20
HETATM   20  N   UNL     1      -1.728   8.154 -32.889  1.00  0.00    -0.282 NA
HETATM   21  H   UNL     1      -2.108   9.074 -32.676  1.00  0.00     0.126 HD
HETATM   22  H   UNL     1      -1.274   8.114 -33.798  1.00  0.00     0.126 HD
ENDBRANCH   5  20
BRANCH  12  23
HETATM   23  C   UNL     1      -5.760   2.713 -32.421  1.00  0.00    -0.005 A 
HETATM   24  C   UNL     1      -7.059   2.814 -31.907  1.00  0.00     0.014 A 
HETATM   25  C   UNL     1      -7.626   1.751 -31.198  1.00  0.00     0.001 A 
HETATM   26  C   UNL     1      -6.897   0.581 -30.987  1.00  0.00     0.000 A 
HETATM   27  C   UNL     1      -5.600   0.474 -31.482  1.00  0.00     0.001 A 
HETATM   28  C   UNL     1      -5.035   1.535 -32.194  1.00  0.00     0.014 A 
ENDBRANCH  12  23
TORSDOF 3
ENDMDL
MODEL 9
REMARK VINA RESULT:      -7.1      4.264      7.100
REMARK  3 active torsions:
REMARK  status: ('A' for Active; 'I' for Inactive)
REMARK    1  A    between atoms: C_5  and  C_6 
REMARK    2  A    between atoms: C_10  and  N_11 
REMARK    3  A    between atoms: C_18  and  C_19 
ROOT
HETATM    1  C   UNL     1      -8.097   4.008 -32.484  1.00  0.00     0.106 A 
HETATM    2  C   UNL     1      -7.001   4.537 -31.552  1.00  0.00     0.081 A 
HETATM    3  C   UNL     1      -5.714   4.737 -32.131  1.00  0.00     0.100 C 
HETATM    4  N   UNL     1      -4.666   4.903 -32.603  1.00  0.00    -0.191 NA
HETATM    5  C   UNL     1      -7.227   4.855 -30.248  1.00  0.00     0.140 A 
HETATM    6  O   UNL     1      -8.497   4.719 -29.661  1.00  0.00    -0.279 OA
HETATM    7  C   UNL     1      -9.483   4.347 -30.466  1.00  0.00     0.175 A 
HETATM    8  C   UNL     1      -9.417   4.004 -31.793  1.00  0.00     0.040 A 
HETATM    9  N   UNL     1     -10.780   4.244 -30.094  1.00  0.00    -0.256 N 
HETATM   10  H   UNL     1     -11.189   4.422 -29.184  1.00  0.00     0.191 HD
HETATM   11  N   UNL     1     -11.582   3.863 -31.102  1.00  0.00    -0.172 NA
HETATM   12  C   UNL     1     -10.765   3.734 -32.170  1.00  0.00     0.099 A 
ENDROOT
BRANCH   1  13
HETATM   13  C   UNL     1      -7.815   2.582 -32.941  1.00  0.00    -0.044 A 
HETATM   14  C   UNL     1      -7.818   2.201 -34.295  1.00  0.00     0.009 A 
HETATM   15  C   UNL     1      -7.629   0.868 -34.667  1.00  0.00     0.007 A 
HETATM   16  C   UNL     1      -7.440  -0.121 -33.696  1.00  0.00    -0.062 A 
HETATM   17  C   UNL     1      -7.296  -1.560 -34.099  1.00  0.00     0.048 C 
HETATM   18  C   UNL     1      -7.457   0.242 -32.347  1.00  0.00     0.007 A 
HETATM   19  C   UNL     1      -7.636   1.577 -31.974  1.00  0.00     0.009 A 
ENDBRANCH   1  13
BRANCH   5  20
HETATM   20  N   UNL     1      -6.284   5.335 -29.368  1.00  0.00    -0.282 NA
HETATM   21  H   UNL     1      -5.522   5.862 -29.787  1.00  0.00     0.126 HD
HETATM   22  H   UNL     1      -5.963   4.618 -28.722  1.00  0.00     0.126 HD
ENDBRANCH   5  20
BRANCH  12  23
HETATM   23  C   UNL     1     -11.314   3.356 -33.474  1.00  0.00    -0.005 A 
HETATM   24  C   UNL     1     -11.683   4.321 -34.420  1.00  0.00     0.014 A 
HETATM   25  C   UNL     1     -12.219   3.937 -35.653  1.00  0.00     0.001 A 
HETATM   26  C   UNL     1     -12.401   2.587 -35.949  1.00  0.00     0.000 A 
HETATM   27  C   UNL     1     -12.050   1.619 -35.011  1.00  0.00     0.001 A 
HETATM   28  C   UNL     1     -11.511   2.002 -33.781  1.00  0.00     0.014 A 
ENDBRANCH  12  23
TORSDOF 3
ENDMDL
MODEL 10
REMARK VINA RESULT:      -7.0      4.764      6.642
REMARK  3 active torsions:
REMARK  status: ('A' for Active; 'I' for Inactive)
REMARK    1  A    between atoms: C_5  and  C_6 
REMARK    2  A    between atoms: C_10  and  N_11 
REMARK    3  A    between atoms: C_18  and  C_19 
ROOT
HETATM    1  C   UNL     1      -9.866   2.803 -32.843  1.00  0.00     0.106 A 
HETATM    2  C   UNL     1     -10.881   2.360 -33.903  1.00  0.00     0.081 A 
HETATM    3  C   UNL     1     -11.547   1.122 -33.669  1.00  0.00     0.100 C 
HETATM    4  N   UNL     1     -12.093   0.115 -33.478  1.00  0.00    -0.191 NA
HETATM    5  C   UNL     1     -11.187   3.112 -34.996  1.00  0.00     0.140 A 
HETATM    6  O   UNL     1     -10.586   4.361 -35.229  1.00  0.00    -0.279 OA
HETATM    7  C   UNL     1      -9.770   4.809 -34.284  1.00  0.00     0.175 A 
HETATM    8  C   UNL     1      -9.372   4.179 -33.131  1.00  0.00     0.040 A 
HETATM    9  N   UNL     1      -9.170   6.022 -34.300  1.00  0.00    -0.256 N 
HETATM   10  H   UNL     1      -9.239   6.748 -35.003  1.00  0.00     0.191 HD
HETATM   11  N   UNL     1      -8.404   6.237 -33.218  1.00  0.00    -0.172 NA
HETATM   12  C   UNL     1      -8.535   5.122 -32.468  1.00  0.00     0.099 A 
ENDROOT
BRANCH   1  13
HETATM   13  C   UNL     1      -8.653   1.881 -32.799  1.00  0.00    -0.044 A 
HETATM   14  C   UNL     1      -7.788   1.706 -33.894  1.00  0.00     0.009 A 
HETATM   15  C   UNL     1      -6.731   0.795 -33.836  1.00  0.00     0.007 A 
HETATM   16  C   UNL     1      -6.515   0.028 -32.687  1.00  0.00    -0.062 A 
HETATM   17  C   UNL     1      -5.415  -0.992 -32.652  1.00  0.00     0.048 C 
HETATM   18  C   UNL     1      -7.382   0.177 -31.601  1.00  0.00     0.007 A 
HETATM   19  C   UNL     1      -8.434   1.096 -31.653  1.00  0.00     0.009 A 
ENDBRANCH   1  13
BRANCH   5  20
HETATM   20  N   UNL     1     -12.090   2.767 -35.976  1.00  0.00    -0.282 NA
HETATM   21  H   UNL     1     -11.693   2.594 -36.896  1.00  0.00     0.126 HD
HETATM   22  H   UNL     1     -12.888   3.398 -36.000  1.00  0.00     0.126 HD
ENDBRANCH   5  20
BRANCH  12  23
HETATM   23  C   UNL     1      -7.852   5.020 -31.176  1.00  0.00    -0.005 A 
HETATM   24  C   UNL     1      -8.352   5.655 -30.032  1.00  0.00     0.014 A 
HETATM   25  C   UNL     1      -7.675   5.556 -28.812  1.00  0.00     0.001 A 
HETATM   26  C   UNL     1      -6.487   4.831 -28.727  1.00  0.00     0.000 A 
HETATM   27  C   UNL     1      -5.973   4.206 -29.860  1.00  0.00     0.001 A 
HETATM   28  C   UNL     1      -6.651   4.302 -31.078  1.00  0.00     0.014 A 
ENDBRANCH  12  23
TORSDOF 3
ENDMDL
