MODEL 1
REMARK VINA RESULT:      -8.2      0.000      0.000
REMARK  9 active torsions:
REMARK  status: ('A' for Active; 'I' for Inactive)
REMARK    1  A    between atoms: C_2  and  C_3 
REMARK    2  A    between atoms: C_3  and  O_4 
REMARK    3  A    between atoms: O_4  and  C_5 
REMARK    4  A    between atoms: C_8  and  C_9 
REMARK    5  A    between atoms: N_11  and  C_12 
REMARK    6  A    between atoms: C_19  and  C_20 
REMARK    7  A    between atoms: C_20  and  S_21 
REMARK    8  A    between atoms: S_21  and  C_22 
REMARK    9  A    between atoms: C_22  and  N_23 
ROOT
HETATM    1  C   UNL     1      -5.750   1.000 -32.946  1.00  0.00     0.096 C 
HETATM    2  N   UNL     1      -5.177  -0.094 -33.461  1.00  0.00    -0.167 NA
HETATM    3  N   UNL     1      -6.161  -1.010 -33.605  1.00  0.00    -0.244 N 
HETATM    4  C   UNL     1      -7.389  -0.437 -33.366  1.00  0.00     0.129 C 
HETATM    5  C   UNL     1      -7.174   0.869 -32.967  1.00  0.00     0.001 C 
ENDROOT
BRANCH   1   6
HETATM    6  C   UNL     1      -4.929   2.165 -32.604  1.00  0.00    -0.005 A 
HETATM    7  C   UNL     1      -3.864   2.029 -31.700  1.00  0.00     0.016 A 
HETATM    8  C   UNL     1      -3.018   3.107 -31.415  1.00  0.00     0.037 A 
HETATM    9  C   UNL     1      -3.225   4.338 -32.031  1.00  0.00     0.068 A 
HETATM   10  C   UNL     1      -4.314   4.494 -32.892  1.00  0.00     0.037 A 
HETATM   11  C   UNL     1      -5.167   3.420 -33.171  1.00  0.00     0.016 A 
BRANCH   9  12
HETATM   12  O   UNL     1      -2.456   5.456 -31.880  1.00  0.00    -0.351 OA
BRANCH  12  13
HETATM   13  C   UNL     1      -1.106   5.393 -32.347  1.00  0.00     0.179 C 
BRANCH  13  14
HETATM   14  C   UNL     1      -0.985   6.235 -33.626  1.00  0.00     0.002 C 
HETATM   15  C   UNL     1      -1.933   7.436 -33.586  1.00  0.00     0.011 C 
HETATM   16  C   UNL     1      -1.270   5.376 -34.857  1.00  0.00     0.011 C 
ENDBRANCH  13  14
ENDBRANCH  12  13
ENDBRANCH   9  12
ENDBRANCH   1   6
BRANCH   5  17
HETATM   17  C   UNL     1      -8.231   1.876 -32.670  1.00  0.00     0.125 C 
BRANCH  17  18
HETATM   18  S   UNL     1      -9.437   2.065 -34.019  1.00  0.00    -0.090 SA
BRANCH  18  19
HETATM   19  C   UNL     1     -10.892   1.556 -33.270  1.00  0.00     0.131 C 
HETATM   20  N   UNL     1     -11.109   0.271 -33.155  1.00  0.00    -0.380 N 
HETATM   21  H   UNL     1     -10.404  -0.369 -33.504  1.00  0.00     0.158 HD
HETATM   22  H   UNL     1     -11.925  -0.109 -32.698  1.00  0.00     0.158 HD
BRANCH  19  23
HETATM   23  N   UNL     1     -11.722   2.444 -32.788  1.00  0.00    -0.380 N 
HETATM   24  H   UNL     1     -12.069   2.326 -31.841  1.00  0.00     0.158 HD
HETATM   25  H   UNL     1     -12.042   3.250 -33.307  1.00  0.00     0.158 HD
ENDBRANCH  19  23
ENDBRANCH  18  19
ENDBRANCH  17  18
ENDBRANCH   5  17
BRANCH   3  26
HETATM   26  C   UNL     1      -5.874  -2.332 -34.044  1.00  0.00     0.058 A 
HETATM   27  C   UNL     1      -4.579  -2.847 -33.873  1.00  0.00     0.031 A 
HETATM   28  C   UNL     1      -4.271  -4.137 -34.311  1.00  0.00     0.002 A 
HETATM   29  C   UNL     1      -5.249  -4.920 -34.917  1.00  0.00     0.000 A 
HETATM   30  C   UNL     1      -6.539  -4.419 -35.084  1.00  0.00     0.002 A 
HETATM   31  C   UNL     1      -6.856  -3.128 -34.649  1.00  0.00     0.031 A 
ENDBRANCH   3  26
TORSDOF 9
ENDMDL
MODEL 2
REMARK VINA RESULT:      -8.2      1.571      1.786
REMARK  9 active torsions:
REMARK  status: ('A' for Active; 'I' for Inactive)
REMARK    1  A    between atoms: C_2  and  C_3 
REMARK    2  A    between atoms: C_3  and  O_4 
REMARK    3  A    between atoms: O_4  and  C_5 
REMARK    4  A    between atoms: C_8  and  C_9 
REMARK    5  A    between atoms: N_11  and  C_12 
REMARK    6  A    between atoms: C_19  and  C_20 
REMARK    7  A    between atoms: C_20  and  S_21 
REMARK    8  A    between atoms: S_21  and  C_22 
REMARK    9  A    between atoms: C_22  and  N_23 
ROOT
HETATM    1  C   UNL     1      -5.750   1.054 -33.058  1.00  0.00     0.096 C 
HETATM    2  N   UNL     1      -5.178  -0.072 -33.501  1.00  0.00    -0.167 NA
HETATM    3  N   UNL     1      -6.181  -0.954 -33.709  1.00  0.00    -0.244 N 
HETATM    4  C   UNL     1      -7.402  -0.331 -33.585  1.00  0.00     0.129 C 
HETATM    5  C   UNL     1      -7.171   0.975 -33.196  1.00  0.00     0.001 C 
ENDROOT
BRANCH   1   6
HETATM    6  C   UNL     1      -4.916   2.196 -32.672  1.00  0.00    -0.005 A 
HETATM    7  C   UNL     1      -3.916   2.035 -31.700  1.00  0.00     0.016 A 
HETATM    8  C   UNL     1      -3.057   3.089 -31.369  1.00  0.00     0.037 A 
HETATM    9  C   UNL     1      -3.184   4.320 -32.006  1.00  0.00     0.068 A 
HETATM   10  C   UNL     1      -4.210   4.502 -32.936  1.00  0.00     0.037 A 
HETATM   11  C   UNL     1      -5.077   3.453 -33.262  1.00  0.00     0.016 A 
BRANCH   9  12
HETATM   12  O   UNL     1      -2.391   5.414 -31.812  1.00  0.00    -0.351 OA
BRANCH  12  13
HETATM   13  C   UNL     1      -1.054   5.353 -32.314  1.00  0.00     0.179 C 
BRANCH  13  14
HETATM   14  C   UNL     1      -0.938   6.286 -33.529  1.00  0.00     0.002 C 
HETATM   15  C   UNL     1      -1.889   7.478 -33.401  1.00  0.00     0.011 C 
HETATM   16  C   UNL     1      -1.223   5.518 -34.818  1.00  0.00     0.011 C 
ENDBRANCH  13  14
ENDBRANCH  12  13
ENDBRANCH   9  12
ENDBRANCH   1   6
BRANCH   5  17
HETATM   17  C   UNL     1      -8.210   2.027 -33.008  1.00  0.00     0.125 C 
BRANCH  17  18
HETATM   18  S   UNL     1      -8.920   2.038 -31.333  1.00  0.00    -0.090 SA
BRANCH  18  19
HETATM   19  C   UNL     1      -7.723   2.881 -30.444  1.00  0.00     0.131 C 
HETATM   20  N   UNL     1      -7.005   2.206 -29.583  1.00  0.00    -0.380 N 
HETATM   21  H   UNL     1      -7.179   1.211 -29.487  1.00  0.00     0.158 HD
HETATM   22  H   UNL     1      -6.259   2.622 -29.045  1.00  0.00     0.158 HD
BRANCH  19  23
HETATM   23  N   UNL     1      -7.516   4.152 -30.672  1.00  0.00    -0.380 N 
HETATM   24  H   UNL     1      -7.346   4.769 -29.883  1.00  0.00     0.158 HD
HETATM   25  H   UNL     1      -7.514   4.560 -31.596  1.00  0.00     0.158 HD
ENDBRANCH  19  23
ENDBRANCH  18  19
ENDBRANCH  17  18
ENDBRANCH   5  17
BRANCH   3  26
HETATM   26  C   UNL     1      -5.910  -2.295 -34.096  1.00  0.00     0.058 A 
HETATM   27  C   UNL     1      -4.613  -2.807 -33.936  1.00  0.00     0.031 A 
HETATM   28  C   UNL     1      -4.320  -4.117 -34.324  1.00  0.00     0.002 A 
HETATM   29  C   UNL     1      -5.316  -4.922 -34.869  1.00  0.00     0.000 A 
HETATM   30  C   UNL     1      -6.609  -4.424 -35.024  1.00  0.00     0.002 A 
HETATM   31  C   UNL     1      -6.910  -3.114 -34.638  1.00  0.00     0.031 A 
ENDBRANCH   3  26
TORSDOF 9
ENDMDL
MODEL 3
REMARK VINA RESULT:      -8.1      1.039      1.451
REMARK  9 active torsions:
REMARK  status: ('A' for Active; 'I' for Inactive)
REMARK    1  A    between atoms: C_2  and  C_3 
REMARK    2  A    between atoms: C_3  and  O_4 
REMARK    3  A    between atoms: O_4  and  C_5 
REMARK    4  A    between atoms: C_8  and  C_9 
REMARK    5  A    between atoms: N_11  and  C_12 
REMARK    6  A    between atoms: C_19  and  C_20 
REMARK    7  A    between atoms: C_20  and  S_21 
REMARK    8  A    between atoms: S_21  and  C_22 
REMARK    9  A    between atoms: C_22  and  N_23 
ROOT
HETATM    1  C   UNL     1      -6.364   1.377 -33.349  1.00  0.00     0.096 C 
HETATM    2  N   UNL     1      -5.717   0.320 -33.853  1.00  0.00    -0.167 NA
HETATM    3  N   UNL     1      -6.550  -0.736 -33.724  1.00  0.00    -0.244 N 
HETATM    4  C   UNL     1      -7.797  -0.318 -33.318  1.00  0.00     0.129 C 
HETATM    5  C   UNL     1      -7.731   1.045 -33.094  1.00  0.00     0.001 C 
ENDROOT
BRANCH   1   6
HETATM    6  C   UNL     1      -5.696   2.680 -33.279  1.00  0.00    -0.005 A 
HETATM    7  C   UNL     1      -4.724   2.916 -32.295  1.00  0.00     0.016 A 
HETATM    8  C   UNL     1      -4.018   4.123 -32.254  1.00  0.00     0.037 A 
HETATM    9  C   UNL     1      -4.273   5.113 -33.199  1.00  0.00     0.068 A 
HETATM   10  C   UNL     1      -5.275   4.905 -34.149  1.00  0.00     0.037 A 
HETATM   11  C   UNL     1      -5.990   3.703 -34.186  1.00  0.00     0.016 A 
BRANCH   9  12
HETATM   12  O   UNL     1      -3.632   6.314 -33.302  1.00  0.00    -0.351 OA
BRANCH  12  13
HETATM   13  C   UNL     1      -2.436   6.355 -34.084  1.00  0.00     0.179 C 
BRANCH  13  14
HETATM   14  C   UNL     1      -1.295   6.905 -33.216  1.00  0.00     0.002 C 
HETATM   15  C   UNL     1      -0.688   5.804 -32.343  1.00  0.00     0.011 C 
HETATM   16  C   UNL     1      -1.796   8.056 -32.345  1.00  0.00     0.011 C 
ENDBRANCH  13  14
ENDBRANCH  12  13
ENDBRANCH   9  12
ENDBRANCH   1   6
BRANCH   5  17
HETATM   17  C   UNL     1      -8.872   1.921 -32.703  1.00  0.00     0.125 C 
BRANCH  17  18
HETATM   18  S   UNL     1      -9.707   2.684 -34.129  1.00  0.00    -0.090 SA
BRANCH  18  19
HETATM   19  C   UNL     1     -11.090   1.688 -34.306  1.00  0.00     0.131 C 
HETATM   20  N   UNL     1     -11.501   1.012 -33.264  1.00  0.00    -0.380 N 
HETATM   21  H   UNL     1     -10.991   1.114 -32.393  1.00  0.00     0.158 HD
HETATM   22  H   UNL     1     -12.325   0.429 -33.278  1.00  0.00     0.158 HD
BRANCH  19  23
HETATM   23  N   UNL     1     -11.730   1.659 -35.446  1.00  0.00    -0.380 N 
HETATM   24  H   UNL     1     -11.228   1.376 -36.282  1.00  0.00     0.158 HD
HETATM   25  H   UNL     1     -12.705   1.904 -35.545  1.00  0.00     0.158 HD
ENDBRANCH  19  23
ENDBRANCH  18  19
ENDBRANCH  17  18
ENDBRANCH   5  17
BRANCH   3  26
HETATM   26  C   UNL     1      -6.132  -2.048 -34.079  1.00  0.00     0.058 A 
HETATM   27  C   UNL     1      -4.776  -2.392 -33.963  1.00  0.00     0.031 A 
HETATM   28  C   UNL     1      -4.341  -3.670 -34.320  1.00  0.00     0.002 A 
HETATM   29  C   UNL     1      -5.251  -4.611 -34.793  1.00  0.00     0.000 A 
HETATM   30  C   UNL     1      -6.601  -4.279 -34.904  1.00  0.00     0.002 A 
HETATM   31  C   UNL     1      -7.046  -3.003 -34.548  1.00  0.00     0.031 A 
ENDBRANCH   3  26
TORSDOF 9
ENDMDL
MODEL 4
REMARK VINA RESULT:      -8.0      3.847      6.896
REMARK  9 active torsions:
REMARK  status: ('A' for Active; 'I' for Inactive)
REMARK    1  A    between atoms: C_2  and  C_3 
REMARK    2  A    between atoms: C_3  and  O_4 
REMARK    3  A    between atoms: O_4  and  C_5 
REMARK    4  A    between atoms: C_8  and  C_9 
REMARK    5  A    between atoms: N_11  and  C_12 
REMARK    6  A    between atoms: C_19  and  C_20 
REMARK    7  A    between atoms: C_20  and  S_21 
REMARK    8  A    between atoms: S_21  and  C_22 
REMARK    9  A    between atoms: C_22  and  N_23 
ROOT
HETATM    1  C   UNL     1      -7.891   0.572 -33.701  1.00  0.00     0.096 C 
HETATM    2  N   UNL     1      -7.748  -0.746 -33.881  1.00  0.00    -0.167 NA
HETATM    3  N   UNL     1      -6.419  -0.990 -33.882  1.00  0.00    -0.244 N 
HETATM    4  C   UNL     1      -5.723   0.137 -33.510  1.00  0.00     0.129 C 
HETATM    5  C   UNL     1      -6.637   1.163 -33.353  1.00  0.00     0.001 C 
ENDROOT
BRANCH   1   6
HETATM    6  C   UNL     1      -9.228   1.173 -33.720  1.00  0.00    -0.005 A 
HETATM    7  C   UNL     1      -9.408   2.463 -34.240  1.00  0.00     0.016 A 
HETATM    8  C   UNL     1     -10.684   3.029 -34.339  1.00  0.00     0.037 A 
HETATM    9  C   UNL     1     -11.801   2.311 -33.918  1.00  0.00     0.068 A 
HETATM   10  C   UNL     1     -11.623   1.047 -33.352  1.00  0.00     0.037 A 
HETATM   11  C   UNL     1     -10.347   0.483 -33.243  1.00  0.00     0.016 A 
BRANCH   9  12
HETATM   12  O   UNL     1     -13.100   2.722 -33.997  1.00  0.00    -0.351 OA
BRANCH  12  13
HETATM   13  C   UNL     1     -13.423   3.992 -33.424  1.00  0.00     0.179 C 
BRANCH  13  14
HETATM   14  C   UNL     1     -14.284   3.767 -32.172  1.00  0.00     0.002 C 
HETATM   15  C   UNL     1     -13.448   3.910 -30.898  1.00  0.00     0.011 C 
HETATM   16  C   UNL     1     -14.943   2.390 -32.221  1.00  0.00     0.011 C 
ENDBRANCH  13  14
ENDBRANCH  12  13
ENDBRANCH   9  12
ENDBRANCH   1   6
BRANCH   5  17
HETATM   17  C   UNL     1      -6.326   2.545 -32.892  1.00  0.00     0.125 C 
BRANCH  17  18
HETATM   18  S   UNL     1      -5.430   2.586 -31.309  1.00  0.00    -0.090 SA
BRANCH  18  19
HETATM   19  C   UNL     1      -6.599   1.963 -30.222  1.00  0.00     0.131 C 
HETATM   20  N   UNL     1      -6.230   1.017 -29.396  1.00  0.00    -0.380 N 
HETATM   21  H   UNL     1      -5.267   0.701 -29.426  1.00  0.00     0.158 HD
HETATM   22  H   UNL     1      -6.849   0.621 -28.704  1.00  0.00     0.158 HD
BRANCH  19  23
HETATM   23  N   UNL     1      -7.804   2.468 -30.201  1.00  0.00    -0.380 N 
HETATM   24  H   UNL     1      -8.214   2.721 -29.307  1.00  0.00     0.158 HD
HETATM   25  H   UNL     1      -8.358   2.626 -31.031  1.00  0.00     0.158 HD
ENDBRANCH  19  23
ENDBRANCH  18  19
ENDBRANCH  17  18
ENDBRANCH   5  17
BRANCH   3  26
HETATM   26  C   UNL     1      -5.913  -2.293 -34.147  1.00  0.00     0.058 A 
HETATM   27  C   UNL     1      -6.773  -3.271 -34.671  1.00  0.00     0.031 A 
HETATM   28  C   UNL     1      -6.301  -4.561 -34.925  1.00  0.00     0.002 A 
HETATM   29  C   UNL     1      -4.972  -4.882 -34.661  1.00  0.00     0.000 A 
HETATM   30  C   UNL     1      -4.110  -3.914 -34.147  1.00  0.00     0.002 A 
HETATM   31  C   UNL     1      -4.574  -2.621 -33.891  1.00  0.00     0.031 A 
ENDBRANCH   3  26
TORSDOF 9
ENDMDL
MODEL 5
REMARK VINA RESULT:      -8.0      3.606      6.847
REMARK  9 active torsions:
REMARK  status: ('A' for Active; 'I' for Inactive)
REMARK    1  A    between atoms: C_2  and  C_3 
REMARK    2  A    between atoms: C_3  and  O_4 
REMARK    3  A    between atoms: O_4  and  C_5 
REMARK    4  A    between atoms: C_8  and  C_9 
REMARK    5  A    between atoms: N_11  and  C_12 
REMARK    6  A    between atoms: C_19  and  C_20 
REMARK    7  A    between atoms: C_20  and  S_21 
REMARK    8  A    between atoms: S_21  and  C_22 
REMARK    9  A    between atoms: C_22  and  N_23 
ROOT
HETATM    1  C   UNL     1      -6.742   0.586 -33.155  1.00  0.00     0.096 C 
HETATM    2  N   UNL     1      -6.491  -0.728 -33.200  1.00  0.00    -0.167 NA
HETATM    3  N   UNL     1      -5.154  -0.867 -33.067  1.00  0.00    -0.244 N 
HETATM    4  C   UNL     1      -4.575   0.339 -32.743  1.00  0.00     0.129 C 
HETATM    5  C   UNL     1      -5.569   1.300 -32.758  1.00  0.00     0.001 C 
ENDROOT
BRANCH   1   6
HETATM    6  C   UNL     1      -8.110   1.077 -33.341  1.00  0.00    -0.005 A 
HETATM    7  C   UNL     1      -8.335   2.273 -34.039  1.00  0.00     0.016 A 
HETATM    8  C   UNL     1      -9.636   2.724 -34.296  1.00  0.00     0.037 A 
HETATM    9  C   UNL     1     -10.730   1.984 -33.857  1.00  0.00     0.068 A 
HETATM   10  C   UNL     1     -10.512   0.820 -33.117  1.00  0.00     0.037 A 
HETATM   11  C   UNL     1      -9.214   0.372 -32.851  1.00  0.00     0.016 A 
BRANCH   9  12
HETATM   12  O   UNL     1     -12.044   2.283 -34.074  1.00  0.00    -0.351 OA
BRANCH  12  13
HETATM   13  C   UNL     1     -12.774   1.430 -34.960  1.00  0.00     0.179 C 
BRANCH  13  14
HETATM   14  C   UNL     1     -14.024   0.912 -34.232  1.00  0.00     0.002 C 
HETATM   15  C   UNL     1     -14.455   1.877 -33.124  1.00  0.00     0.011 C 
HETATM   16  C   UNL     1     -13.763  -0.477 -33.652  1.00  0.00     0.011 C 
ENDBRANCH  13  14
ENDBRANCH  12  13
ENDBRANCH   9  12
ENDBRANCH   1   6
BRANCH   5  17
HETATM   17  C   UNL     1      -5.398   2.737 -32.401  1.00  0.00     0.125 C 
BRANCH  17  18
HETATM   18  S   UNL     1      -5.126   3.004 -30.622  1.00  0.00    -0.090 SA
BRANCH  18  19
HETATM   19  C   UNL     1      -6.410   2.105 -29.927  1.00  0.00     0.131 C 
HETATM   20  N   UNL     1      -7.624   2.577 -30.040  1.00  0.00    -0.380 N 
HETATM   21  H   UNL     1      -7.757   3.448 -30.543  1.00  0.00     0.158 HD
HETATM   22  H   UNL     1      -8.437   2.093 -29.687  1.00  0.00     0.158 HD
BRANCH  19  23
HETATM   23  N   UNL     1      -6.163   0.958 -29.350  1.00  0.00    -0.380 N 
HETATM   24  H   UNL     1      -6.056   0.132 -29.931  1.00  0.00     0.158 HD
HETATM   25  H   UNL     1      -6.072   0.844 -28.350  1.00  0.00     0.158 HD
ENDBRANCH  19  23
ENDBRANCH  18  19
ENDBRANCH  17  18
ENDBRANCH   5  17
BRANCH   3  26
HETATM   26  C   UNL     1      -4.536  -2.144 -33.168  1.00  0.00     0.058 A 
HETATM   27  C   UNL     1      -3.626  -2.547 -32.178  1.00  0.00     0.031 A 
HETATM   28  C   UNL     1      -2.996  -3.790 -32.264  1.00  0.00     0.002 A 
HETATM   29  C   UNL     1      -3.270  -4.638 -33.333  1.00  0.00     0.000 A 
HETATM   30  C   UNL     1      -4.178  -4.249 -34.317  1.00  0.00     0.002 A 
HETATM   31  C   UNL     1      -4.813  -3.006 -34.238  1.00  0.00     0.031 A 
ENDBRANCH   3  26
TORSDOF 9
ENDMDL
MODEL 6
REMARK VINA RESULT:      -7.9      2.189      2.986
REMARK  9 active torsions:
REMARK  status: ('A' for Active; 'I' for Inactive)
REMARK    1  A    between atoms: C_2  and  C_3 
REMARK    2  A    between atoms: C_3  and  O_4 
REMARK    3  A    between atoms: O_4  and  C_5 
REMARK    4  A    between atoms: C_8  and  C_9 
REMARK    5  A    between atoms: N_11  and  C_12 
REMARK    6  A    between atoms: C_19  and  C_20 
REMARK    7  A    between atoms: C_20  and  S_21 
REMARK    8  A    between atoms: S_21  and  C_22 
REMARK    9  A    between atoms: C_22  and  N_23 
ROOT
HETATM    1  C   UNL     1      -5.427   1.818 -32.937  1.00  0.00     0.096 C 
HETATM    2  N   UNL     1      -4.991   0.676 -33.482  1.00  0.00    -0.167 NA
HETATM    3  N   UNL     1      -6.036  -0.181 -33.463  1.00  0.00    -0.244 N 
HETATM    4  C   UNL     1      -7.187   0.474 -33.088  1.00  0.00     0.129 C 
HETATM    5  C   UNL     1      -6.846   1.775 -32.769  1.00  0.00     0.001 C 
ENDROOT
BRANCH   1   6
HETATM    6  C   UNL     1      -4.502   2.939 -32.748  1.00  0.00    -0.005 A 
HETATM    7  C   UNL     1      -4.687   4.128 -33.470  1.00  0.00     0.016 A 
HETATM    8  C   UNL     1      -3.864   5.239 -33.252  1.00  0.00     0.037 A 
HETATM    9  C   UNL     1      -2.844   5.177 -32.307  1.00  0.00     0.068 A 
HETATM   10  C   UNL     1      -2.622   3.981 -31.622  1.00  0.00     0.037 A 
HETATM   11  C   UNL     1      -3.437   2.865 -31.845  1.00  0.00     0.016 A 
BRANCH   9  12
HETATM   12  O   UNL     1      -2.000   6.194 -31.965  1.00  0.00    -0.351 OA
BRANCH  12  13
HETATM   13  C   UNL     1      -1.513   6.219 -30.620  1.00  0.00     0.179 C 
BRANCH  13  14
HETATM   14  C   UNL     1      -0.012   6.543 -30.642  1.00  0.00     0.002 C 
HETATM   15  C   UNL     1       0.822   5.273 -30.827  1.00  0.00     0.011 C 
HETATM   16  C   UNL     1       0.395   7.262 -29.357  1.00  0.00     0.011 C 
ENDBRANCH  13  14
ENDBRANCH  12  13
ENDBRANCH   9  12
ENDBRANCH   1   6
BRANCH   5  17
HETATM   17  C   UNL     1      -7.795   2.853 -32.373  1.00  0.00     0.125 C 
BRANCH  17  18
HETATM   18  S   UNL     1      -8.346   2.720 -30.644  1.00  0.00    -0.090 SA
BRANCH  18  19
HETATM   19  C   UNL     1      -6.856   2.620 -29.802  1.00  0.00     0.131 C 
HETATM   20  N   UNL     1      -6.206   3.730 -29.566  1.00  0.00    -0.380 N 
HETATM   21  H   UNL     1      -6.615   4.604 -29.881  1.00  0.00     0.158 HD
HETATM   22  H   UNL     1      -5.339   3.760 -29.049  1.00  0.00     0.158 HD
BRANCH  19  23
HETATM   23  N   UNL     1      -6.427   1.462 -29.373  1.00  0.00    -0.380 N 
HETATM   24  H   UNL     1      -5.924   0.858 -30.017  1.00  0.00     0.158 HD
HETATM   25  H   UNL     1      -6.567   1.129 -28.430  1.00  0.00     0.158 HD
ENDBRANCH  19  23
ENDBRANCH  18  19
ENDBRANCH  17  18
ENDBRANCH   5  17
BRANCH   3  26
HETATM   26  C   UNL     1      -5.885  -1.530 -33.888  1.00  0.00     0.058 A 
HETATM   27  C   UNL     1      -4.613  -2.123 -33.855  1.00  0.00     0.031 A 
HETATM   28  C   UNL     1      -4.440  -3.442 -34.282  1.00  0.00     0.002 A 
HETATM   29  C   UNL     1      -5.531  -4.176 -34.739  1.00  0.00     0.000 A 
HETATM   30  C   UNL     1      -6.799  -3.596 -34.768  1.00  0.00     0.002 A 
HETATM   31  C   UNL     1      -6.981  -2.277 -34.343  1.00  0.00     0.031 A 
ENDBRANCH   3  26
TORSDOF 9
ENDMDL
MODEL 7
REMARK VINA RESULT:      -7.4      3.788      8.351
REMARK  9 active torsions:
REMARK  status: ('A' for Active; 'I' for Inactive)
REMARK    1  A    between atoms: C_2  and  C_3 
REMARK    2  A    between atoms: C_3  and  O_4 
REMARK    3  A    between atoms: O_4  and  C_5 
REMARK    4  A    between atoms: C_8  and  C_9 
REMARK    5  A    between atoms: N_11  and  C_12 
REMARK    6  A    between atoms: C_19  and  C_20 
REMARK    7  A    between atoms: C_20  and  S_21 
REMARK    8  A    between atoms: S_21  and  C_22 
REMARK    9  A    between atoms: C_22  and  N_23 
ROOT
HETATM    1  C   UNL     1      -5.241   2.322 -32.712  1.00  0.00     0.096 C 
HETATM    2  N   UNL     1      -4.617   3.381 -33.241  1.00  0.00    -0.167 NA
HETATM    3  N   UNL     1      -3.447   3.507 -32.578  1.00  0.00    -0.244 N 
HETATM    4  C   UNL     1      -3.237   2.418 -31.763  1.00  0.00     0.129 C 
HETATM    5  C   UNL     1      -4.357   1.611 -31.842  1.00  0.00     0.001 C 
ENDROOT
BRANCH   1   6
HETATM    6  C   UNL     1      -6.583   1.957 -33.174  1.00  0.00    -0.005 A 
HETATM    7  C   UNL     1      -6.736   1.143 -34.306  1.00  0.00     0.016 A 
HETATM    8  C   UNL     1      -8.003   0.717 -34.723  1.00  0.00     0.037 A 
HETATM    9  C   UNL     1      -9.136   1.100 -34.011  1.00  0.00     0.068 A 
HETATM   10  C   UNL     1      -8.996   1.952 -32.914  1.00  0.00     0.037 A 
HETATM   11  C   UNL     1      -7.731   2.387 -32.501  1.00  0.00     0.016 A 
BRANCH   9  12
HETATM   12  O   UNL     1     -10.421   0.725 -34.279  1.00  0.00    -0.351 OA
BRANCH  12  13
HETATM   13  C   UNL     1     -11.463   1.626 -33.893  1.00  0.00     0.179 C 
BRANCH  13  14
HETATM   14  C   UNL     1     -12.508   1.685 -35.017  1.00  0.00     0.002 C 
HETATM   15  C   UNL     1     -12.474   3.040 -35.729  1.00  0.00     0.011 C 
HETATM   16  C   UNL     1     -13.904   1.416 -34.458  1.00  0.00     0.011 C 
ENDBRANCH  13  14
ENDBRANCH  12  13
ENDBRANCH   9  12
ENDBRANCH   1   6
BRANCH   5  17
HETATM   17  C   UNL     1      -4.532   0.293 -31.170  1.00  0.00     0.125 C 
BRANCH  17  18
HETATM   18  S   UNL     1      -4.386  -1.116 -32.313  1.00  0.00    -0.090 SA
BRANCH  18  19
HETATM   19  C   UNL     1      -2.943  -1.866 -31.771  1.00  0.00     0.131 C 
HETATM   20  N   UNL     1      -2.922  -3.171 -31.685  1.00  0.00    -0.380 N 
HETATM   21  H   UNL     1      -3.755  -3.684 -31.953  1.00  0.00     0.158 HD
HETATM   22  H   UNL     1      -2.102  -3.690 -31.406  1.00  0.00     0.158 HD
BRANCH  19  23
HETATM   23  N   UNL     1      -1.890  -1.138 -31.505  1.00  0.00    -0.380 N 
HETATM   24  H   UNL     1      -0.969  -1.535 -31.664  1.00  0.00     0.158 HD
HETATM   25  H   UNL     1      -1.939  -0.194 -31.149  1.00  0.00     0.158 HD
ENDBRANCH  19  23
ENDBRANCH  18  19
ENDBRANCH  17  18
ENDBRANCH   5  17
BRANCH   3  26
HETATM   26  C   UNL     1      -2.574   4.601 -32.831  1.00  0.00     0.058 A 
HETATM   27  C   UNL     1      -2.129   5.388 -31.757  1.00  0.00     0.031 A 
HETATM   28  C   UNL     1      -1.283   6.476 -31.983  1.00  0.00     0.002 A 
HETATM   29  C   UNL     1      -0.876   6.785 -33.278  1.00  0.00     0.000 A 
HETATM   30  C   UNL     1      -1.307   6.004 -34.350  1.00  0.00     0.002 A 
HETATM   31  C   UNL     1      -2.153   4.913 -34.131  1.00  0.00     0.031 A 
ENDBRANCH   3  26
TORSDOF 9
ENDMDL
MODEL 8
REMARK VINA RESULT:      -7.4      1.298      2.042
REMARK  9 active torsions:
REMARK  status: ('A' for Active; 'I' for Inactive)
REMARK    1  A    between atoms: C_2  and  C_3 
REMARK    2  A    between atoms: C_3  and  O_4 
REMARK    3  A    between atoms: O_4  and  C_5 
REMARK    4  A    between atoms: C_8  and  C_9 
REMARK    5  A    between atoms: N_11  and  C_12 
REMARK    6  A    between atoms: C_19  and  C_20 
REMARK    7  A    between atoms: C_20  and  S_21 
REMARK    8  A    between atoms: S_21  and  C_22 
REMARK    9  A    between atoms: C_22  and  N_23 
ROOT
HETATM    1  C   UNL     1      -5.572   1.202 -32.846  1.00  0.00     0.096 C 
HETATM    2  N   UNL     1      -5.091   0.129 -33.484  1.00  0.00    -0.167 NA
HETATM    3  N   UNL     1      -6.053  -0.818 -33.421  1.00  0.00    -0.244 N 
HETATM    4  C   UNL     1      -7.218  -0.285 -32.915  1.00  0.00     0.129 C 
HETATM    5  C   UNL     1      -6.961   1.026 -32.560  1.00  0.00     0.001 C 
ENDROOT
BRANCH   1   6
HETATM    6  C   UNL     1      -4.733   2.392 -32.679  1.00  0.00    -0.005 A 
HETATM    7  C   UNL     1      -5.031   3.564 -33.390  1.00  0.00     0.016 A 
HETATM    8  C   UNL     1      -4.291   4.736 -33.192  1.00  0.00     0.037 A 
HETATM    9  C   UNL     1      -3.242   4.752 -32.277  1.00  0.00     0.068 A 
HETATM   10  C   UNL     1      -2.907   3.575 -31.604  1.00  0.00     0.037 A 
HETATM   11  C   UNL     1      -3.639   2.400 -31.808  1.00  0.00     0.016 A 
BRANCH   9  12
HETATM   12  O   UNL     1      -2.470   5.831 -31.954  1.00  0.00    -0.351 OA
BRANCH  12  13
HETATM   13  C   UNL     1      -2.555   6.322 -30.614  1.00  0.00     0.179 C 
BRANCH  13  14
HETATM   14  C   UNL     1      -2.841   7.831 -30.657  1.00  0.00     0.002 C 
HETATM   15  C   UNL     1      -4.335   8.102 -30.849  1.00  0.00     0.011 C 
HETATM   16  C   UNL     1      -2.035   8.494 -31.772  1.00  0.00     0.011 C 
ENDBRANCH  13  14
ENDBRANCH  12  13
ENDBRANCH   9  12
ENDBRANCH   1   6
BRANCH   5  17
HETATM   17  C   UNL     1      -7.960   1.997 -32.029  1.00  0.00     0.125 C 
BRANCH  17  18
HETATM   18  S   UNL     1      -8.841   2.902 -33.338  1.00  0.00    -0.090 SA
BRANCH  18  19
HETATM   19  C   UNL     1     -10.159   1.858 -33.668  1.00  0.00     0.131 C 
HETATM   20  N   UNL     1     -10.632   1.133 -32.687  1.00  0.00    -0.380 N 
HETATM   21  H   UNL     1     -10.207   1.228 -31.771  1.00  0.00     0.158 HD
HETATM   22  H   UNL     1     -11.426   0.519 -32.792  1.00  0.00     0.158 HD
BRANCH  19  23
HETATM   23  N   UNL     1     -10.693   1.840 -34.862  1.00  0.00    -0.380 N 
HETATM   24  H   UNL     1     -11.624   1.450 -34.975  1.00  0.00     0.158 HD
HETATM   25  H   UNL     1     -10.230   2.196 -35.686  1.00  0.00     0.158 HD
ENDBRANCH  19  23
ENDBRANCH  18  19
ENDBRANCH  17  18
ENDBRANCH   5  17
BRANCH   3  26
HETATM   26  C   UNL     1      -5.828  -2.128 -33.926  1.00  0.00     0.058 A 
HETATM   27  C   UNL     1      -6.887  -2.823 -34.530  1.00  0.00     0.031 A 
HETATM   28  C   UNL     1      -6.692  -4.117 -35.019  1.00  0.00     0.002 A 
HETATM   29  C   UNL     1      -5.444  -4.722 -34.912  1.00  0.00     0.000 A 
HETATM   30  C   UNL     1      -4.384  -4.036 -34.320  1.00  0.00     0.002 A 
HETATM   31  C   UNL     1      -4.570  -2.741 -33.828  1.00  0.00     0.031 A 
ENDBRANCH   3  26
TORSDOF 9
ENDMDL
MODEL 9
REMARK VINA RESULT:      -7.3      3.732      6.341
REMARK  9 active torsions:
REMARK  status: ('A' for Active; 'I' for Inactive)
REMARK    1  A    between atoms: C_2  and  C_3 
REMARK    2  A    between atoms: C_3  and  O_4 
REMARK    3  A    between atoms: O_4  and  C_5 
REMARK    4  A    between atoms: C_8  and  C_9 
REMARK    5  A    between atoms: N_11  and  C_12 
REMARK    6  A    between atoms: C_19  and  C_20 
REMARK    7  A    between atoms: C_20  and  S_21 
REMARK    8  A    between atoms: S_21  and  C_22 
REMARK    9  A    between atoms: C_22  and  N_23 
ROOT
HETATM    1  C   UNL     1      -7.704   1.011 -33.755  1.00  0.00     0.096 C 
HETATM    2  N   UNL     1      -7.664  -0.301 -34.017  1.00  0.00    -0.167 NA
HETATM    3  N   UNL     1      -6.390  -0.696 -33.802  1.00  0.00    -0.244 N 
HETATM    4  C   UNL     1      -5.665   0.318 -33.217  1.00  0.00     0.129 C 
HETATM    5  C   UNL     1      -6.483   1.429 -33.140  1.00  0.00     0.001 C 
ENDROOT
BRANCH   1   6
HETATM    6  C   UNL     1      -8.945   1.762 -33.961  1.00  0.00    -0.005 A 
HETATM    7  C   UNL     1      -8.903   3.156 -34.112  1.00  0.00     0.016 A 
HETATM    8  C   UNL     1     -10.065   3.887 -34.385  1.00  0.00     0.037 A 
HETATM    9  C   UNL     1     -11.288   3.233 -34.511  1.00  0.00     0.068 A 
HETATM   10  C   UNL     1     -11.345   1.852 -34.311  1.00  0.00     0.037 A 
HETATM   11  C   UNL     1     -10.186   1.120 -34.028  1.00  0.00     0.016 A 
BRANCH   9  12
HETATM   12  O   UNL     1     -12.485   3.813 -34.817  1.00  0.00    -0.351 OA
BRANCH  12  13
HETATM   13  C   UNL     1     -12.674   5.175 -34.424  1.00  0.00     0.179 C 
BRANCH  13  14
HETATM   14  C   UNL     1     -12.595   6.067 -35.672  1.00  0.00     0.002 C 
HETATM   15  C   UNL     1     -11.625   7.231 -35.455  1.00  0.00     0.011 C 
HETATM   16  C   UNL     1     -13.982   6.593 -36.038  1.00  0.00     0.011 C 
ENDBRANCH  13  14
ENDBRANCH  12  13
ENDBRANCH   9  12
ENDBRANCH   1   6
BRANCH   5  17
HETATM   17  C   UNL     1      -6.124   2.734 -32.516  1.00  0.00     0.125 C 
BRANCH  17  18
HETATM   18  S   UNL     1      -5.099   2.555 -31.024  1.00  0.00    -0.090 SA
BRANCH  18  19
HETATM   19  C   UNL     1      -6.222   1.925 -29.894  1.00  0.00     0.131 C 
HETATM   20  N   UNL     1      -7.277   2.644 -29.607  1.00  0.00    -0.380 N 
HETATM   21  H   UNL     1      -7.391   3.537 -30.074  1.00  0.00     0.158 HD
HETATM   22  H   UNL     1      -8.001   2.330 -28.977  1.00  0.00     0.158 HD
BRANCH  19  23
HETATM   23  N   UNL     1      -6.035   0.736 -29.383  1.00  0.00    -0.380 N 
HETATM   24  H   UNL     1      -5.415   0.090 -29.863  1.00  0.00     0.158 HD
HETATM   25  H   UNL     1      -6.475   0.418 -28.531  1.00  0.00     0.158 HD
ENDBRANCH  19  23
ENDBRANCH  18  19
ENDBRANCH  17  18
ENDBRANCH   5  17
BRANCH   3  26
HETATM   26  C   UNL     1      -5.978  -2.028 -34.081  1.00  0.00     0.058 A 
HETATM   27  C   UNL     1      -4.635  -2.387 -33.887  1.00  0.00     0.031 A 
HETATM   28  C   UNL     1      -4.205  -3.686 -34.168  1.00  0.00     0.002 A 
HETATM   29  C   UNL     1      -5.109  -4.633 -34.641  1.00  0.00     0.000 A 
HETATM   30  C   UNL     1      -6.447  -4.287 -34.829  1.00  0.00     0.002 A 
HETATM   31  C   UNL     1      -6.886  -2.989 -34.550  1.00  0.00     0.031 A 
ENDBRANCH   3  26
TORSDOF 9
ENDMDL
MODEL 10
REMARK VINA RESULT:      -7.2      3.070      7.982
REMARK  9 active torsions:
REMARK  status: ('A' for Active; 'I' for Inactive)
REMARK    1  A    between atoms: C_2  and  C_3 
REMARK    2  A    between atoms: C_3  and  O_4 
REMARK    3  A    between atoms: O_4  and  C_5 
REMARK    4  A    between atoms: C_8  and  C_9 
REMARK    5  A    between atoms: N_11  and  C_12 
REMARK    6  A    between atoms: C_19  and  C_20 
REMARK    7  A    between atoms: C_20  and  S_21 
REMARK    8  A    between atoms: S_21  and  C_22 
REMARK    9  A    between atoms: C_22  and  N_23 
ROOT
HETATM    1  C   UNL     1      -5.649   2.205 -32.623  1.00  0.00     0.096 C 
HETATM    2  N   UNL     1      -5.006   3.321 -32.988  1.00  0.00    -0.167 NA
HETATM    3  N   UNL     1      -3.704   3.129 -32.683  1.00  0.00    -0.244 N 
HETATM    4  C   UNL     1      -3.486   1.823 -32.307  1.00  0.00     0.129 C 
HETATM    5  C   UNL     1      -4.710   1.182 -32.283  1.00  0.00     0.001 C 
ENDROOT
BRANCH   1   6
HETATM    6  C   UNL     1      -7.106   2.121 -32.761  1.00  0.00    -0.005 A 
HETATM    7  C   UNL     1      -7.925   2.257 -31.629  1.00  0.00     0.016 A 
HETATM    8  C   UNL     1      -9.320   2.256 -31.745  1.00  0.00     0.037 A 
HETATM    9  C   UNL     1      -9.916   2.120 -32.995  1.00  0.00     0.068 A 
HETATM   10  C   UNL     1      -9.108   1.933 -34.119  1.00  0.00     0.037 A 
HETATM   11  C   UNL     1      -7.713   1.923 -34.004  1.00  0.00     0.016 A 
BRANCH   9  12
HETATM   12  O   UNL     1     -11.256   2.146 -33.257  1.00  0.00    -0.351 OA
BRANCH  12  13
HETATM   13  C   UNL     1     -11.858   0.935 -33.721  1.00  0.00     0.179 C 
BRANCH  13  14
HETATM   14  C   UNL     1     -12.855   1.274 -34.839  1.00  0.00     0.002 C 
HETATM   15  C   UNL     1     -12.544   2.639 -35.458  1.00  0.00     0.011 C 
HETATM   16  C   UNL     1     -14.285   1.249 -34.302  1.00  0.00     0.011 C 
ENDBRANCH  13  14
ENDBRANCH  12  13
ENDBRANCH   9  12
ENDBRANCH   1   6
BRANCH   5  17
HETATM   17  C   UNL     1      -4.933  -0.262 -31.991  1.00  0.00     0.125 C 
BRANCH  17  18
HETATM   18  S   UNL     1      -4.177  -1.366 -33.224  1.00  0.00    -0.090 SA
BRANCH  18  19
HETATM   19  C   UNL     1      -5.551  -1.960 -34.059  1.00  0.00     0.131 C 
HETATM   20  N   UNL     1      -6.730  -1.530 -33.692  1.00  0.00    -0.380 N 
HETATM   21  H   UNL     1      -6.781  -0.855 -32.936  1.00  0.00     0.158 HD
HETATM   22  H   UNL     1      -7.584  -1.806 -34.153  1.00  0.00     0.158 HD
BRANCH  19  23
HETATM   23  N   UNL     1      -5.396  -2.781 -35.066  1.00  0.00    -0.380 N 
HETATM   24  H   UNL     1      -4.491  -2.827 -35.525  1.00  0.00     0.158 HD
HETATM   25  H   UNL     1      -6.131  -3.380 -35.416  1.00  0.00     0.158 HD
ENDBRANCH  19  23
ENDBRANCH  18  19
ENDBRANCH  17  18
ENDBRANCH   5  17
BRANCH   3  26
HETATM   26  C   UNL     1      -2.749   4.168 -32.858  1.00  0.00     0.058 A 
HETATM   27  C   UNL     1      -1.931   4.539 -31.779  1.00  0.00     0.031 A 
HETATM   28  C   UNL     1      -0.997   5.567 -31.923  1.00  0.00     0.002 A 
HETATM   29  C   UNL     1      -0.871   6.228 -33.141  1.00  0.00     0.000 A 
HETATM   30  C   UNL     1      -1.674   5.862 -34.221  1.00  0.00     0.002 A 
HETATM   31  C   UNL     1      -2.611   4.833 -34.085  1.00  0.00     0.031 A 
ENDBRANCH   3  26
TORSDOF 9
ENDMDL
