MODEL 1
REMARK VINA RESULT:      -9.0      0.000      0.000
REMARK  4 active torsions:
REMARK  status: ('A' for Active; 'I' for Inactive)
REMARK    1  A    between atoms: C_4  and  C_5 
REMARK    2  A    between atoms: C_5  and  N_6 
REMARK    3  A    between atoms: C_10  and  C_11 
REMARK    4  A    between atoms: C_15  and  N_16 
ROOT
HETATM    1  N   UNL     1      -6.401  -0.587 -33.721  1.00  0.00    -0.064 N 
HETATM    2  H   UNL     1      -6.983  -1.424 -33.844  1.00  0.00     0.280 HD
HETATM    3  C   UNL     1      -6.752  -0.031 -32.363  1.00  0.00     0.263 C 
HETATM    4  C   UNL     1      -8.017   0.761 -32.346  1.00  0.00     0.008 C 
HETATM    5  C   UNL     1      -8.712   1.110 -33.443  1.00  0.00    -0.046 C 
HETATM    6  C   UNL     1      -8.243   0.696 -34.815  1.00  0.00     0.067 C 
HETATM    7  C   UNL     1      -6.748   0.377 -34.830  1.00  0.00     0.240 C 
ENDROOT
BRANCH   5   8
HETATM    8  C   UNL     1      -9.886   1.927 -33.410  1.00  0.00    -0.002 A 
HETATM    9  C   UNL     1     -11.257   1.522 -33.489  1.00  0.00     0.003 A 
HETATM   10  C   UNL     1     -12.033   2.677 -33.355  1.00  0.00     0.045 A 
HETATM   11  C   UNL     1     -11.921   0.286 -33.661  1.00  0.00     0.017 A 
HETATM   12  C   UNL     1     -13.434   2.666 -33.369  1.00  0.00     0.066 A 
HETATM   13  N   UNL     1     -11.168   3.737 -33.211  1.00  0.00    -0.364 N 
HETATM   14  C   UNL     1     -14.064   1.422 -33.530  1.00  0.00     0.105 A 
HETATM   15  C   UNL     1     -13.323   0.244 -33.679  1.00  0.00     0.037 A 
HETATM   16  H   UNL     1     -11.456   4.701 -33.089  1.00  0.00     0.165 HD
HETATM   17  C   UNL     1      -9.871   3.296 -33.235  1.00  0.00     0.101 A 
BRANCH  14  18
HETATM   18  N   UNL     1     -15.534   1.361 -33.542  1.00  0.00    -0.116 N 
HETATM   19  O   UNL     1     -16.141   1.967 -32.650  1.00  0.00    -0.532 OA
HETATM   20  O   UNL     1     -16.073   0.704 -34.444  1.00  0.00    -0.532 OA
ENDBRANCH  14  18
ENDBRANCH   5   8
BRANCH   1  21
HETATM   21  C   UNL     1      -4.962  -1.035 -33.814  1.00  0.00     0.273 C 
BRANCH  21  22
HETATM   22  C   UNL     1      -4.801  -2.524 -33.943  1.00  0.00    -0.033 A 
HETATM   23  C   UNL     1      -5.729  -3.276 -34.680  1.00  0.00     0.009 A 
HETATM   24  C   UNL     1      -5.580  -4.658 -34.801  1.00  0.00     0.001 A 
HETATM   25  C   UNL     1      -4.510  -5.302 -34.184  1.00  0.00     0.000 A 
HETATM   26  C   UNL     1      -3.585  -4.567 -33.446  1.00  0.00     0.001 A 
HETATM   27  C   UNL     1      -3.728  -3.184 -33.325  1.00  0.00     0.009 A 
ENDBRANCH  21  22
ENDBRANCH   1  21
TORSDOF 4
ENDMDL
MODEL 2
REMARK VINA RESULT:      -8.7      5.985      8.494
REMARK  4 active torsions:
REMARK  status: ('A' for Active; 'I' for Inactive)
REMARK    1  A    between atoms: C_4  and  C_5 
REMARK    2  A    between atoms: C_5  and  N_6 
REMARK    3  A    between atoms: C_10  and  C_11 
REMARK    4  A    between atoms: C_15  and  N_16 
ROOT
HETATM    1  N   UNL     1      -4.120   4.229 -31.937  1.00  0.00    -0.064 N 
HETATM    2  H   UNL     1      -3.345   4.133 -32.603  1.00  0.00     0.280 HD
HETATM    3  C   UNL     1      -4.172   2.931 -31.169  1.00  0.00     0.263 C 
HETATM    4  C   UNL     1      -4.850   1.823 -31.904  1.00  0.00     0.008 C 
HETATM    5  C   UNL     1      -5.512   1.973 -33.065  1.00  0.00    -0.046 C 
HETATM    6  C   UNL     1      -5.603   3.324 -33.730  1.00  0.00     0.067 C 
HETATM    7  C   UNL     1      -5.381   4.462 -32.734  1.00  0.00     0.240 C 
ENDROOT
BRANCH   5   8
HETATM    8  C   UNL     1      -6.213   0.911 -33.719  1.00  0.00    -0.002 A 
HETATM    9  C   UNL     1      -5.809  -0.452 -33.887  1.00  0.00     0.003 A 
HETATM   10  C   UNL     1      -6.856  -1.110 -34.540  1.00  0.00     0.045 A 
HETATM   11  C   UNL     1      -4.658  -1.198 -33.549  1.00  0.00     0.017 A 
HETATM   12  C   UNL     1      -6.823  -2.474 -34.862  1.00  0.00     0.066 A 
HETATM   13  N   UNL     1      -7.846  -0.181 -34.767  1.00  0.00    -0.364 N 
HETATM   14  C   UNL     1      -5.671  -3.190 -34.504  1.00  0.00     0.105 A 
HETATM   15  C   UNL     1      -4.597  -2.565 -33.859  1.00  0.00     0.037 A 
HETATM   16  H   UNL     1      -8.728  -0.382 -35.223  1.00  0.00     0.165 HD
HETATM   17  C   UNL     1      -7.472   1.039 -34.269  1.00  0.00     0.101 A 
BRANCH  14  18
HETATM   18  N   UNL     1      -5.595  -4.625 -34.814  1.00  0.00    -0.116 N 
HETATM   19  O   UNL     1      -4.749  -5.299 -34.212  1.00  0.00    -0.532 OA
HETATM   20  O   UNL     1      -6.382  -5.071 -35.661  1.00  0.00    -0.532 OA
ENDBRANCH  14  18
ENDBRANCH   5   8
BRANCH   1  21
HETATM   21  C   UNL     1      -3.799   5.415 -31.059  1.00  0.00     0.273 C 
BRANCH  21  22
HETATM   22  C   UNL     1      -2.334   5.751 -31.010  1.00  0.00    -0.033 A 
HETATM   23  C   UNL     1      -1.429   5.097 -31.860  1.00  0.00     0.009 A 
HETATM   24  C   UNL     1      -0.070   5.409 -31.816  1.00  0.00     0.001 A 
HETATM   25  C   UNL     1       0.398   6.369 -30.921  1.00  0.00     0.000 A 
HETATM   26  C   UNL     1      -0.490   7.020 -30.069  1.00  0.00     0.001 A 
HETATM   27  C   UNL     1      -1.851   6.715 -30.112  1.00  0.00     0.009 A 
ENDBRANCH  21  22
ENDBRANCH   1  21
TORSDOF 4
ENDMDL
MODEL 3
REMARK VINA RESULT:      -8.6      4.049      8.758
REMARK  4 active torsions:
REMARK  status: ('A' for Active; 'I' for Inactive)
REMARK    1  A    between atoms: C_4  and  C_5 
REMARK    2  A    between atoms: C_5  and  N_6 
REMARK    3  A    between atoms: C_10  and  C_11 
REMARK    4  A    between atoms: C_15  and  N_16 
ROOT
HETATM    1  N   UNL     1     -10.303   2.566 -33.957  1.00  0.00    -0.064 N 
HETATM    2  H   UNL     1     -10.474   2.066 -34.836  1.00  0.00     0.280 HD
HETATM    3  C   UNL     1      -9.030   3.350 -34.164  1.00  0.00     0.263 C 
HETATM    4  C   UNL     1      -7.790   2.532 -34.019  1.00  0.00     0.008 C 
HETATM    5  C   UNL     1      -7.764   1.260 -33.581  1.00  0.00    -0.046 C 
HETATM    6  C   UNL     1      -9.040   0.549 -33.204  1.00  0.00     0.067 C 
HETATM    7  C   UNL     1     -10.158   1.535 -32.864  1.00  0.00     0.240 C 
ENDROOT
BRANCH   5   8
HETATM    8  C   UNL     1      -6.558   0.516 -33.386  1.00  0.00    -0.002 A 
HETATM    9  C   UNL     1      -6.282  -0.844 -33.741  1.00  0.00     0.003 A 
HETATM   10  C   UNL     1      -4.950  -1.093 -33.398  1.00  0.00     0.045 A 
HETATM   11  C   UNL     1      -7.031  -1.892 -34.323  1.00  0.00     0.017 A 
HETATM   12  C   UNL     1      -4.320  -2.326 -33.615  1.00  0.00     0.066 A 
HETATM   13  N   UNL     1      -4.445   0.062 -32.848  1.00  0.00    -0.364 N 
HETATM   14  C   UNL     1      -5.087  -3.343 -34.205  1.00  0.00     0.105 A 
HETATM   15  C   UNL     1      -6.426  -3.137 -34.553  1.00  0.00     0.037 A 
HETATM   16  H   UNL     1      -3.495   0.171 -32.513  1.00  0.00     0.165 HD
HETATM   17  C   UNL     1      -5.403   1.041 -32.843  1.00  0.00     0.101 A 
BRANCH  14  18
HETATM   18  N   UNL     1      -4.464  -4.651 -34.460  1.00  0.00    -0.116 N 
HETATM   19  O   UNL     1      -3.262  -4.777 -34.192  1.00  0.00    -0.532 OA
HETATM   20  O   UNL     1      -5.181  -5.546 -34.930  1.00  0.00    -0.532 OA
ENDBRANCH  14  18
ENDBRANCH   5   8
BRANCH   1  21
HETATM   21  C   UNL     1     -11.502   3.454 -33.717  1.00  0.00     0.273 C 
BRANCH  21  22
HETATM   22  C   UNL     1     -12.796   2.699 -33.598  1.00  0.00    -0.033 A 
HETATM   23  C   UNL     1     -13.659   2.937 -32.517  1.00  0.00     0.009 A 
HETATM   24  C   UNL     1     -14.861   2.237 -32.406  1.00  0.00     0.001 A 
HETATM   25  C   UNL     1     -15.209   1.291 -33.368  1.00  0.00     0.000 A 
HETATM   26  C   UNL     1     -14.359   1.042 -34.442  1.00  0.00     0.001 A 
HETATM   27  C   UNL     1     -13.158   1.742 -34.559  1.00  0.00     0.009 A 
ENDBRANCH  21  22
ENDBRANCH   1  21
TORSDOF 4
ENDMDL
MODEL 4
REMARK VINA RESULT:      -8.5      6.235      7.928
REMARK  4 active torsions:
REMARK  status: ('A' for Active; 'I' for Inactive)
REMARK    1  A    between atoms: C_4  and  C_5 
REMARK    2  A    between atoms: C_5  and  N_6 
REMARK    3  A    between atoms: C_10  and  C_11 
REMARK    4  A    between atoms: C_15  and  N_16 
ROOT
HETATM    1  N   UNL     1      -6.453  -0.167 -33.953  1.00  0.00    -0.064 N 
HETATM    2  H   UNL     1      -5.459  -0.330 -34.150  1.00  0.00     0.280 HD
HETATM    3  C   UNL     1      -6.852   1.030 -34.780  1.00  0.00     0.263 C 
HETATM    4  C   UNL     1      -6.449   2.337 -34.181  1.00  0.00     0.008 C 
HETATM    5  C   UNL     1      -5.932   2.482 -32.948  1.00  0.00    -0.046 C 
HETATM    6  C   UNL     1      -5.708   1.282 -32.061  1.00  0.00     0.067 C 
HETATM    7  C   UNL     1      -6.587   0.101 -32.473  1.00  0.00     0.240 C 
ENDROOT
BRANCH   5   8
HETATM    8  C   UNL     1      -5.615   3.750 -32.367  1.00  0.00    -0.002 A 
HETATM    9  C   UNL     1      -4.408   4.511 -32.493  1.00  0.00     0.003 A 
HETATM   10  C   UNL     1      -4.603   5.704 -31.790  1.00  0.00     0.045 A 
HETATM   11  C   UNL     1      -3.166   4.308 -33.134  1.00  0.00     0.017 A 
HETATM   12  C   UNL     1      -3.632   6.711 -31.703  1.00  0.00     0.066 A 
HETATM   13  N   UNL     1      -5.870   5.661 -31.253  1.00  0.00    -0.364 N 
HETATM   14  C   UNL     1      -2.413   6.484 -32.360  1.00  0.00     0.105 A 
HETATM   15  C   UNL     1      -2.175   5.299 -33.065  1.00  0.00     0.037 A 
HETATM   16  H   UNL     1      -6.282   6.400 -30.696  1.00  0.00     0.165 HD
HETATM   17  C   UNL     1      -6.491   4.491 -31.602  1.00  0.00     0.101 A 
BRANCH  14  18
HETATM   18  N   UNL     1      -1.368   7.517 -32.304  1.00  0.00    -0.116 N 
HETATM   19  O   UNL     1      -1.681   8.670 -32.633  1.00  0.00    -0.532 OA
HETATM   20  O   UNL     1      -0.237   7.170 -31.934  1.00  0.00    -0.532 OA
ENDBRANCH  14  18
ENDBRANCH   5   8
BRANCH   1  21
HETATM   21  C   UNL     1      -7.190  -1.424 -34.351  1.00  0.00     0.273 C 
BRANCH  21  22
HETATM   22  C   UNL     1      -6.310  -2.639 -34.432  1.00  0.00    -0.033 A 
HETATM   23  C   UNL     1      -6.827  -3.860 -34.890  1.00  0.00     0.009 A 
HETATM   24  C   UNL     1      -6.010  -4.989 -34.967  1.00  0.00     0.001 A 
HETATM   25  C   UNL     1      -4.673  -4.910 -34.583  1.00  0.00     0.000 A 
HETATM   26  C   UNL     1      -4.149  -3.705 -34.122  1.00  0.00     0.001 A 
HETATM   27  C   UNL     1      -4.962  -2.573 -34.047  1.00  0.00     0.009 A 
ENDBRANCH  21  22
ENDBRANCH   1  21
TORSDOF 4
ENDMDL
MODEL 5
REMARK VINA RESULT:      -8.3      5.846      9.123
REMARK  4 active torsions:
REMARK  status: ('A' for Active; 'I' for Inactive)
REMARK    1  A    between atoms: C_4  and  C_5 
REMARK    2  A    between atoms: C_5  and  N_6 
REMARK    3  A    between atoms: C_10  and  C_11 
REMARK    4  A    between atoms: C_15  and  N_16 
ROOT
HETATM    1  N   UNL     1      -8.917   0.935 -32.870  1.00  0.00    -0.064 N 
HETATM    2  H   UNL     1      -9.123   1.690 -33.534  1.00  0.00     0.280 HD
HETATM    3  C   UNL     1      -8.687   1.602 -31.537  1.00  0.00     0.263 C 
HETATM    4  C   UNL     1      -7.325   2.196 -31.388  1.00  0.00     0.008 C 
HETATM    5  C   UNL     1      -6.321   2.025 -32.266  1.00  0.00    -0.046 C 
HETATM    6  C   UNL     1      -6.519   1.197 -33.511  1.00  0.00     0.067 C 
HETATM    7  C   UNL     1      -7.683   0.217 -33.361  1.00  0.00     0.240 C 
ENDROOT
BRANCH   5   8
HETATM    8  C   UNL     1      -5.003   2.546 -32.071  1.00  0.00    -0.002 A 
HETATM    9  C   UNL     1      -4.337   3.581 -32.804  1.00  0.00     0.003 A 
HETATM   10  C   UNL     1      -3.090   3.771 -32.200  1.00  0.00     0.045 A 
HETATM   11  C   UNL     1      -4.667   4.379 -33.923  1.00  0.00     0.017 A 
HETATM   12  C   UNL     1      -2.161   4.723 -32.642  1.00  0.00     0.066 A 
HETATM   13  N   UNL     1      -3.002   2.882 -31.154  1.00  0.00    -0.364 N 
HETATM   14  C   UNL     1      -2.522   5.507 -33.748  1.00  0.00     0.105 A 
HETATM   15  C   UNL     1      -3.756   5.340 -34.387  1.00  0.00     0.037 A 
HETATM   16  H   UNL     1      -2.204   2.802 -30.534  1.00  0.00     0.165 HD
HETATM   17  C   UNL     1      -4.152   2.144 -31.062  1.00  0.00     0.101 A 
BRANCH  14  18
HETATM   18  N   UNL     1      -1.582   6.525 -34.241  1.00  0.00    -0.116 N 
HETATM   19  O   UNL     1      -1.788   7.702 -33.917  1.00  0.00    -0.532 OA
HETATM   20  O   UNL     1      -0.643   6.141 -34.953  1.00  0.00    -0.532 OA
ENDBRANCH  14  18
ENDBRANCH   5   8
BRANCH   1  21
HETATM   21  C   UNL     1     -10.118   0.018 -32.864  1.00  0.00     0.273 C 
BRANCH  21  22
HETATM   22  C   UNL     1     -11.308   0.578 -33.591  1.00  0.00    -0.033 A 
HETATM   23  C   UNL     1     -11.185   1.746 -34.358  1.00  0.00     0.009 A 
HETATM   24  C   UNL     1     -12.290   2.266 -35.033  1.00  0.00     0.001 A 
HETATM   25  C   UNL     1     -13.526   1.630 -34.944  1.00  0.00     0.000 A 
HETATM   26  C   UNL     1     -13.662   0.473 -34.182  1.00  0.00     0.001 A 
HETATM   27  C   UNL     1     -12.559  -0.053 -33.508  1.00  0.00     0.009 A 
ENDBRANCH  21  22
ENDBRANCH   1  21
TORSDOF 4
ENDMDL
MODEL 6
REMARK VINA RESULT:      -8.0      7.421      9.091
REMARK  4 active torsions:
REMARK  status: ('A' for Active; 'I' for Inactive)
REMARK    1  A    between atoms: C_4  and  C_5 
REMARK    2  A    between atoms: C_5  and  N_6 
REMARK    3  A    between atoms: C_10  and  C_11 
REMARK    4  A    between atoms: C_15  and  N_16 
ROOT
HETATM    1  N   UNL     1      -5.354   1.538 -33.107  1.00  0.00    -0.064 N 
HETATM    2  H   UNL     1      -4.760   1.181 -33.863  1.00  0.00     0.280 HD
HETATM    3  C   UNL     1      -6.117   2.702 -33.689  1.00  0.00     0.263 C 
HETATM    4  C   UNL     1      -5.326   3.966 -33.757  1.00  0.00     0.008 C 
HETATM    5  C   UNL     1      -4.110   4.133 -33.207  1.00  0.00    -0.046 C 
HETATM    6  C   UNL     1      -3.438   3.004 -32.467  1.00  0.00     0.067 C 
HETATM    7  C   UNL     1      -4.449   1.967 -31.977  1.00  0.00     0.240 C 
ENDROOT
BRANCH   5   8
HETATM    8  C   UNL     1      -3.398   5.374 -33.225  1.00  0.00    -0.002 A 
HETATM    9  C   UNL     1      -3.204   6.306 -32.156  1.00  0.00     0.003 A 
HETATM   10  C   UNL     1      -2.393   7.332 -32.650  1.00  0.00     0.045 A 
HETATM   11  C   UNL     1      -3.637   6.384 -30.813  1.00  0.00     0.017 A 
HETATM   12  C   UNL     1      -1.978   8.424 -31.875  1.00  0.00     0.066 A 
HETATM   13  N   UNL     1      -2.116   7.038 -33.966  1.00  0.00    -0.364 N 
HETATM   14  C   UNL     1      -2.415   8.467 -30.542  1.00  0.00     0.105 A 
HETATM   15  C   UNL     1      -3.237   7.465 -30.013  1.00  0.00     0.037 A 
HETATM   16  H   UNL     1      -1.542   7.610 -34.574  1.00  0.00     0.165 HD
HETATM   17  C   UNL     1      -2.710   5.856 -34.321  1.00  0.00     0.101 A 
BRANCH  14  18
HETATM   18  N   UNL     1      -1.998   9.589 -29.689  1.00  0.00    -0.116 N 
HETATM   19  O   UNL     1      -1.277   9.333 -28.715  1.00  0.00    -0.532 OA
HETATM   20  O   UNL     1      -2.395  10.722 -29.995  1.00  0.00    -0.532 OA
ENDBRANCH  14  18
ENDBRANCH   5   8
BRANCH   1  21
HETATM   21  C   UNL     1      -6.256   0.402 -32.684  1.00  0.00     0.273 C 
BRANCH  21  22
HETATM   22  C   UNL     1      -5.986  -0.885 -33.413  1.00  0.00    -0.033 A 
HETATM   23  C   UNL     1      -7.043  -1.614 -33.979  1.00  0.00     0.009 A 
HETATM   24  C   UNL     1      -6.793  -2.808 -34.656  1.00  0.00     0.001 A 
HETATM   25  C   UNL     1      -5.490  -3.288 -34.769  1.00  0.00     0.000 A 
HETATM   26  C   UNL     1      -4.434  -2.575 -34.208  1.00  0.00     0.001 A 
HETATM   27  C   UNL     1      -4.678  -1.378 -33.532  1.00  0.00     0.009 A 
ENDBRANCH  21  22
ENDBRANCH   1  21
TORSDOF 4
ENDMDL
MODEL 7
REMARK VINA RESULT:      -7.9      6.854      8.095
REMARK  4 active torsions:
REMARK  status: ('A' for Active; 'I' for Inactive)
REMARK    1  A    between atoms: C_4  and  C_5 
REMARK    2  A    between atoms: C_5  and  N_6 
REMARK    3  A    between atoms: C_10  and  C_11 
REMARK    4  A    between atoms: C_15  and  N_16 
ROOT
HETATM    1  N   UNL     1      -4.208  -0.991 -32.617  1.00  0.00    -0.064 N 
HETATM    2  H   UNL     1      -4.768  -0.736 -33.438  1.00  0.00     0.280 HD
HETATM    3  C   UNL     1      -5.088  -0.742 -31.417  1.00  0.00     0.263 C 
HETATM    4  C   UNL     1      -5.158   0.692 -31.010  1.00  0.00     0.008 C 
HETATM    5  C   UNL     1      -4.393   1.669 -31.529  1.00  0.00    -0.046 C 
HETATM    6  C   UNL     1      -3.384   1.366 -32.608  1.00  0.00     0.067 C 
HETATM    7  C   UNL     1      -2.982  -0.109 -32.609  1.00  0.00     0.240 C 
ENDROOT
BRANCH   5   8
HETATM    8  C   UNL     1      -4.428   3.026 -31.076  1.00  0.00    -0.002 A 
HETATM    9  C   UNL     1      -3.734   4.161 -31.607  1.00  0.00     0.003 A 
HETATM   10  C   UNL     1      -4.138   5.272 -30.861  1.00  0.00     0.045 A 
HETATM   11  C   UNL     1      -2.800   4.358 -32.649  1.00  0.00     0.017 A 
HETATM   12  C   UNL     1      -3.673   6.571 -31.106  1.00  0.00     0.066 A 
HETATM   13  N   UNL     1      -5.031   4.827 -29.913  1.00  0.00    -0.364 N 
HETATM   14  C   UNL     1      -2.755   6.736 -32.154  1.00  0.00     0.105 A 
HETATM   15  C   UNL     1      -2.317   5.648 -32.917  1.00  0.00     0.037 A 
HETATM   16  H   UNL     1      -5.491   5.421 -29.234  1.00  0.00     0.165 HD
HETATM   17  C   UNL     1      -5.219   3.476 -30.039  1.00  0.00     0.101 A 
BRANCH  14  18
HETATM   18  N   UNL     1      -2.246   8.083 -32.454  1.00  0.00    -0.116 N 
HETATM   19  O   UNL     1      -2.502   8.987 -31.647  1.00  0.00    -0.532 OA
HETATM   20  O   UNL     1      -1.594   8.232 -33.497  1.00  0.00    -0.532 OA
ENDBRANCH  14  18
ENDBRANCH   5   8
BRANCH   1  21
HETATM   21  C   UNL     1      -3.835  -2.446 -32.776  1.00  0.00     0.273 C 
BRANCH  21  22
HETATM   22  C   UNL     1      -4.732  -3.199 -33.717  1.00  0.00    -0.033 A 
HETATM   23  C   UNL     1      -4.433  -4.522 -34.075  1.00  0.00     0.009 A 
HETATM   24  C   UNL     1      -5.267  -5.222 -34.948  1.00  0.00     0.001 A 
HETATM   25  C   UNL     1      -6.401  -4.608 -35.475  1.00  0.00     0.000 A 
HETATM   26  C   UNL     1      -6.705  -3.293 -35.131  1.00  0.00     0.001 A 
HETATM   27  C   UNL     1      -5.876  -2.590 -34.255  1.00  0.00     0.009 A 
ENDBRANCH  21  22
ENDBRANCH   1  21
TORSDOF 4
ENDMDL
MODEL 8
REMARK VINA RESULT:      -7.9      6.186      8.033
REMARK  4 active torsions:
REMARK  status: ('A' for Active; 'I' for Inactive)
REMARK    1  A    between atoms: C_4  and  C_5 
REMARK    2  A    between atoms: C_5  and  N_6 
REMARK    3  A    between atoms: C_10  and  C_11 
REMARK    4  A    between atoms: C_15  and  N_16 
ROOT
HETATM    1  N   UNL     1      -7.339  -0.011 -33.405  1.00  0.00    -0.064 N 
HETATM    2  H   UNL     1      -8.226   0.345 -33.032  1.00  0.00     0.280 HD
HETATM    3  C   UNL     1      -6.494  -0.364 -32.207  1.00  0.00     0.263 C 
HETATM    4  C   UNL     1      -5.833   0.812 -31.569  1.00  0.00     0.008 C 
HETATM    5  C   UNL     1      -5.829   2.054 -32.083  1.00  0.00    -0.046 C 
HETATM    6  C   UNL     1      -6.532   2.351 -33.385  1.00  0.00     0.067 C 
HETATM    7  C   UNL     1      -6.716   1.090 -34.229  1.00  0.00     0.240 C 
ENDROOT
BRANCH   5   8
HETATM    8  C   UNL     1      -5.132   3.154 -31.490  1.00  0.00    -0.002 A 
HETATM    9  C   UNL     1      -4.120   3.985 -32.071  1.00  0.00     0.003 A 
HETATM   10  C   UNL     1      -3.792   4.954 -31.118  1.00  0.00     0.045 A 
HETATM   11  C   UNL     1      -3.447   4.013 -33.313  1.00  0.00     0.017 A 
HETATM   12  C   UNL     1      -2.840   5.959 -31.341  1.00  0.00     0.066 A 
HETATM   13  N   UNL     1      -4.565   4.714 -30.005  1.00  0.00    -0.364 N 
HETATM   14  C   UNL     1      -2.197   5.967 -32.589  1.00  0.00     0.105 A 
HETATM   15  C   UNL     1      -2.489   5.007 -33.565  1.00  0.00     0.037 A 
HETATM   16  H   UNL     1      -4.540   5.268 -29.158  1.00  0.00     0.165 HD
HETATM   17  C   UNL     1      -5.382   3.635 -30.222  1.00  0.00     0.101 A 
BRANCH  14  18
HETATM   18  N   UNL     1      -1.197   7.007 -32.871  1.00  0.00    -0.116 N 
HETATM   19  O   UNL     1      -0.183   7.038 -32.160  1.00  0.00    -0.532 OA
HETATM   20  O   UNL     1      -1.432   7.791 -33.801  1.00  0.00    -0.532 OA
ENDBRANCH  14  18
ENDBRANCH   5   8
BRANCH   1  21
HETATM   21  C   UNL     1      -7.673  -1.212 -34.259  1.00  0.00     0.273 C 
BRANCH  21  22
HETATM   22  C   UNL     1      -6.565  -2.226 -34.332  1.00  0.00    -0.033 A 
HETATM   23  C   UNL     1      -5.232  -1.834 -34.139  1.00  0.00     0.009 A 
HETATM   24  C   UNL     1      -4.204  -2.775 -34.206  1.00  0.00     0.001 A 
HETATM   25  C   UNL     1      -4.495  -4.111 -34.472  1.00  0.00     0.000 A 
HETATM   26  C   UNL     1      -5.814  -4.511 -34.671  1.00  0.00     0.001 A 
HETATM   27  C   UNL     1      -6.847  -3.574 -34.601  1.00  0.00     0.009 A 
ENDBRANCH  21  22
ENDBRANCH   1  21
TORSDOF 4
ENDMDL
MODEL 9
REMARK VINA RESULT:      -7.9      2.009      2.874
REMARK  4 active torsions:
REMARK  status: ('A' for Active; 'I' for Inactive)
REMARK    1  A    between atoms: C_4  and  C_5 
REMARK    2  A    between atoms: C_5  and  N_6 
REMARK    3  A    between atoms: C_10  and  C_11 
REMARK    4  A    between atoms: C_15  and  N_16 
ROOT
HETATM    1  N   UNL     1      -6.366  -0.419 -33.434  1.00  0.00    -0.064 N 
HETATM    2  H   UNL     1      -6.720  -1.369 -33.591  1.00  0.00     0.280 HD
HETATM    3  C   UNL     1      -6.902   0.009 -32.090  1.00  0.00     0.263 C 
HETATM    4  C   UNL     1      -8.321   0.470 -32.128  1.00  0.00     0.008 C 
HETATM    5  C   UNL     1      -9.030   0.661 -33.254  1.00  0.00    -0.046 C 
HETATM    6  C   UNL     1      -8.413   0.399 -34.606  1.00  0.00     0.067 C 
HETATM    7  C   UNL     1      -6.886   0.453 -34.551  1.00  0.00     0.240 C 
ENDROOT
BRANCH   5   8
HETATM    8  C   UNL     1     -10.368   1.168 -33.271  1.00  0.00    -0.002 A 
HETATM    9  C   UNL     1     -10.805   2.530 -33.209  1.00  0.00     0.003 A 
HETATM   10  C   UNL     1     -12.199   2.517 -33.316  1.00  0.00     0.045 A 
HETATM   11  C   UNL     1     -10.157   3.779 -33.072  1.00  0.00     0.017 A 
HETATM   12  C   UNL     1     -12.981   3.680 -33.309  1.00  0.00     0.066 A 
HETATM   13  N   UNL     1     -12.589   1.202 -33.428  1.00  0.00    -0.364 N 
HETATM   14  C   UNL     1     -12.307   4.905 -33.183  1.00  0.00     0.105 A 
HETATM   15  C   UNL     1     -10.914   4.960 -33.062  1.00  0.00     0.037 A 
HETATM   16  H   UNL     1     -13.549   0.894 -33.525  1.00  0.00     0.165 HD
HETATM   17  C   UNL     1     -11.492   0.381 -33.410  1.00  0.00     0.101 A 
BRANCH  14  18
HETATM   18  N   UNL     1     -13.085   6.152 -33.179  1.00  0.00    -0.116 N 
HETATM   19  O   UNL     1     -14.102   6.197 -33.886  1.00  0.00    -0.532 OA
HETATM   20  O   UNL     1     -12.675   7.083 -32.471  1.00  0.00    -0.532 OA
ENDBRANCH  14  18
ENDBRANCH   5   8
BRANCH   1  21
HETATM   21  C   UNL     1      -4.858  -0.503 -33.462  1.00  0.00     0.273 C 
BRANCH  21  22
HETATM   22  C   UNL     1      -4.329  -1.903 -33.321  1.00  0.00    -0.033 A 
HETATM   23  C   UNL     1      -4.621  -2.872 -34.293  1.00  0.00     0.009 A 
HETATM   24  C   UNL     1      -4.130  -4.172 -34.164  1.00  0.00     0.001 A 
HETATM   25  C   UNL     1      -3.350  -4.517 -33.062  1.00  0.00     0.000 A 
HETATM   26  C   UNL     1      -3.058  -3.566 -32.088  1.00  0.00     0.001 A 
HETATM   27  C   UNL     1      -3.544  -2.263 -32.215  1.00  0.00     0.009 A 
ENDBRANCH  21  22
ENDBRANCH   1  21
TORSDOF 4
ENDMDL
MODEL 10
REMARK VINA RESULT:      -7.8      1.974      3.230
REMARK  4 active torsions:
REMARK  status: ('A' for Active; 'I' for Inactive)
REMARK    1  A    between atoms: C_4  and  C_5 
REMARK    2  A    between atoms: C_5  and  N_6 
REMARK    3  A    between atoms: C_10  and  C_11 
REMARK    4  A    between atoms: C_15  and  N_16 
ROOT
HETATM    1  N   UNL     1      -8.344   0.816 -34.105  1.00  0.00    -0.064 N 
HETATM    2  H   UNL     1      -8.470   0.311 -34.989  1.00  0.00     0.280 HD
HETATM    3  C   UNL     1      -8.937  -0.064 -33.032  1.00  0.00     0.263 C 
HETATM    4  C   UNL     1     -10.424   0.013 -32.944  1.00  0.00     0.008 C 
HETATM    5  C   UNL     1     -11.182   0.895 -33.620  1.00  0.00    -0.046 C 
HETATM    6  C   UNL     1     -10.550   1.895 -34.556  1.00  0.00     0.067 C 
HETATM    7  C   UNL     1      -9.077   2.131 -34.222  1.00  0.00     0.240 C 
ENDROOT
BRANCH   5   8
HETATM    8  C   UNL     1     -12.601   0.997 -33.470  1.00  0.00    -0.002 A 
HETATM    9  C   UNL     1     -13.365   2.081 -32.929  1.00  0.00     0.003 A 
HETATM   10  C   UNL     1     -14.713   1.732 -33.051  1.00  0.00     0.045 A 
HETATM   11  C   UNL     1     -13.047   3.329 -32.346  1.00  0.00     0.017 A 
HETATM   12  C   UNL     1     -15.762   2.564 -32.637  1.00  0.00     0.066 A 
HETATM   13  N   UNL     1     -14.763   0.485 -33.632  1.00  0.00    -0.364 N 
HETATM   14  C   UNL     1     -15.414   3.801 -32.072  1.00  0.00     0.105 A 
HETATM   15  C   UNL     1     -14.076   4.183 -31.922  1.00  0.00     0.037 A 
HETATM   16  H   UNL     1     -15.617  -0.015 -33.845  1.00  0.00     0.165 HD
HETATM   17  C   UNL     1     -13.495   0.037 -33.896  1.00  0.00     0.101 A 
BRANCH  14  18
HETATM   18  N   UNL     1     -16.482   4.711 -31.630  1.00  0.00    -0.116 N 
HETATM   19  O   UNL     1     -16.183   5.597 -30.818  1.00  0.00    -0.532 OA
HETATM   20  O   UNL     1     -17.616   4.534 -32.097  1.00  0.00    -0.532 OA
ENDBRANCH  14  18
ENDBRANCH   5   8
BRANCH   1  21
HETATM   21  C   UNL     1      -6.859   1.031 -33.930  1.00  0.00     0.273 C 
BRANCH  21  22
HETATM   22  C   UNL     1      -6.054  -0.236 -34.006  1.00  0.00    -0.033 A 
HETATM   23  C   UNL     1      -6.418  -1.255 -34.899  1.00  0.00     0.009 A 
HETATM   24  C   UNL     1      -5.670  -2.431 -34.970  1.00  0.00     0.001 A 
HETATM   25  C   UNL     1      -4.559  -2.603 -34.148  1.00  0.00     0.000 A 
HETATM   26  C   UNL     1      -4.190  -1.601 -33.254  1.00  0.00     0.001 A 
HETATM   27  C   UNL     1      -4.933  -0.421 -33.182  1.00  0.00     0.009 A 
ENDBRANCH  21  22
ENDBRANCH   1  21
TORSDOF 4
ENDMDL
