MODEL 1
REMARK VINA RESULT:      -8.9      0.000      0.000
REMARK  6 active torsions:
REMARK  status: ('A' for Active; 'I' for Inactive)
REMARK    1  A    between atoms: O_2  and  C_3 
REMARK    2  A    between atoms: C_6  and  C_7 
REMARK    3  A    between atoms: C_11  and  C_12 
REMARK       I    between atoms: C_12  and  N_13 
REMARK    4  A    between atoms: N_13  and  N_14 
REMARK       I    between atoms: N_14  and  C_15 
REMARK    5  A    between atoms: C_15  and  C_16 
REMARK    6  A    between atoms: C_17  and  C_18 
ROOT
HETATM    1  C   UNL     1      -3.502   3.803 -31.278  1.00  0.00     0.288 C 
HETATM    2  N   UNL     1      -4.287   4.686 -30.571  1.00  0.00    -0.262 N 
HETATM    3  O   UNL     1      -2.274   3.884 -31.291  1.00  0.00    -0.264 OA
HETATM    4  H   UNL     1      -5.303   4.692 -30.608  1.00  0.00     0.190 HD
ENDROOT
BRANCH   1   5
HETATM    5  C   UNL     1      -4.217   2.785 -31.998  1.00  0.00     0.121 A 
HETATM    6  N   UNL     1      -5.404   3.041 -32.623  1.00  0.00    -0.272 N 
HETATM    7  N   UNL     1      -5.930   1.986 -33.262  1.00  0.00    -0.174 NA
HETATM    8  H   UNL     1      -5.900   3.928 -32.650  1.00  0.00     0.189 HD
HETATM    9  C   UNL     1      -5.068   0.983 -33.029  1.00  0.00     0.089 A 
HETATM   10  C   UNL     1      -3.975   1.448 -32.244  1.00  0.00     0.071 A 
BRANCH   9  11
HETATM   11  C   UNL     1      -5.288  -0.366 -33.560  1.00  0.00    -0.005 A 
HETATM   12  C   UNL     1      -6.504  -0.701 -34.172  1.00  0.00     0.016 A 
HETATM   13  C   UNL     1      -6.716  -1.979 -34.706  1.00  0.00     0.037 A 
HETATM   14  C   UNL     1      -5.714  -2.944 -34.632  1.00  0.00     0.068 A 
HETATM   15  C   UNL     1      -4.507  -2.624 -34.007  1.00  0.00     0.037 A 
HETATM   16  C   UNL     1      -4.292  -1.347 -33.477  1.00  0.00     0.016 A 
BRANCH  14  17
HETATM   17  O   UNL     1      -5.786  -4.221 -35.116  1.00  0.00    -0.356 OA
HETATM   18  C   UNL     1      -4.944  -5.187 -34.499  1.00  0.00     0.210 C 
ENDBRANCH  14  17
ENDBRANCH   9  11
ENDBRANCH   1   5
BRANCH   2  19
HETATM   19  N   UNL     1      -3.689   5.789 -29.955  1.00  0.00    -0.267 N 
HETATM   20  C   UNL     1      -3.737   7.002 -30.604  1.00  0.00     0.240 C 
HETATM   21  O   UNL     1      -4.296   7.146 -31.688  1.00  0.00    -0.271 OA
HETATM   22  H   UNL     1      -3.251   5.636 -29.051  1.00  0.00     0.190 HD
BRANCH  20  23
HETATM   23  C   UNL     1      -3.046   8.158 -29.972  1.00  0.00     0.089 A 
HETATM   24  C   UNL     1      -1.562   8.207 -29.651  1.00  0.00     0.034 A 
HETATM   25  C   UNL     1      -2.138   9.082 -30.740  1.00  0.00     0.025 A 
BRANCH  24  26
HETATM   26  C   UNL     1      -0.623   7.058 -29.963  1.00  0.00    -0.031 A 
HETATM   27  C   UNL     1      -0.135   6.184 -28.969  1.00  0.00     0.040 A 
HETATM   28 CL   UNL     1      -0.584   6.387 -27.311  1.00  0.00    -0.084 Cl
HETATM   29  C   UNL     1       0.736   5.134 -29.279  1.00  0.00     0.024 A 
HETATM   30  C   UNL     1       1.153   4.937 -30.592  1.00  0.00     0.002 A 
HETATM   31  C   UNL     1       0.708   5.795 -31.591  1.00  0.00     0.001 A 
HETATM   32  C   UNL     1      -0.160   6.845 -31.277  1.00  0.00     0.009 A 
ENDBRANCH  24  26
ENDBRANCH  20  23
ENDBRANCH   2  19
TORSDOF 6
ENDMDL
MODEL 2
REMARK VINA RESULT:      -8.7      1.977      2.437
REMARK  6 active torsions:
REMARK  status: ('A' for Active; 'I' for Inactive)
REMARK    1  A    between atoms: O_2  and  C_3 
REMARK    2  A    between atoms: C_6  and  C_7 
REMARK    3  A    between atoms: C_11  and  C_12 
REMARK       I    between atoms: C_12  and  N_13 
REMARK    4  A    between atoms: N_13  and  N_14 
REMARK       I    between atoms: N_14  and  C_15 
REMARK    5  A    between atoms: C_15  and  C_16 
REMARK    6  A    between atoms: C_17  and  C_18 
ROOT
HETATM    1  C   UNL     1      -6.195   3.854 -29.818  1.00  0.00     0.288 C 
HETATM    2  N   UNL     1      -4.980   4.380 -29.439  1.00  0.00    -0.262 N 
HETATM    3  O   UNL     1      -7.242   4.491 -29.723  1.00  0.00    -0.264 OA
HETATM    4  H   UNL     1      -4.113   3.849 -29.430  1.00  0.00     0.190 HD
ENDROOT
BRANCH   1   5
HETATM    5  C   UNL     1      -6.150   2.511 -30.329  1.00  0.00     0.121 A 
HETATM    6  N   UNL     1      -6.346   1.425 -29.525  1.00  0.00    -0.272 N 
HETATM    7  N   UNL     1      -6.287   0.247 -30.164  1.00  0.00    -0.174 NA
HETATM    8  H   UNL     1      -6.532   1.432 -28.525  1.00  0.00     0.189 HD
HETATM    9  C   UNL     1      -6.015   0.566 -31.439  1.00  0.00     0.089 A 
HETATM   10  C   UNL     1      -5.927   1.980 -31.584  1.00  0.00     0.071 A 
BRANCH   9  11
HETATM   11  C   UNL     1      -5.861  -0.458 -32.477  1.00  0.00    -0.005 A 
HETATM   12  C   UNL     1      -4.624  -1.083 -32.683  1.00  0.00     0.016 A 
HETATM   13  C   UNL     1      -4.471  -2.082 -33.654  1.00  0.00     0.037 A 
HETATM   14  C   UNL     1      -5.556  -2.468 -34.438  1.00  0.00     0.068 A 
HETATM   15  C   UNL     1      -6.787  -1.836 -34.252  1.00  0.00     0.037 A 
HETATM   16  C   UNL     1      -6.942  -0.842 -33.280  1.00  0.00     0.016 A 
BRANCH  14  17
HETATM   17  O   UNL     1      -5.547  -3.428 -35.411  1.00  0.00    -0.356 OA
HETATM   18  C   UNL     1      -6.486  -4.488 -35.273  1.00  0.00     0.210 C 
ENDBRANCH  14  17
ENDBRANCH   9  11
ENDBRANCH   1   5
BRANCH   2  19
HETATM   19  N   UNL     1      -4.943   5.625 -28.804  1.00  0.00    -0.267 N 
HETATM   20  C   UNL     1      -4.451   6.700 -29.509  1.00  0.00     0.240 C 
HETATM   21  O   UNL     1      -4.064   6.604 -30.670  1.00  0.00    -0.271 OA
HETATM   22  H   UNL     1      -5.287   5.670 -27.849  1.00  0.00     0.190 HD
BRANCH  20  23
HETATM   23  C   UNL     1      -4.357   8.009 -28.807  1.00  0.00     0.089 A 
HETATM   24  C   UNL     1      -3.093   8.558 -28.169  1.00  0.00     0.034 A 
HETATM   25  C   UNL     1      -3.667   9.205 -29.408  1.00  0.00     0.025 A 
BRANCH  24  26
HETATM   26  C   UNL     1      -1.775   7.808 -28.199  1.00  0.00    -0.031 A 
HETATM   27  C   UNL     1      -1.365   6.949 -27.157  1.00  0.00     0.040 A 
HETATM   28 CL   UNL     1      -2.361   6.708 -25.763  1.00  0.00    -0.084 Cl
HETATM   29  C   UNL     1      -0.141   6.272 -27.202  1.00  0.00     0.024 A 
HETATM   30  C   UNL     1       0.713   6.446 -28.287  1.00  0.00     0.002 A 
HETATM   31  C   UNL     1       0.349   7.304 -29.319  1.00  0.00     0.001 A 
HETATM   32  C   UNL     1      -0.874   7.981 -29.269  1.00  0.00     0.009 A 
ENDBRANCH  24  26
ENDBRANCH  20  23
ENDBRANCH   2  19
TORSDOF 6
ENDMDL
MODEL 3
REMARK VINA RESULT:      -8.3      1.619      1.838
REMARK  6 active torsions:
REMARK  status: ('A' for Active; 'I' for Inactive)
REMARK    1  A    between atoms: O_2  and  C_3 
REMARK    2  A    between atoms: C_6  and  C_7 
REMARK    3  A    between atoms: C_11  and  C_12 
REMARK       I    between atoms: C_12  and  N_13 
REMARK    4  A    between atoms: N_13  and  N_14 
REMARK       I    between atoms: N_14  and  C_15 
REMARK    5  A    between atoms: C_15  and  C_16 
REMARK    6  A    between atoms: C_17  and  C_18 
ROOT
HETATM    1  C   UNL     1      -3.094   3.641 -31.294  1.00  0.00     0.288 C 
HETATM    2  N   UNL     1      -4.075   4.402 -30.699  1.00  0.00    -0.262 N 
HETATM    3  O   UNL     1      -1.976   4.091 -31.541  1.00  0.00    -0.264 OA
HETATM    4  H   UNL     1      -5.030   4.081 -30.558  1.00  0.00     0.190 HD
ENDROOT
BRANCH   1   5
HETATM    5  C   UNL     1      -3.469   2.289 -31.605  1.00  0.00     0.121 A 
HETATM    6  N   UNL     1      -2.936   1.220 -30.943  1.00  0.00    -0.272 N 
HETATM    7  N   UNL     1      -3.407   0.030 -31.346  1.00  0.00    -0.174 NA
HETATM    8  H   UNL     1      -2.247   1.246 -30.197  1.00  0.00     0.189 HD
HETATM    9  C   UNL     1      -4.269   0.323 -32.334  1.00  0.00     0.089 A 
HETATM   10  C   UNL     1      -4.340   1.732 -32.522  1.00  0.00     0.071 A 
BRANCH   9  11
HETATM   11  C   UNL     1      -5.003  -0.721 -33.055  1.00  0.00    -0.005 A 
HETATM   12  C   UNL     1      -6.392  -0.627 -33.224  1.00  0.00     0.016 A 
HETATM   13  C   UNL     1      -7.102  -1.605 -33.934  1.00  0.00     0.037 A 
HETATM   14  C   UNL     1      -6.431  -2.695 -34.483  1.00  0.00     0.068 A 
HETATM   15  C   UNL     1      -5.052  -2.806 -34.303  1.00  0.00     0.037 A 
HETATM   16  C   UNL     1      -4.341  -1.829 -33.598  1.00  0.00     0.016 A 
BRANCH  14  17
HETATM   17  O   UNL     1      -6.998  -3.713 -35.201  1.00  0.00    -0.356 OA
HETATM   18  C   UNL     1      -6.158  -4.816 -35.519  1.00  0.00     0.210 C 
ENDBRANCH  14  17
ENDBRANCH   9  11
ENDBRANCH   1   5
BRANCH   2  19
HETATM   19  N   UNL     1      -3.848   5.764 -30.486  1.00  0.00    -0.267 N 
HETATM   20  C   UNL     1      -4.452   6.363 -29.403  1.00  0.00     0.240 C 
HETATM   21  O   UNL     1      -5.163   5.740 -28.619  1.00  0.00    -0.271 OA
HETATM   22  H   UNL     1      -3.242   6.243 -31.145  1.00  0.00     0.190 HD
BRANCH  20  23
HETATM   23  C   UNL     1      -4.257   7.826 -29.217  1.00  0.00     0.089 A 
HETATM   24  C   UNL     1      -2.945   8.479 -28.818  1.00  0.00     0.034 A 
HETATM   25  C   UNL     1      -3.507   8.679 -30.206  1.00  0.00     0.025 A 
BRANCH  24  26
HETATM   26  C   UNL     1      -1.678   7.679 -28.578  1.00  0.00    -0.031 A 
HETATM   27  C   UNL     1      -1.409   7.033 -27.354  1.00  0.00     0.040 A 
HETATM   28 CL   UNL     1      -2.526   7.126 -26.036  1.00  0.00    -0.084 Cl
HETATM   29  C   UNL     1      -0.230   6.306 -27.152  1.00  0.00     0.024 A 
HETATM   30  C   UNL     1       0.717   6.216 -28.167  1.00  0.00     0.002 A 
HETATM   31  C   UNL     1       0.492   6.862 -29.377  1.00  0.00     0.001 A 
HETATM   32  C   UNL     1      -0.686   7.590 -29.574  1.00  0.00     0.009 A 
ENDBRANCH  24  26
ENDBRANCH  20  23
ENDBRANCH   2  19
TORSDOF 6
ENDMDL
MODEL 4
REMARK VINA RESULT:      -8.3      2.457      3.803
REMARK  6 active torsions:
REMARK  status: ('A' for Active; 'I' for Inactive)
REMARK    1  A    between atoms: O_2  and  C_3 
REMARK    2  A    between atoms: C_6  and  C_7 
REMARK    3  A    between atoms: C_11  and  C_12 
REMARK       I    between atoms: C_12  and  N_13 
REMARK    4  A    between atoms: N_13  and  N_14 
REMARK       I    between atoms: N_14  and  C_15 
REMARK    5  A    between atoms: C_15  and  C_16 
REMARK    6  A    between atoms: C_17  and  C_18 
ROOT
HETATM    1  C   UNL     1      -1.957   5.118 -31.450  1.00  0.00     0.288 C 
HETATM    2  N   UNL     1      -1.806   5.589 -30.165  1.00  0.00    -0.262 N 
HETATM    3  O   UNL     1      -1.322   5.582 -32.396  1.00  0.00    -0.264 OA
HETATM    4  H   UNL     1      -2.375   5.281 -29.380  1.00  0.00     0.190 HD
ENDROOT
BRANCH   1   5
HETATM    5  C   UNL     1      -2.906   4.050 -31.605  1.00  0.00     0.121 A 
HETATM    6  N   UNL     1      -3.949   3.879 -30.739  1.00  0.00    -0.272 N 
HETATM    7  N   UNL     1      -4.749   2.845 -31.038  1.00  0.00    -0.174 NA
HETATM    8  H   UNL     1      -4.166   4.448 -29.926  1.00  0.00     0.189 HD
HETATM    9  C   UNL     1      -4.199   2.293 -32.131  1.00  0.00     0.089 A 
HETATM   10  C   UNL     1      -3.043   3.026 -32.522  1.00  0.00     0.071 A 
BRANCH   9  11
HETATM   11  C   UNL     1      -4.780   1.113 -32.779  1.00  0.00    -0.005 A 
HETATM   12  C   UNL     1      -6.061   1.170 -33.345  1.00  0.00     0.016 A 
HETATM   13  C   UNL     1      -6.617   0.056 -33.990  1.00  0.00     0.037 A 
HETATM   14  C   UNL     1      -5.897  -1.133 -34.076  1.00  0.00     0.068 A 
HETATM   15  C   UNL     1      -4.628  -1.203 -33.499  1.00  0.00     0.037 A 
HETATM   16  C   UNL     1      -4.071  -0.092 -32.858  1.00  0.00     0.016 A 
BRANCH  14  17
HETATM   17  O   UNL     1      -6.315  -2.287 -34.679  1.00  0.00    -0.356 OA
HETATM   18  C   UNL     1      -5.311  -3.243 -34.997  1.00  0.00     0.210 C 
ENDBRANCH  14  17
ENDBRANCH   9  11
ENDBRANCH   1   5
BRANCH   2  19
HETATM   19  N   UNL     1      -1.010   6.715 -29.939  1.00  0.00    -0.267 N 
HETATM   20  C   UNL     1       0.000   6.622 -29.008  1.00  0.00     0.240 C 
HETATM   21  O   UNL     1       0.230   5.587 -28.389  1.00  0.00    -0.271 OA
HETATM   22  H   UNL     1      -1.218   7.549 -30.482  1.00  0.00     0.190 HD
BRANCH  20  23
HETATM   23  C   UNL     1       0.804   7.842 -28.728  1.00  0.00     0.089 A 
HETATM   24  C   UNL     1       0.367   8.975 -27.815  1.00  0.00     0.034 A 
HETATM   25  C   UNL     1       1.508   8.068 -27.416  1.00  0.00     0.025 A 
BRANCH  24  26
HETATM   26  C   UNL     1      -0.959   8.960 -27.078  1.00  0.00    -0.031 A 
HETATM   27  C   UNL     1      -2.154   9.438 -27.655  1.00  0.00     0.040 A 
HETATM   28 CL   UNL     1      -2.168  10.083 -29.261  1.00  0.00    -0.084 Cl
HETATM   29  C   UNL     1      -3.365   9.421 -26.955  1.00  0.00     0.024 A 
HETATM   30  C   UNL     1      -3.410   8.936 -25.651  1.00  0.00     0.002 A 
HETATM   31  C   UNL     1      -2.245   8.480 -25.046  1.00  0.00     0.001 A 
HETATM   32  C   UNL     1      -1.036   8.501 -25.748  1.00  0.00     0.009 A 
ENDBRANCH  24  26
ENDBRANCH  20  23
ENDBRANCH   2  19
TORSDOF 6
ENDMDL
MODEL 5
REMARK VINA RESULT:      -8.2      6.319      9.436
REMARK  6 active torsions:
REMARK  status: ('A' for Active; 'I' for Inactive)
REMARK    1  A    between atoms: O_2  and  C_3 
REMARK    2  A    between atoms: C_6  and  C_7 
REMARK    3  A    between atoms: C_11  and  C_12 
REMARK       I    between atoms: C_12  and  N_13 
REMARK    4  A    between atoms: N_13  and  N_14 
REMARK       I    between atoms: N_14  and  C_15 
REMARK    5  A    between atoms: C_15  and  C_16 
REMARK    6  A    between atoms: C_17  and  C_18 
ROOT
HETATM    1  C   UNL     1      -8.199   2.278 -33.453  1.00  0.00     0.288 C 
HETATM    2  N   UNL     1      -7.558   1.079 -33.670  1.00  0.00    -0.262 N 
HETATM    3  O   UNL     1      -7.596   3.285 -33.085  1.00  0.00    -0.264 OA
HETATM    4  H   UNL     1      -8.042   0.213 -33.894  1.00  0.00     0.190 HD
ENDROOT
BRANCH   1   5
HETATM    5  C   UNL     1      -9.617   2.267 -33.685  1.00  0.00     0.121 A 
HETATM    6  N   UNL     1     -10.143   2.254 -34.945  1.00  0.00    -0.272 N 
HETATM    7  N   UNL     1     -11.484   2.228 -34.984  1.00  0.00    -0.174 NA
HETATM    8  H   UNL     1      -9.628   2.254 -35.822  1.00  0.00     0.189 HD
HETATM    9  C   UNL     1     -11.861   2.251 -33.695  1.00  0.00     0.089 A 
HETATM   10  C   UNL     1     -10.716   2.270 -32.849  1.00  0.00     0.071 A 
BRANCH   9  11
HETATM   11  C   UNL     1     -13.273   2.240 -33.302  1.00  0.00    -0.005 A 
HETATM   12  C   UNL     1     -14.169   1.336 -33.889  1.00  0.00     0.016 A 
HETATM   13  C   UNL     1     -15.516   1.298 -33.502  1.00  0.00     0.037 A 
HETATM   14  C   UNL     1     -15.987   2.169 -32.523  1.00  0.00     0.068 A 
HETATM   15  C   UNL     1     -15.105   3.086 -31.947  1.00  0.00     0.037 A 
HETATM   16  C   UNL     1     -13.760   3.122 -32.329  1.00  0.00     0.016 A 
BRANCH  14  17
HETATM   17  O   UNL     1     -17.269   2.234 -32.049  1.00  0.00    -0.356 OA
HETATM   18  C   UNL     1     -18.041   3.360 -32.447  1.00  0.00     0.210 C 
ENDBRANCH  14  17
ENDBRANCH   9  11
ENDBRANCH   1   5
BRANCH   2  19
HETATM   19  N   UNL     1      -6.206   0.958 -33.338  1.00  0.00    -0.267 N 
HETATM   20  C   UNL     1      -5.877   0.263 -32.195  1.00  0.00     0.240 C 
HETATM   21  O   UNL     1      -6.724  -0.260 -31.477  1.00  0.00    -0.271 OA
HETATM   22  H   UNL     1      -5.532   1.388 -33.964  1.00  0.00     0.190 HD
BRANCH  20  23
HETATM   23  C   UNL     1      -4.440   0.190 -31.814  1.00  0.00     0.089 A 
HETATM   24  C   UNL     1      -3.504  -0.946 -32.188  1.00  0.00     0.034 A 
HETATM   25  C   UNL     1      -3.325   0.425 -32.798  1.00  0.00     0.025 A 
BRANCH  24  26
HETATM   26  C   UNL     1      -3.955  -2.134 -33.015  1.00  0.00    -0.031 A 
HETATM   27  C   UNL     1      -3.568  -3.458 -32.718  1.00  0.00     0.040 A 
HETATM   28 CL   UNL     1      -2.533  -3.799 -31.374  1.00  0.00    -0.084 Cl
HETATM   29  C   UNL     1      -3.992  -4.539 -33.498  1.00  0.00     0.024 A 
HETATM   30  C   UNL     1      -4.805  -4.323 -34.607  1.00  0.00     0.002 A 
HETATM   31  C   UNL     1      -5.184  -3.028 -34.940  1.00  0.00     0.001 A 
HETATM   32  C   UNL     1      -4.757  -1.950 -34.159  1.00  0.00     0.009 A 
ENDBRANCH  24  26
ENDBRANCH  20  23
ENDBRANCH   2  19
TORSDOF 6
ENDMDL
MODEL 6
REMARK VINA RESULT:      -8.2      3.661      4.909
REMARK  6 active torsions:
REMARK  status: ('A' for Active; 'I' for Inactive)
REMARK    1  A    between atoms: O_2  and  C_3 
REMARK    2  A    between atoms: C_6  and  C_7 
REMARK    3  A    between atoms: C_11  and  C_12 
REMARK       I    between atoms: C_12  and  N_13 
REMARK    4  A    between atoms: N_13  and  N_14 
REMARK       I    between atoms: N_14  and  C_15 
REMARK    5  A    between atoms: C_15  and  C_16 
REMARK    6  A    between atoms: C_17  and  C_18 
ROOT
HETATM    1  C   UNL     1      -4.557   5.147 -33.989  1.00  0.00     0.288 C 
HETATM    2  N   UNL     1      -3.866   5.215 -32.800  1.00  0.00    -0.262 N 
HETATM    3  O   UNL     1      -4.031   5.417 -35.068  1.00  0.00    -0.264 OA
HETATM    4  H   UNL     1      -4.297   5.077 -31.889  1.00  0.00     0.190 HD
ENDROOT
BRANCH   1   5
HETATM    5  C   UNL     1      -5.932   4.741 -33.879  1.00  0.00     0.121 A 
HETATM    6  N   UNL     1      -6.943   5.646 -33.730  1.00  0.00    -0.272 N 
HETATM    7  N   UNL     1      -8.166   5.101 -33.659  1.00  0.00    -0.174 NA
HETATM    8  H   UNL     1      -6.854   6.658 -33.677  1.00  0.00     0.189 HD
HETATM    9  C   UNL     1      -7.953   3.777 -33.739  1.00  0.00     0.089 A 
HETATM   10  C   UNL     1      -6.562   3.512 -33.884  1.00  0.00     0.071 A 
BRANCH   9  11
HETATM   11  C   UNL     1      -9.055   2.812 -33.691  1.00  0.00    -0.005 A 
HETATM   12  C   UNL     1      -8.802   1.455 -33.443  1.00  0.00     0.016 A 
HETATM   13  C   UNL     1      -9.849   0.527 -33.369  1.00  0.00     0.037 A 
HETATM   14  C   UNL     1     -11.167   0.943 -33.546  1.00  0.00     0.068 A 
HETATM   15  C   UNL     1     -11.425   2.288 -33.812  1.00  0.00     0.037 A 
HETATM   16  C   UNL     1     -10.381   3.217 -33.882  1.00  0.00     0.016 A 
BRANCH  14  17
HETATM   17  O   UNL     1     -12.278   0.147 -33.493  1.00  0.00    -0.356 OA
HETATM   18  C   UNL     1     -13.397   0.557 -34.270  1.00  0.00     0.210 C 
ENDBRANCH  14  17
ENDBRANCH   9  11
ENDBRANCH   1   5
BRANCH   2  19
HETATM   19  N   UNL     1      -2.568   5.732 -32.793  1.00  0.00    -0.267 N 
HETATM   20  C   UNL     1      -1.612   5.078 -32.050  1.00  0.00     0.240 C 
HETATM   21  O   UNL     1      -1.858   4.057 -31.414  1.00  0.00    -0.271 OA
HETATM   22  H   UNL     1      -2.397   6.568 -33.344  1.00  0.00     0.190 HD
BRANCH  20  23
HETATM   23  C   UNL     1      -0.247   5.667 -31.996  1.00  0.00     0.089 A 
HETATM   24  C   UNL     1       0.222   6.669 -30.954  1.00  0.00     0.034 A 
HETATM   25  C   UNL     1       0.774   5.262 -30.966  1.00  0.00     0.025 A 
BRANCH  24  26
HETATM   26  C   UNL     1      -0.678   7.163 -29.838  1.00  0.00    -0.031 A 
HETATM   27  C   UNL     1      -1.653   8.163 -30.035  1.00  0.00     0.040 A 
HETATM   28 CL   UNL     1      -1.871   8.897 -31.587  1.00  0.00    -0.084 Cl
HETATM   29  C   UNL     1      -2.469   8.609 -28.989  1.00  0.00     0.024 A 
HETATM   30  C   UNL     1      -2.322   8.074 -27.713  1.00  0.00     0.002 A 
HETATM   31  C   UNL     1      -1.354   7.103 -27.481  1.00  0.00     0.001 A 
HETATM   32  C   UNL     1      -0.540   6.662 -28.528  1.00  0.00     0.009 A 
ENDBRANCH  24  26
ENDBRANCH  20  23
ENDBRANCH   2  19
TORSDOF 6
ENDMDL
MODEL 7
REMARK VINA RESULT:      -8.1      1.671      2.165
REMARK  6 active torsions:
REMARK  status: ('A' for Active; 'I' for Inactive)
REMARK    1  A    between atoms: O_2  and  C_3 
REMARK    2  A    between atoms: C_6  and  C_7 
REMARK    3  A    between atoms: C_11  and  C_12 
REMARK       I    between atoms: C_12  and  N_13 
REMARK    4  A    between atoms: N_13  and  N_14 
REMARK       I    between atoms: N_14  and  C_15 
REMARK    5  A    between atoms: C_15  and  C_16 
REMARK    6  A    between atoms: C_17  and  C_18 
ROOT
HETATM    1  C   UNL     1      -6.303   4.378 -33.386  1.00  0.00     0.288 C 
HETATM    2  N   UNL     1      -5.385   4.673 -32.403  1.00  0.00    -0.262 N 
HETATM    3  O   UNL     1      -6.903   5.256 -34.006  1.00  0.00    -0.264 OA
HETATM    4  H   UNL     1      -4.937   3.970 -31.821  1.00  0.00     0.190 HD
ENDROOT
BRANCH   1   5
HETATM    5  C   UNL     1      -6.510   2.978 -33.633  1.00  0.00     0.121 A 
HETATM    6  N   UNL     1      -7.734   2.478 -33.977  1.00  0.00    -0.272 N 
HETATM    7  N   UNL     1      -7.749   1.153 -34.188  1.00  0.00    -0.174 NA
HETATM    8  H   UNL     1      -8.597   3.002 -34.090  1.00  0.00     0.189 HD
HETATM    9  C   UNL     1      -6.489   0.756 -33.949  1.00  0.00     0.089 A 
HETATM   10  C   UNL     1      -5.679   1.875 -33.604  1.00  0.00     0.071 A 
BRANCH   9  11
HETATM   11  C   UNL     1      -6.084  -0.648 -34.065  1.00  0.00    -0.005 A 
HETATM   12  C   UNL     1      -6.968  -1.603 -34.586  1.00  0.00     0.016 A 
HETATM   13  C   UNL     1      -6.583  -2.943 -34.727  1.00  0.00     0.037 A 
HETATM   14  C   UNL     1      -5.307  -3.349 -34.344  1.00  0.00     0.068 A 
HETATM   15  C   UNL     1      -4.427  -2.408 -33.807  1.00  0.00     0.037 A 
HETATM   16  C   UNL     1      -4.808  -1.069 -33.669  1.00  0.00     0.016 A 
BRANCH  14  17
HETATM   17  O   UNL     1      -4.802  -4.617 -34.433  1.00  0.00    -0.356 OA
HETATM   18  C   UNL     1      -3.578  -4.868 -33.753  1.00  0.00     0.210 C 
ENDBRANCH  14  17
ENDBRANCH   9  11
ENDBRANCH   1   5
BRANCH   2  19
HETATM   19  N   UNL     1      -5.220   6.000 -31.998  1.00  0.00    -0.267 N 
HETATM   20  C   UNL     1      -4.893   6.243 -30.683  1.00  0.00     0.240 C 
HETATM   21  O   UNL     1      -4.729   5.339 -29.868  1.00  0.00    -0.271 OA
HETATM   22  H   UNL     1      -5.347   6.721 -32.703  1.00  0.00     0.190 HD
BRANCH  20  23
HETATM   23  C   UNL     1      -4.779   7.660 -30.244  1.00  0.00     0.089 A 
HETATM   24  C   UNL     1      -3.475   8.431 -30.142  1.00  0.00     0.034 A 
HETATM   25  C   UNL     1      -4.493   8.788 -31.200  1.00  0.00     0.025 A 
BRANCH  24  26
HETATM   26  C   UNL     1      -2.136   7.815 -30.499  1.00  0.00    -0.031 A 
HETATM   27  C   UNL     1      -1.242   7.323 -29.525  1.00  0.00     0.040 A 
HETATM   28 CL   UNL     1      -1.632   7.406 -27.841  1.00  0.00    -0.084 Cl
HETATM   29  C   UNL     1      -0.008   6.764 -29.876  1.00  0.00     0.024 A 
HETATM   30  C   UNL     1       0.371   6.694 -31.213  1.00  0.00     0.002 A 
HETATM   31  C   UNL     1      -0.478   7.192 -32.196  1.00  0.00     0.001 A 
HETATM   32  C   UNL     1      -1.709   7.751 -31.841  1.00  0.00     0.009 A 
ENDBRANCH  24  26
ENDBRANCH  20  23
ENDBRANCH   2  19
TORSDOF 6
ENDMDL
MODEL 8
REMARK VINA RESULT:      -8.1      1.989      3.226
REMARK  6 active torsions:
REMARK  status: ('A' for Active; 'I' for Inactive)
REMARK    1  A    between atoms: O_2  and  C_3 
REMARK    2  A    between atoms: C_6  and  C_7 
REMARK    3  A    between atoms: C_11  and  C_12 
REMARK       I    between atoms: C_12  and  N_13 
REMARK    4  A    between atoms: N_13  and  N_14 
REMARK       I    between atoms: N_14  and  C_15 
REMARK    5  A    between atoms: C_15  and  C_16 
REMARK    6  A    between atoms: C_17  and  C_18 
ROOT
HETATM    1  C   UNL     1      -2.664   3.814 -32.192  1.00  0.00     0.288 C 
HETATM    2  N   UNL     1      -2.542   4.342 -30.926  1.00  0.00    -0.262 N 
HETATM    3  O   UNL     1      -2.179   4.364 -33.179  1.00  0.00    -0.264 OA
HETATM    4  H   UNL     1      -3.001   3.953 -30.105  1.00  0.00     0.190 HD
ENDROOT
BRANCH   1   5
HETATM    5  C   UNL     1      -3.397   2.580 -32.275  1.00  0.00     0.121 A 
HETATM    6  N   UNL     1      -4.497   2.341 -31.503  1.00  0.00    -0.272 N 
HETATM    7  N   UNL     1      -5.073   1.148 -31.717  1.00  0.00    -0.174 NA
HETATM    8  H   UNL     1      -4.907   2.965 -30.813  1.00  0.00     0.189 HD
HETATM    9  C   UNL     1      -4.306   0.564 -32.652  1.00  0.00     0.089 A 
HETATM   10  C   UNL     1      -3.246   1.435 -33.032  1.00  0.00     0.071 A 
BRANCH   9  11
HETATM   11  C   UNL     1      -4.597  -0.778 -33.165  1.00  0.00    -0.005 A 
HETATM   12  C   UNL     1      -3.723  -1.844 -32.909  1.00  0.00     0.016 A 
HETATM   13  C   UNL     1      -4.005  -3.136 -33.372  1.00  0.00     0.037 A 
HETATM   14  C   UNL     1      -5.166  -3.381 -34.102  1.00  0.00     0.068 A 
HETATM   15  C   UNL     1      -6.032  -2.321 -34.376  1.00  0.00     0.037 A 
HETATM   16  C   UNL     1      -5.754  -1.031 -33.912  1.00  0.00     0.016 A 
BRANCH  14  17
HETATM   17  O   UNL     1      -5.563  -4.589 -34.605  1.00  0.00    -0.356 OA
HETATM   18  C   UNL     1      -6.639  -4.572 -35.535  1.00  0.00     0.210 C 
ENDBRANCH  14  17
ENDBRANCH   9  11
ENDBRANCH   1   5
BRANCH   2  19
HETATM   19  N   UNL     1      -1.966   5.605 -30.765  1.00  0.00    -0.267 N 
HETATM   20  C   UNL     1      -0.664   5.675 -30.323  1.00  0.00     0.240 C 
HETATM   21  O   UNL     1       0.004   4.673 -30.085  1.00  0.00    -0.271 OA
HETATM   22  H   UNL     1      -2.543   6.411 -30.988  1.00  0.00     0.190 HD
BRANCH  20  23
HETATM   23  C   UNL     1      -0.077   7.023 -30.095  1.00  0.00     0.089 A 
HETATM   24  C   UNL     1      -0.552   8.004 -29.037  1.00  0.00     0.034 A 
HETATM   25  C   UNL     1       0.799   7.339 -28.911  1.00  0.00     0.025 A 
BRANCH  24  26
HETATM   26  C   UNL     1      -1.689   7.687 -28.085  1.00  0.00    -0.031 A 
HETATM   27  C   UNL     1      -3.027   8.044 -28.354  1.00  0.00     0.040 A 
HETATM   28 CL   UNL     1      -3.447   8.883 -29.808  1.00  0.00    -0.084 Cl
HETATM   29  C   UNL     1      -4.060   7.747 -27.458  1.00  0.00     0.024 A 
HETATM   30  C   UNL     1      -3.780   7.095 -26.261  1.00  0.00     0.002 A 
HETATM   31  C   UNL     1      -2.468   6.751 -25.956  1.00  0.00     0.001 A 
HETATM   32  C   UNL     1      -1.438   7.052 -26.852  1.00  0.00     0.009 A 
ENDBRANCH  24  26
ENDBRANCH  20  23
ENDBRANCH   2  19
TORSDOF 6
ENDMDL
MODEL 9
REMARK VINA RESULT:      -7.9      6.283      8.990
REMARK  6 active torsions:
REMARK  status: ('A' for Active; 'I' for Inactive)
REMARK    1  A    between atoms: O_2  and  C_3 
REMARK    2  A    between atoms: C_6  and  C_7 
REMARK    3  A    between atoms: C_11  and  C_12 
REMARK       I    between atoms: C_12  and  N_13 
REMARK    4  A    between atoms: N_13  and  N_14 
REMARK       I    between atoms: N_14  and  C_15 
REMARK    5  A    between atoms: C_15  and  C_16 
REMARK    6  A    between atoms: C_17  and  C_18 
ROOT
HETATM    1  C   UNL     1      -8.482   2.076 -33.959  1.00  0.00     0.288 C 
HETATM    2  N   UNL     1      -7.953   1.116 -34.793  1.00  0.00    -0.262 N 
HETATM    3  O   UNL     1      -7.784   2.721 -33.178  1.00  0.00    -0.264 OA
HETATM    4  H   UNL     1      -8.516   0.513 -35.387  1.00  0.00     0.190 HD
ENDROOT
BRANCH   1   5
HETATM    5  C   UNL     1      -9.902   2.267 -34.066  1.00  0.00     0.121 A 
HETATM    6  N   UNL     1     -10.480   2.777 -35.193  1.00  0.00    -0.272 N 
HETATM    7  N   UNL     1     -11.817   2.874 -35.132  1.00  0.00    -0.174 NA
HETATM    8  H   UNL     1     -10.006   3.070 -36.043  1.00  0.00     0.189 HD
HETATM    9  C   UNL     1     -12.134   2.434 -33.903  1.00  0.00     0.089 A 
HETATM   10  C   UNL     1     -10.958   2.038 -33.205  1.00  0.00     0.071 A 
BRANCH   9  11
HETATM   11  C   UNL     1     -13.521   2.387 -33.432  1.00  0.00    -0.005 A 
HETATM   12  C   UNL     1     -14.405   1.412 -33.918  1.00  0.00     0.016 A 
HETATM   13  C   UNL     1     -15.726   1.340 -33.455  1.00  0.00     0.037 A 
HETATM   14  C   UNL     1     -16.184   2.246 -32.501  1.00  0.00     0.068 A 
HETATM   15  C   UNL     1     -15.316   3.231 -32.027  1.00  0.00     0.037 A 
HETATM   16  C   UNL     1     -13.996   3.302 -32.485  1.00  0.00     0.016 A 
BRANCH  14  17
HETATM   17  O   UNL     1     -17.441   2.284 -31.962  1.00  0.00    -0.356 OA
HETATM   18  C   UNL     1     -18.273   3.368 -32.356  1.00  0.00     0.210 C 
ENDBRANCH  14  17
ENDBRANCH   9  11
ENDBRANCH   1   5
BRANCH   2  19
HETATM   19  N   UNL     1      -6.607   0.764 -34.662  1.00  0.00    -0.267 N 
HETATM   20  C   UNL     1      -6.306  -0.503 -34.216  1.00  0.00     0.240 C 
HETATM   21  O   UNL     1      -7.174  -1.329 -33.948  1.00  0.00    -0.271 OA
HETATM   22  H   UNL     1      -5.916   1.467 -34.909  1.00  0.00     0.190 HD
BRANCH  20  23
HETATM   23  C   UNL     1      -4.872  -0.851 -34.020  1.00  0.00     0.089 A 
HETATM   24  C   UNL     1      -4.010  -0.348 -32.875  1.00  0.00     0.034 A 
HETATM   25  C   UNL     1      -4.406  -1.805 -32.952  1.00  0.00     0.025 A 
BRANCH  24  26
HETATM   26  C   UNL     1      -4.548   0.567 -31.792  1.00  0.00    -0.031 A 
HETATM   27  C   UNL     1      -4.227   1.939 -31.729  1.00  0.00     0.040 A 
HETATM   28 CL   UNL     1      -3.178   2.660 -32.902  1.00  0.00    -0.084 Cl
HETATM   29  C   UNL     1      -4.729   2.765 -30.718  1.00  0.00     0.024 A 
HETATM   30  C   UNL     1      -5.558   2.237 -29.733  1.00  0.00     0.002 A 
HETATM   31  C   UNL     1      -5.874   0.883 -29.753  1.00  0.00     0.001 A 
HETATM   32  C   UNL     1      -5.368   0.061 -30.764  1.00  0.00     0.009 A 
ENDBRANCH  24  26
ENDBRANCH  20  23
ENDBRANCH   2  19
TORSDOF 6
ENDMDL
MODEL 10
REMARK VINA RESULT:      -7.5      1.846      2.212
REMARK  6 active torsions:
REMARK  status: ('A' for Active; 'I' for Inactive)
REMARK    1  A    between atoms: O_2  and  C_3 
REMARK    2  A    between atoms: C_6  and  C_7 
REMARK    3  A    between atoms: C_11  and  C_12 
REMARK       I    between atoms: C_12  and  N_13 
REMARK    4  A    between atoms: N_13  and  N_14 
REMARK       I    between atoms: N_14  and  C_15 
REMARK    5  A    between atoms: C_15  and  C_16 
REMARK    6  A    between atoms: C_17  and  C_18 
ROOT
HETATM    1  C   UNL     1      -5.491   4.877 -31.749  1.00  0.00     0.288 C 
HETATM    2  N   UNL     1      -4.422   5.264 -30.972  1.00  0.00    -0.262 N 
HETATM    3  O   UNL     1      -6.418   5.641 -32.014  1.00  0.00    -0.264 OA
HETATM    4  H   UNL     1      -3.685   4.631 -30.670  1.00  0.00     0.190 HD
ENDROOT
BRANCH   1   5
HETATM    5  C   UNL     1      -5.446   3.521 -32.224  1.00  0.00     0.121 A 
HETATM    6  N   UNL     1      -6.227   3.091 -33.259  1.00  0.00    -0.272 N 
HETATM    7  N   UNL     1      -6.049   1.803 -33.586  1.00  0.00    -0.174 NA
HETATM    8  H   UNL     1      -6.899   3.643 -33.786  1.00  0.00     0.189 HD
HETATM    9  C   UNL     1      -5.131   1.354 -32.715  1.00  0.00     0.089 A 
HETATM   10  C   UNL     1      -4.723   2.407 -31.847  1.00  0.00     0.071 A 
BRANCH   9  11
HETATM   11  C   UNL     1      -4.658  -0.033 -32.734  1.00  0.00    -0.005 A 
HETATM   12  C   UNL     1      -5.169  -0.947 -33.667  1.00  0.00     0.016 A 
HETATM   13  C   UNL     1      -4.706  -2.269 -33.712  1.00  0.00     0.037 A 
HETATM   14  C   UNL     1      -3.725  -2.698 -32.821  1.00  0.00     0.068 A 
HETATM   15  C   UNL     1      -3.225  -1.799 -31.877  1.00  0.00     0.037 A 
HETATM   16  C   UNL     1      -3.683  -0.478 -31.833  1.00  0.00     0.016 A 
BRANCH  14  17
HETATM   17  O   UNL     1      -3.182  -3.951 -32.761  1.00  0.00    -0.356 OA
HETATM   18  C   UNL     1      -3.607  -4.881 -33.750  1.00  0.00     0.210 C 
ENDBRANCH  14  17
ENDBRANCH   9  11
ENDBRANCH   1   5
BRANCH   2  19
HETATM   19  N   UNL     1      -4.446   6.517 -30.353  1.00  0.00    -0.267 N 
HETATM   20  C   UNL     1      -3.545   7.468 -30.774  1.00  0.00     0.240 C 
HETATM   21  O   UNL     1      -2.740   7.257 -31.678  1.00  0.00    -0.271 OA
HETATM   22  H   UNL     1      -5.136   6.661 -29.621  1.00  0.00     0.190 HD
BRANCH  20  23
HETATM   23  C   UNL     1      -3.533   8.778 -30.070  1.00  0.00     0.089 A 
HETATM   24  C   UNL     1      -2.588   9.142 -28.938  1.00  0.00     0.034 A 
HETATM   25  C   UNL     1      -2.458   9.810 -30.287  1.00  0.00     0.025 A 
BRANCH  24  26
HETATM   26  C   UNL     1      -1.535   8.184 -28.417  1.00  0.00    -0.031 A 
HETATM   27  C   UNL     1      -1.768   7.317 -27.329  1.00  0.00     0.040 A 
HETATM   28 CL   UNL     1      -3.294   7.308 -26.513  1.00  0.00    -0.084 Cl
HETATM   29  C   UNL     1      -0.780   6.445 -26.860  1.00  0.00     0.024 A 
HETATM   30  C   UNL     1       0.476   6.425 -27.461  1.00  0.00     0.002 A 
HETATM   31  C   UNL     1       0.745   7.285 -28.520  1.00  0.00     0.001 A 
HETATM   32  C   UNL     1      -0.245   8.156 -28.984  1.00  0.00     0.009 A 
ENDBRANCH  24  26
ENDBRANCH  20  23
ENDBRANCH   2  19
TORSDOF 6
ENDMDL
