MODEL 1
REMARK VINA RESULT:     -10.3      0.000      0.000
REMARK  6 active torsions:
REMARK  status: ('A' for Active; 'I' for Inactive)
REMARK    1  A    between atoms: C_7  and  C_8 
REMARK    2  A    between atoms: C_8  and  O_9 
REMARK    3  A    between atoms: O_9  and  C_10 
REMARK    4  A    between atoms: C_10  and  C_11 
REMARK       I    between atoms: C_11  and  N_12 
REMARK    5  A    between atoms: N_12  and  N_13 
REMARK    6  A    between atoms: C_17  and  C_18 
ROOT
HETATM    1  C   UNL     1      -4.603   4.738 -32.480  1.00  0.00     0.261 C 
HETATM    2  N   UNL     1      -4.243   3.612 -33.189  1.00  0.00    -0.255 N 
HETATM    3  O   UNL     1      -5.318   4.717 -31.480  1.00  0.00    -0.269 OA
HETATM    4  H   UNL     1      -3.495   3.649 -33.883  1.00  0.00     0.191 HD
ENDROOT
BRANCH   1   5
HETATM    5  C   UNL     1      -3.992   6.035 -33.019  1.00  0.00     0.283 C 
BRANCH   5   6
HETATM    6  O   UNL     1      -2.689   5.895 -33.588  1.00  0.00    -0.308 OA
BRANCH   6   7
HETATM    7  C   UNL     1      -1.805   6.873 -33.278  1.00  0.00     0.293 C 
HETATM    8  O   UNL     1      -1.627   7.888 -33.937  1.00  0.00    -0.259 OA
BRANCH   7   9
HETATM    9  C   UNL     1      -1.138   6.601 -31.979  1.00  0.00     0.040 A 
HETATM   10  C   UNL     1      -0.461   5.386 -31.832  1.00  0.00     0.020 A 
HETATM   11  C   UNL     1       0.234   5.082 -30.658  1.00  0.00     0.031 A 
HETATM   12  C   UNL     1       0.228   6.038 -29.636  1.00  0.00     0.043 A 
HETATM   13  C   UNL     1      -0.453   7.251 -29.736  1.00  0.00    -0.001 A 
HETATM   14  N   UNL     1       0.841   6.020 -28.407  1.00  0.00    -0.359 N 
HETATM   15  C   UNL     1      -0.244   7.963 -28.511  1.00  0.00    -0.027 A 
HETATM   16  C   UNL     1      -1.152   7.535 -30.929  1.00  0.00     0.032 A 
HETATM   17  C   UNL     1      -0.787   9.302 -28.153  1.00  0.00     0.051 C 
HETATM   18  C   UNL     1       0.584   7.180 -27.722  1.00  0.00     0.012 A 
HETATM   19  C   UNL     1       1.161   7.436 -26.377  1.00  0.00     0.068 C 
HETATM   20  H   UNL     1       1.418   5.262 -28.070  1.00  0.00     0.166 HD
ENDBRANCH   7   9
ENDBRANCH   6   7
ENDBRANCH   5   6
ENDBRANCH   1   5
BRANCH   2  21
HETATM   21  N   UNL     1      -4.568   2.379 -32.668  1.00  0.00    -0.167 N 
HETATM   22  C   UNL     1      -3.831   1.729 -31.716  1.00  0.00     0.345 A 
HETATM   23  O   UNL     1      -2.809   2.093 -31.158  1.00  0.00    -0.245 OA
HETATM   24  N   UNL     1      -4.487   0.551 -31.416  1.00  0.00    -0.319 N 
HETATM   25  C   UNL     1      -5.723   0.387 -32.166  1.00  0.00     0.141 A 
HETATM   26  H   UNL     1      -4.127  -0.089 -30.720  1.00  0.00     0.166 HD
HETATM   27  C   UNL     1      -5.737   1.722 -32.955  1.00  0.00     0.279 A 
HETATM   28  C   UNL     1      -6.903   0.357 -31.191  1.00  0.00     0.055 C 
HETATM   29  O   UNL     1      -6.647   2.134 -33.667  1.00  0.00    -0.268 OA
BRANCH  25  30
HETATM   30  C   UNL     1      -5.704  -0.820 -33.099  1.00  0.00    -0.021 A 
HETATM   31  C   UNL     1      -6.870  -1.330 -33.696  1.00  0.00     0.010 A 
HETATM   32  C   UNL     1      -6.820  -2.439 -34.546  1.00  0.00     0.001 A 
HETATM   33  C   UNL     1      -5.605  -3.064 -34.811  1.00  0.00     0.000 A 
HETATM   34  C   UNL     1      -4.440  -2.582 -34.227  1.00  0.00     0.001 A 
HETATM   35  C   UNL     1      -4.488  -1.473 -33.380  1.00  0.00     0.010 A 
ENDBRANCH  25  30
ENDBRANCH   2  21
TORSDOF 6
ENDMDL
MODEL 2
REMARK VINA RESULT:      -9.9      1.499      2.368
REMARK  6 active torsions:
REMARK  status: ('A' for Active; 'I' for Inactive)
REMARK    1  A    between atoms: C_7  and  C_8 
REMARK    2  A    between atoms: C_8  and  O_9 
REMARK    3  A    between atoms: O_9  and  C_10 
REMARK    4  A    between atoms: C_10  and  C_11 
REMARK       I    between atoms: C_11  and  N_12 
REMARK    5  A    between atoms: N_12  and  N_13 
REMARK    6  A    between atoms: C_17  and  C_18 
ROOT
HETATM    1  C   UNL     1      -4.356   3.524 -32.681  1.00  0.00     0.261 C 
HETATM    2  N   UNL     1      -5.720   3.368 -32.561  1.00  0.00    -0.255 N 
HETATM    3  O   UNL     1      -3.548   2.606 -32.552  1.00  0.00    -0.269 OA
HETATM    4  H   UNL     1      -6.359   4.100 -32.872  1.00  0.00     0.191 HD
ENDROOT
BRANCH   1   5
HETATM    5  C   UNL     1      -3.922   4.947 -33.043  1.00  0.00     0.283 C 
BRANCH   5   6
HETATM    6  O   UNL     1      -3.371   5.095 -34.352  1.00  0.00    -0.308 OA
BRANCH   6   7
HETATM    7  C   UNL     1      -2.046   5.370 -34.404  1.00  0.00     0.293 C 
HETATM    8  O   UNL     1      -1.318   5.126 -35.356  1.00  0.00    -0.259 OA
BRANCH   7   9
HETATM    9  C   UNL     1      -1.601   6.094 -33.185  1.00  0.00     0.040 A 
HETATM   10  C   UNL     1      -2.035   7.413 -33.012  1.00  0.00     0.020 A 
HETATM   11  C   UNL     1      -1.701   8.140 -31.866  1.00  0.00     0.031 A 
HETATM   12  C   UNL     1      -0.916   7.500 -30.900  1.00  0.00     0.043 A 
HETATM   13  C   UNL     1      -0.446   6.196 -31.046  1.00  0.00    -0.001 A 
HETATM   14  N   UNL     1      -0.470   7.956 -29.684  1.00  0.00    -0.359 N 
HETATM   15  C   UNL     1       0.319   5.882 -29.877  1.00  0.00    -0.027 A 
HETATM   16  C   UNL     1      -0.792   5.482 -32.213  1.00  0.00     0.032 A 
HETATM   17  C   UNL     1       1.026   4.604 -29.590  1.00  0.00     0.051 C 
HETATM   18  C   UNL     1       0.261   6.988 -29.043  1.00  0.00     0.012 A 
HETATM   19  C   UNL     1       0.830   7.208 -27.689  1.00  0.00     0.068 C 
HETATM   20  H   UNL     1      -0.674   8.872 -29.309  1.00  0.00     0.166 HD
ENDBRANCH   7   9
ENDBRANCH   6   7
ENDBRANCH   5   6
ENDBRANCH   1   5
BRANCH   2  21
HETATM   21  N   UNL     1      -6.225   2.090 -32.444  1.00  0.00    -0.167 N 
HETATM   22  C   UNL     1      -6.476   1.471 -31.251  1.00  0.00     0.345 A 
HETATM   23  O   UNL     1      -6.328   1.901 -30.118  1.00  0.00    -0.245 OA
HETATM   24  N   UNL     1      -7.011   0.228 -31.532  1.00  0.00    -0.319 N 
HETATM   25  C   UNL     1      -7.153  -0.013 -32.960  1.00  0.00     0.141 A 
HETATM   26  H   UNL     1      -7.288  -0.404 -30.794  1.00  0.00     0.166 HD
HETATM   27  C   UNL     1      -6.651   1.346 -33.514  1.00  0.00     0.279 A 
HETATM   28  C   UNL     1      -8.637  -0.185 -33.295  1.00  0.00     0.055 C 
HETATM   29  O   UNL     1      -6.675   1.704 -34.687  1.00  0.00    -0.268 OA
BRANCH  25  30
HETATM   30  C   UNL     1      -6.301  -1.176 -33.460  1.00  0.00    -0.021 A 
HETATM   31  C   UNL     1      -4.951  -1.332 -33.099  1.00  0.00     0.010 A 
HETATM   32  C   UNL     1      -4.196  -2.408 -33.576  1.00  0.00     0.001 A 
HETATM   33  C   UNL     1      -4.773  -3.346 -34.428  1.00  0.00     0.000 A 
HETATM   34  C   UNL     1      -6.105  -3.209 -34.804  1.00  0.00     0.001 A 
HETATM   35  C   UNL     1      -6.860  -2.136 -34.326  1.00  0.00     0.010 A 
ENDBRANCH  25  30
ENDBRANCH   2  21
TORSDOF 6
ENDMDL
MODEL 3
REMARK VINA RESULT:      -9.9      2.147      9.898
REMARK  6 active torsions:
REMARK  status: ('A' for Active; 'I' for Inactive)
REMARK    1  A    between atoms: C_7  and  C_8 
REMARK    2  A    between atoms: C_8  and  O_9 
REMARK    3  A    between atoms: O_9  and  C_10 
REMARK    4  A    between atoms: C_10  and  C_11 
REMARK       I    between atoms: C_11  and  N_12 
REMARK    5  A    between atoms: N_12  and  N_13 
REMARK    6  A    between atoms: C_17  and  C_18 
ROOT
HETATM    1  C   UNL     1      -2.343   4.503 -31.950  1.00  0.00     0.261 C 
HETATM    2  N   UNL     1      -3.079   5.633 -32.238  1.00  0.00    -0.255 N 
HETATM    3  O   UNL     1      -1.243   4.525 -31.401  1.00  0.00    -0.269 OA
HETATM    4  H   UNL     1      -4.062   5.562 -32.505  1.00  0.00     0.191 HD
ENDROOT
BRANCH   1   5
HETATM    5  C   UNL     1      -3.040   3.193 -32.329  1.00  0.00     0.283 C 
BRANCH   5   6
HETATM    6  O   UNL     1      -2.929   2.149 -31.360  1.00  0.00    -0.308 OA
BRANCH   6   7
HETATM    7  C   UNL     1      -4.070   1.468 -31.098  1.00  0.00     0.293 C 
HETATM    8  O   UNL     1      -4.981   1.877 -30.392  1.00  0.00    -0.259 OA
BRANCH   7   9
HETATM    9  C   UNL     1      -4.118   0.190 -31.855  1.00  0.00     0.040 A 
HETATM   10  C   UNL     1      -3.120  -0.758 -31.602  1.00  0.00     0.020 A 
HETATM   11  C   UNL     1      -3.129  -2.004 -32.236  1.00  0.00     0.031 A 
HETATM   12  C   UNL     1      -4.171  -2.266 -33.132  1.00  0.00     0.043 A 
HETATM   13  C   UNL     1      -5.171  -1.340 -33.426  1.00  0.00    -0.001 A 
HETATM   14  N   UNL     1      -4.443  -3.397 -33.862  1.00  0.00    -0.359 N 
HETATM   15  C   UNL     1      -6.052  -1.947 -34.378  1.00  0.00    -0.027 A 
HETATM   16  C   UNL     1      -5.140  -0.086 -32.778  1.00  0.00     0.032 A 
HETATM   17  C   UNL     1      -7.260  -1.332 -34.995  1.00  0.00     0.051 C 
HETATM   18  C   UNL     1      -5.583  -3.231 -34.605  1.00  0.00     0.012 A 
HETATM   19  C   UNL     1      -6.124  -4.320 -35.458  1.00  0.00     0.068 C 
HETATM   20  H   UNL     1      -3.886  -4.241 -33.833  1.00  0.00     0.166 HD
ENDBRANCH   7   9
ENDBRANCH   6   7
ENDBRANCH   5   6
ENDBRANCH   1   5
BRANCH   2  21
HETATM   21  N   UNL     1      -2.637   6.844 -31.752  1.00  0.00    -0.167 N 
HETATM   22  C   UNL     1      -1.988   7.783 -32.505  1.00  0.00     0.345 A 
HETATM   23  O   UNL     1      -1.701   7.750 -33.690  1.00  0.00    -0.245 OA
HETATM   24  N   UNL     1      -1.742   8.872 -31.689  1.00  0.00    -0.319 N 
HETATM   25  C   UNL     1      -2.251   8.690 -30.339  1.00  0.00     0.141 A 
HETATM   26  H   UNL     1      -1.280   9.699 -32.042  1.00  0.00     0.166 HD
HETATM   27  C   UNL     1      -2.912   7.294 -30.486  1.00  0.00     0.279 A 
HETATM   28  C   UNL     1      -3.331   9.740 -30.063  1.00  0.00     0.055 C 
HETATM   29  O   UNL     1      -3.594   6.722 -29.641  1.00  0.00    -0.268 OA
BRANCH  25  30
HETATM   30  C   UNL     1      -1.154   8.686 -29.279  1.00  0.00    -0.021 A 
HETATM   31  C   UNL     1      -0.059   7.805 -29.330  1.00  0.00     0.010 A 
HETATM   32  C   UNL     1       0.930   7.825 -28.341  1.00  0.00     0.001 A 
HETATM   33  C   UNL     1       0.841   8.720 -27.280  1.00  0.00     0.000 A 
HETATM   34  C   UNL     1      -0.236   9.596 -27.204  1.00  0.00     0.001 A 
HETATM   35  C   UNL     1      -1.223   9.579 -28.192  1.00  0.00     0.010 A 
ENDBRANCH  25  30
ENDBRANCH   2  21
TORSDOF 6
ENDMDL
MODEL 4
REMARK VINA RESULT:      -9.5      2.126      9.172
REMARK  6 active torsions:
REMARK  status: ('A' for Active; 'I' for Inactive)
REMARK    1  A    between atoms: C_7  and  C_8 
REMARK    2  A    between atoms: C_8  and  O_9 
REMARK    3  A    between atoms: O_9  and  C_10 
REMARK    4  A    between atoms: C_10  and  C_11 
REMARK       I    between atoms: C_11  and  N_12 
REMARK    5  A    between atoms: N_12  and  N_13 
REMARK    6  A    between atoms: C_17  and  C_18 
ROOT
HETATM    1  C   UNL     1      -6.471   4.712 -33.291  1.00  0.00     0.261 C 
HETATM    2  N   UNL     1      -5.172   4.324 -33.040  1.00  0.00    -0.255 N 
HETATM    3  O   UNL     1      -6.870   5.871 -33.195  1.00  0.00    -0.269 OA
HETATM    4  H   UNL     1      -4.838   3.402 -33.324  1.00  0.00     0.191 HD
ENDROOT
BRANCH   1   5
HETATM    5  C   UNL     1      -7.382   3.571 -33.754  1.00  0.00     0.283 C 
BRANCH   5   6
HETATM    6  O   UNL     1      -6.717   2.514 -34.448  1.00  0.00    -0.308 OA
BRANCH   6   7
HETATM    7  C   UNL     1      -7.314   1.300 -34.380  1.00  0.00     0.293 C 
HETATM    8  O   UNL     1      -8.499   1.091 -34.601  1.00  0.00    -0.259 OA
BRANCH   7   9
HETATM    9  C   UNL     1      -6.324   0.230 -34.089  1.00  0.00     0.040 A 
HETATM   10  C   UNL     1      -5.253   0.541 -33.245  1.00  0.00     0.020 A 
HETATM   11  C   UNL     1      -4.311  -0.427 -32.884  1.00  0.00     0.031 A 
HETATM   12  C   UNL     1      -4.481  -1.717 -33.399  1.00  0.00     0.043 A 
HETATM   13  C   UNL     1      -5.523  -2.060 -34.260  1.00  0.00    -0.001 A 
HETATM   14  N   UNL     1      -3.738  -2.854 -33.192  1.00  0.00    -0.359 N 
HETATM   15  C   UNL     1      -5.373  -3.448 -34.582  1.00  0.00    -0.027 A 
HETATM   16  C   UNL     1      -6.459  -1.066 -34.615  1.00  0.00     0.032 A 
HETATM   17  C   UNL     1      -6.246  -4.254 -35.479  1.00  0.00     0.051 C 
HETATM   18  C   UNL     1      -4.272  -3.912 -33.882  1.00  0.00     0.012 A 
HETATM   19  C   UNL     1      -3.682  -5.273 -33.801  1.00  0.00     0.068 C 
HETATM   20  H   UNL     1      -2.924  -2.901 -32.594  1.00  0.00     0.166 HD
ENDBRANCH   7   9
ENDBRANCH   6   7
ENDBRANCH   5   6
ENDBRANCH   1   5
BRANCH   2  21
HETATM   21  N   UNL     1      -4.228   5.304 -32.820  1.00  0.00    -0.167 N 
HETATM   22  C   UNL     1      -3.492   5.897 -33.808  1.00  0.00     0.345 A 
HETATM   23  O   UNL     1      -3.530   5.704 -35.013  1.00  0.00    -0.245 OA
HETATM   24  N   UNL     1      -2.690   6.852 -33.213  1.00  0.00    -0.319 N 
HETATM   25  C   UNL     1      -2.887   6.935 -31.774  1.00  0.00     0.141 A 
HETATM   26  H   UNL     1      -2.066   7.429 -33.759  1.00  0.00     0.166 HD
HETATM   27  C   UNL     1      -4.012   5.882 -31.595  1.00  0.00     0.279 A 
HETATM   28  C   UNL     1      -3.427   8.324 -31.421  1.00  0.00     0.055 C 
HETATM   29  O   UNL     1      -4.626   5.645 -30.560  1.00  0.00    -0.268 OA
BRANCH  25  30
HETATM   30  C   UNL     1      -1.641   6.571 -30.974  1.00  0.00    -0.021 A 
HETATM   31  C   UNL     1      -0.974   7.497 -30.153  1.00  0.00     0.010 A 
HETATM   32  C   UNL     1       0.168   7.133 -29.433  1.00  0.00     0.001 A 
HETATM   33  C   UNL     1       0.669   5.838 -29.523  1.00  0.00     0.000 A 
HETATM   34  C   UNL     1       0.031   4.906 -30.333  1.00  0.00     0.001 A 
HETATM   35  C   UNL     1      -1.111   5.268 -31.051  1.00  0.00     0.010 A 
ENDBRANCH  25  30
ENDBRANCH   2  21
TORSDOF 6
ENDMDL
MODEL 5
REMARK VINA RESULT:      -9.5      2.009      9.193
REMARK  6 active torsions:
REMARK  status: ('A' for Active; 'I' for Inactive)
REMARK    1  A    between atoms: C_7  and  C_8 
REMARK    2  A    between atoms: C_8  and  O_9 
REMARK    3  A    between atoms: O_9  and  C_10 
REMARK    4  A    between atoms: C_10  and  C_11 
REMARK       I    between atoms: C_11  and  N_12 
REMARK    5  A    between atoms: N_12  and  N_13 
REMARK    6  A    between atoms: C_17  and  C_18 
ROOT
HETATM    1  C   UNL     1      -4.011   4.542 -33.448  1.00  0.00     0.261 C 
HETATM    2  N   UNL     1      -4.164   5.908 -33.337  1.00  0.00    -0.255 N 
HETATM    3  O   UNL     1      -2.984   3.941 -33.137  1.00  0.00    -0.269 OA
HETATM    4  H   UNL     1      -5.087   6.338 -33.411  1.00  0.00     0.191 HD
ENDROOT
BRANCH   1   5
HETATM    5  C   UNL     1      -5.262   3.815 -33.951  1.00  0.00     0.283 C 
BRANCH   5   6
HETATM    6  O   UNL     1      -5.919   3.003 -32.977  1.00  0.00    -0.308 OA
BRANCH   6   7
HETATM    7  C   UNL     1      -6.991   2.305 -33.421  1.00  0.00     0.293 C 
HETATM    8  O   UNL     1      -8.105   2.777 -33.604  1.00  0.00    -0.259 OA
BRANCH   7   9
HETATM    9  C   UNL     1      -6.622   0.904 -33.748  1.00  0.00     0.040 A 
HETATM   10  C   UNL     1      -7.338   0.257 -34.761  1.00  0.00     0.020 A 
HETATM   11  C   UNL     1      -7.014  -1.043 -35.159  1.00  0.00     0.031 A 
HETATM   12  C   UNL     1      -5.947  -1.672 -34.508  1.00  0.00     0.043 A 
HETATM   13  C   UNL     1      -5.224  -1.069 -33.479  1.00  0.00    -0.001 A 
HETATM   14  N   UNL     1      -5.399  -2.915 -34.711  1.00  0.00    -0.359 N 
HETATM   15  C   UNL     1      -4.224  -2.002 -33.053  1.00  0.00    -0.027 A 
HETATM   16  C   UNL     1      -5.572   0.242 -33.090  1.00  0.00     0.032 A 
HETATM   17  C   UNL     1      -3.222  -1.804 -31.970  1.00  0.00     0.051 C 
HETATM   18  C   UNL     1      -4.347  -3.125 -33.856  1.00  0.00     0.012 A 
HETATM   19  C   UNL     1      -3.551  -4.379 -33.893  1.00  0.00     0.068 C 
HETATM   20  H   UNL     1      -5.719  -3.571 -35.411  1.00  0.00     0.166 HD
ENDBRANCH   7   9
ENDBRANCH   6   7
ENDBRANCH   5   6
ENDBRANCH   1   5
BRANCH   2  21
HETATM   21  N   UNL     1      -3.176   6.628 -32.701  1.00  0.00    -0.167 N 
HETATM   22  C   UNL     1      -2.129   7.228 -33.345  1.00  0.00     0.345 A 
HETATM   23  O   UNL     1      -1.880   7.260 -34.539  1.00  0.00    -0.245 OA
HETATM   24  N   UNL     1      -1.376   7.885 -32.390  1.00  0.00    -0.319 N 
HETATM   25  C   UNL     1      -1.927   7.753 -31.050  1.00  0.00     0.141 A 
HETATM   26  H   UNL     1      -0.553   8.415 -32.643  1.00  0.00     0.166 HD
HETATM   27  C   UNL     1      -3.203   6.929 -31.364  1.00  0.00     0.279 A 
HETATM   28  C   UNL     1      -2.328   9.137 -30.533  1.00  0.00     0.055 C 
HETATM   29  O   UNL     1      -4.093   6.640 -30.570  1.00  0.00    -0.268 OA
BRANCH  25  30
HETATM   30  C   UNL     1      -1.000   7.015 -30.089  1.00  0.00    -0.021 A 
HETATM   31  C   UNL     1      -0.154   5.973 -30.508  1.00  0.00     0.010 A 
HETATM   32  C   UNL     1       0.683   5.314 -29.602  1.00  0.00     0.001 A 
HETATM   33  C   UNL     1       0.688   5.680 -28.260  1.00  0.00     0.000 A 
HETATM   34  C   UNL     1      -0.144   6.704 -27.821  1.00  0.00     0.001 A 
HETATM   35  C   UNL     1      -0.979   7.363 -28.725  1.00  0.00     0.010 A 
ENDBRANCH  25  30
ENDBRANCH   2  21
TORSDOF 6
ENDMDL
MODEL 6
REMARK VINA RESULT:      -9.4      1.845      9.055
REMARK  6 active torsions:
REMARK  status: ('A' for Active; 'I' for Inactive)
REMARK    1  A    between atoms: C_7  and  C_8 
REMARK    2  A    between atoms: C_8  and  O_9 
REMARK    3  A    between atoms: O_9  and  C_10 
REMARK    4  A    between atoms: C_10  and  C_11 
REMARK       I    between atoms: C_11  and  N_12 
REMARK    5  A    between atoms: N_12  and  N_13 
REMARK    6  A    between atoms: C_17  and  C_18 
ROOT
HETATM    1  C   UNL     1      -5.532   4.961 -31.865  1.00  0.00     0.261 C 
HETATM    2  N   UNL     1      -4.610   4.727 -30.867  1.00  0.00    -0.255 N 
HETATM    3  O   UNL     1      -5.326   5.700 -32.826  1.00  0.00    -0.269 OA
HETATM    4  H   UNL     1      -4.741   3.961 -30.205  1.00  0.00     0.191 HD
ENDROOT
BRANCH   1   5
HETATM    5  C   UNL     1      -6.836   4.174 -31.704  1.00  0.00     0.283 C 
BRANCH   5   6
HETATM    6  O   UNL     1      -6.681   2.755 -31.651  1.00  0.00    -0.308 OA
BRANCH   6   7
HETATM    7  C   UNL     1      -6.488   2.141 -32.842  1.00  0.00     0.293 C 
HETATM    8  O   UNL     1      -6.903   2.553 -33.916  1.00  0.00    -0.259 OA
BRANCH   7   9
HETATM    9  C   UNL     1      -5.624   0.941 -32.693  1.00  0.00     0.040 A 
HETATM   10  C   UNL     1      -4.715   0.916 -31.630  1.00  0.00     0.020 A 
HETATM   11  C   UNL     1      -3.907  -0.200 -31.395  1.00  0.00     0.031 A 
HETATM   12  C   UNL     1      -4.042  -1.290 -32.262  1.00  0.00     0.043 A 
HETATM   13  C   UNL     1      -4.920  -1.295 -33.345  1.00  0.00    -0.001 A 
HETATM   14  N   UNL     1      -3.408  -2.509 -32.251  1.00  0.00    -0.359 N 
HETATM   15  C   UNL     1      -4.782  -2.559 -34.003  1.00  0.00    -0.027 A 
HETATM   16  C   UNL     1      -5.723  -0.155 -33.566  1.00  0.00     0.032 A 
HETATM   17  C   UNL     1      -5.512  -3.017 -35.218  1.00  0.00     0.051 C 
HETATM   18  C   UNL     1      -3.855  -3.295 -33.282  1.00  0.00     0.012 A 
HETATM   19  C   UNL     1      -3.359  -4.682 -33.477  1.00  0.00     0.068 C 
HETATM   20  H   UNL     1      -2.723  -2.788 -31.562  1.00  0.00     0.166 HD
ENDBRANCH   7   9
ENDBRANCH   6   7
ENDBRANCH   5   6
ENDBRANCH   1   5
BRANCH   2  21
HETATM   21  N   UNL     1      -3.334   5.221 -31.025  1.00  0.00    -0.167 N 
HETATM   22  C   UNL     1      -2.327   4.554 -31.668  1.00  0.00     0.345 A 
HETATM   23  O   UNL     1      -2.356   3.462 -32.211  1.00  0.00    -0.245 OA
HETATM   24  N   UNL     1      -1.216   5.376 -31.664  1.00  0.00    -0.319 N 
HETATM   25  C   UNL     1      -1.465   6.655 -31.018  1.00  0.00     0.141 A 
HETATM   26  H   UNL     1      -0.350   5.091 -32.101  1.00  0.00     0.166 HD
HETATM   27  C   UNL     1      -2.966   6.492 -30.667  1.00  0.00     0.279 A 
HETATM   28  C   UNL     1      -1.299   7.778 -32.046  1.00  0.00     0.055 C 
HETATM   29  O   UNL     1      -3.700   7.357 -30.198  1.00  0.00    -0.268 OA
BRANCH  25  30
HETATM   30  C   UNL     1      -0.614   6.874 -29.771  1.00  0.00    -0.021 A 
HETATM   31  C   UNL     1       0.107   5.835 -29.157  1.00  0.00     0.010 A 
HETATM   32  C   UNL     1       0.877   6.067 -28.013  1.00  0.00     0.001 A 
HETATM   33  C   UNL     1       0.937   7.341 -27.456  1.00  0.00     0.000 A 
HETATM   34  C   UNL     1       0.227   8.383 -28.041  1.00  0.00     0.001 A 
HETATM   35  C   UNL     1      -0.540   8.153 -29.184  1.00  0.00     0.010 A 
ENDBRANCH  25  30
ENDBRANCH   2  21
TORSDOF 6
ENDMDL
MODEL 7
REMARK VINA RESULT:      -9.2      1.910      9.266
REMARK  6 active torsions:
REMARK  status: ('A' for Active; 'I' for Inactive)
REMARK    1  A    between atoms: C_7  and  C_8 
REMARK    2  A    between atoms: C_8  and  O_9 
REMARK    3  A    between atoms: O_9  and  C_10 
REMARK    4  A    between atoms: C_10  and  C_11 
REMARK       I    between atoms: C_11  and  N_12 
REMARK    5  A    between atoms: N_12  and  N_13 
REMARK    6  A    between atoms: C_17  and  C_18 
ROOT
HETATM    1  C   UNL     1      -5.518   4.837 -32.552  1.00  0.00     0.261 C 
HETATM    2  N   UNL     1      -4.643   4.594 -31.514  1.00  0.00    -0.255 N 
HETATM    3  O   UNL     1      -5.283   5.612 -33.477  1.00  0.00    -0.269 OA
HETATM    4  H   UNL     1      -4.787   3.804 -30.885  1.00  0.00     0.191 HD
ENDROOT
BRANCH   1   5
HETATM    5  C   UNL     1      -6.806   4.011 -32.486  1.00  0.00     0.283 C 
BRANCH   5   6
HETATM    6  O   UNL     1      -6.722   2.714 -33.076  1.00  0.00    -0.308 OA
BRANCH   6   7
HETATM    7  C   UNL     1      -6.896   1.671 -32.230  1.00  0.00     0.293 C 
HETATM    8  O   UNL     1      -7.362   1.757 -31.102  1.00  0.00    -0.259 OA
BRANCH   7   9
HETATM    9  C   UNL     1      -6.531   0.385 -32.880  1.00  0.00     0.040 A 
HETATM   10  C   UNL     1      -7.283  -0.026 -33.985  1.00  0.00     0.020 A 
HETATM   11  C   UNL     1      -6.967  -1.197 -34.680  1.00  0.00     0.031 A 
HETATM   12  C   UNL     1      -5.871  -1.941 -34.229  1.00  0.00     0.043 A 
HETATM   13  C   UNL     1      -5.111  -1.576 -33.119  1.00  0.00    -0.001 A 
HETATM   14  N   UNL     1      -5.325  -3.097 -34.729  1.00  0.00    -0.359 N 
HETATM   15  C   UNL     1      -4.090  -2.566 -32.953  1.00  0.00    -0.027 A 
HETATM   16  C   UNL     1      -5.451  -0.392 -32.429  1.00  0.00     0.032 A 
HETATM   17  C   UNL     1      -3.046  -2.603 -31.892  1.00  0.00     0.051 C 
HETATM   18  C   UNL     1      -4.238  -3.479 -33.985  1.00  0.00     0.012 A 
HETATM   19  C   UNL     1      -3.436  -4.680 -34.335  1.00  0.00     0.068 C 
HETATM   20  H   UNL     1      -5.668  -3.582 -35.547  1.00  0.00     0.166 HD
ENDBRANCH   7   9
ENDBRANCH   6   7
ENDBRANCH   5   6
ENDBRANCH   1   5
BRANCH   2  21
HETATM   21  N   UNL     1      -3.374   5.126 -31.590  1.00  0.00    -0.167 N 
HETATM   22  C   UNL     1      -2.324   4.520 -32.222  1.00  0.00     0.345 A 
HETATM   23  O   UNL     1      -2.301   3.458 -32.823  1.00  0.00    -0.245 OA
HETATM   24  N   UNL     1      -1.236   5.366 -32.125  1.00  0.00    -0.319 N 
HETATM   25  C   UNL     1      -1.545   6.602 -31.423  1.00  0.00     0.141 A 
HETATM   26  H   UNL     1      -0.345   5.126 -32.538  1.00  0.00     0.166 HD
HETATM   27  C   UNL     1      -3.056   6.384 -31.148  1.00  0.00     0.279 A 
HETATM   28  C   UNL     1      -1.366   7.783 -32.381  1.00  0.00     0.055 C 
HETATM   29  O   UNL     1      -3.831   7.205 -30.666  1.00  0.00    -0.268 OA
BRANCH  25  30
HETATM   30  C   UNL     1      -0.755   6.772 -30.130  1.00  0.00    -0.021 A 
HETATM   31  C   UNL     1      -0.675   8.001 -29.450  1.00  0.00     0.010 A 
HETATM   32  C   UNL     1       0.060   8.126 -28.267  1.00  0.00     0.001 A 
HETATM   33  C   UNL     1       0.734   7.027 -27.743  1.00  0.00     0.000 A 
HETATM   34  C   UNL     1       0.676   5.804 -28.400  1.00  0.00     0.001 A 
HETATM   35  C   UNL     1      -0.059   5.678 -29.580  1.00  0.00     0.010 A 
ENDBRANCH  25  30
ENDBRANCH   2  21
TORSDOF 6
ENDMDL
MODEL 8
REMARK VINA RESULT:      -8.7      3.417      4.362
REMARK  6 active torsions:
REMARK  status: ('A' for Active; 'I' for Inactive)
REMARK    1  A    between atoms: C_7  and  C_8 
REMARK    2  A    between atoms: C_8  and  O_9 
REMARK    3  A    between atoms: O_9  and  C_10 
REMARK    4  A    between atoms: C_10  and  C_11 
REMARK       I    between atoms: C_11  and  N_12 
REMARK    5  A    between atoms: N_12  and  N_13 
REMARK    6  A    between atoms: C_17  and  C_18 
ROOT
HETATM    1  C   UNL     1      -5.886   3.672 -33.455  1.00  0.00     0.261 C 
HETATM    2  N   UNL     1      -6.244   2.400 -33.062  1.00  0.00    -0.255 N 
HETATM    3  O   UNL     1      -6.472   4.309 -34.328  1.00  0.00    -0.269 OA
HETATM    4  H   UNL     1      -5.865   1.991 -32.207  1.00  0.00     0.191 HD
ENDROOT
BRANCH   1   5
HETATM    5  C   UNL     1      -4.708   4.257 -32.669  1.00  0.00     0.283 C 
BRANCH   5   6
HETATM    6  O   UNL     1      -4.494   5.657 -32.858  1.00  0.00    -0.308 OA
BRANCH   6   7
HETATM    7  C   UNL     1      -3.309   5.999 -33.417  1.00  0.00     0.293 C 
HETATM    8  O   UNL     1      -3.144   6.259 -34.601  1.00  0.00    -0.259 OA
BRANCH   7   9
HETATM    9  C   UNL     1      -2.242   6.109 -32.389  1.00  0.00     0.040 A 
HETATM   10  C   UNL     1      -1.196   5.181 -32.428  1.00  0.00     0.020 A 
HETATM   11  C   UNL     1      -0.131   5.253 -31.527  1.00  0.00     0.031 A 
HETATM   12  C   UNL     1      -0.150   6.287 -30.585  1.00  0.00     0.043 A 
HETATM   13  C   UNL     1      -1.184   7.218 -30.499  1.00  0.00    -0.001 A 
HETATM   14  N   UNL     1       0.766   6.611 -29.613  1.00  0.00    -0.359 N 
HETATM   15  C   UNL     1      -0.870   8.112 -29.425  1.00  0.00    -0.027 A 
HETATM   16  C   UNL     1      -2.253   7.123 -31.417  1.00  0.00     0.032 A 
HETATM   17  C   UNL     1      -1.689   9.262 -28.953  1.00  0.00     0.051 C 
HETATM   18  C   UNL     1       0.358   7.720 -28.916  1.00  0.00     0.012 A 
HETATM   19  C   UNL     1       1.186   8.308 -27.832  1.00  0.00     0.068 C 
HETATM   20  H   UNL     1       1.629   6.110 -29.454  1.00  0.00     0.166 HD
ENDBRANCH   7   9
ENDBRANCH   6   7
ENDBRANCH   5   6
ENDBRANCH   1   5
BRANCH   2  21
HETATM   21  N   UNL     1      -7.414   1.867 -33.559  1.00  0.00    -0.167 N 
HETATM   22  C   UNL     1      -7.479   1.037 -34.644  1.00  0.00     0.345 A 
HETATM   23  O   UNL     1      -6.571   0.613 -35.340  1.00  0.00    -0.245 OA
HETATM   24  N   UNL     1      -8.803   0.677 -34.812  1.00  0.00    -0.319 N 
HETATM   25  C   UNL     1      -9.677   1.259 -33.805  1.00  0.00     0.141 A 
HETATM   26  H   UNL     1      -9.087   0.051 -35.552  1.00  0.00     0.166 HD
HETATM   27  C   UNL     1      -8.630   2.009 -32.941  1.00  0.00     0.279 A 
HETATM   28  C   UNL     1     -10.309   0.135 -32.979  1.00  0.00     0.055 C 
HETATM   29  O   UNL     1      -8.844   2.584 -31.878  1.00  0.00    -0.268 OA
BRANCH  25  30
HETATM   30  C   UNL     1     -10.715   2.212 -34.388  1.00  0.00    -0.021 A 
HETATM   31  C   UNL     1     -10.396   3.521 -34.790  1.00  0.00     0.010 A 
HETATM   32  C   UNL     1     -11.371   4.372 -35.319  1.00  0.00     0.001 A 
HETATM   33  C   UNL     1     -12.685   3.934 -35.452  1.00  0.00     0.000 A 
HETATM   34  C   UNL     1     -13.027   2.646 -35.056  1.00  0.00     0.001 A 
HETATM   35  C   UNL     1     -12.053   1.795 -34.529  1.00  0.00     0.010 A 
ENDBRANCH  25  30
ENDBRANCH   2  21
TORSDOF 6
ENDMDL
MODEL 9
REMARK VINA RESULT:      -8.6      4.895      8.867
REMARK  6 active torsions:
REMARK  status: ('A' for Active; 'I' for Inactive)
REMARK    1  A    between atoms: C_7  and  C_8 
REMARK    2  A    between atoms: C_8  and  O_9 
REMARK    3  A    between atoms: O_9  and  C_10 
REMARK    4  A    between atoms: C_10  and  C_11 
REMARK       I    between atoms: C_11  and  N_12 
REMARK    5  A    between atoms: N_12  and  N_13 
REMARK    6  A    between atoms: C_17  and  C_18 
ROOT
HETATM    1  C   UNL     1      -6.745   3.553 -30.323  1.00  0.00     0.261 C 
HETATM    2  N   UNL     1      -7.067   2.713 -31.369  1.00  0.00    -0.255 N 
HETATM    3  O   UNL     1      -5.688   3.493 -29.698  1.00  0.00    -0.269 OA
HETATM    4  H   UNL     1      -7.854   2.922 -31.984  1.00  0.00     0.191 HD
ENDROOT
BRANCH   1   5
HETATM    5  C   UNL     1      -7.809   4.615 -30.030  1.00  0.00     0.283 C 
BRANCH   5   6
HETATM    6  O   UNL     1      -9.152   4.214 -30.303  1.00  0.00    -0.308 OA
BRANCH   6   7
HETATM    7  C   UNL     1      -9.810   4.955 -31.225  1.00  0.00     0.293 C 
HETATM    8  O   UNL     1      -9.727   6.171 -31.335  1.00  0.00    -0.259 OA
BRANCH   7   9
HETATM    9  C   UNL     1     -10.584   4.092 -32.155  1.00  0.00     0.040 A 
HETATM   10  C   UNL     1      -9.920   3.574 -33.273  1.00  0.00     0.020 A 
HETATM   11  C   UNL     1     -10.567   2.712 -34.163  1.00  0.00     0.031 A 
HETATM   12  C   UNL     1     -11.901   2.387 -33.895  1.00  0.00     0.043 A 
HETATM   13  C   UNL     1     -12.603   2.900 -32.804  1.00  0.00    -0.001 A 
HETATM   14  N   UNL     1     -12.760   1.555 -34.571  1.00  0.00    -0.359 N 
HETATM   15  C   UNL     1     -13.928   2.359 -32.854  1.00  0.00    -0.027 A 
HETATM   16  C   UNL     1     -11.932   3.772 -31.920  1.00  0.00     0.032 A 
HETATM   17  C   UNL     1     -15.039   2.631 -31.901  1.00  0.00     0.051 C 
HETATM   18  C   UNL     1     -13.981   1.510 -33.948  1.00  0.00     0.012 A 
HETATM   19  C   UNL     1     -15.083   0.652 -34.453  1.00  0.00     0.068 C 
HETATM   20  H   UNL     1     -12.511   1.034 -35.401  1.00  0.00     0.166 HD
ENDBRANCH   7   9
ENDBRANCH   6   7
ENDBRANCH   5   6
ENDBRANCH   1   5
BRANCH   2  21
HETATM   21  N   UNL     1      -6.095   1.860 -31.846  1.00  0.00    -0.167 N 
HETATM   22  C   UNL     1      -5.066   2.248 -32.659  1.00  0.00     0.345 A 
HETATM   23  O   UNL     1      -4.806   3.360 -33.088  1.00  0.00    -0.245 OA
HETATM   24  N   UNL     1      -4.279   1.136 -32.891  1.00  0.00    -0.319 N 
HETATM   25  C   UNL     1      -4.764  -0.051 -32.204  1.00  0.00     0.141 A 
HETATM   26  H   UNL     1      -3.445   1.191 -33.460  1.00  0.00     0.166 HD
HETATM   27  C   UNL     1      -5.980   0.551 -31.453  1.00  0.00     0.279 A 
HETATM   28  C   UNL     1      -3.714  -0.510 -31.190  1.00  0.00     0.055 C 
HETATM   29  O   UNL     1      -6.681  -0.025 -30.627  1.00  0.00    -0.268 OA
BRANCH  25  30
HETATM   30  C   UNL     1      -5.185  -1.166 -33.156  1.00  0.00    -0.021 A 
HETATM   31  C   UNL     1      -6.471  -1.232 -33.720  1.00  0.00     0.010 A 
HETATM   32  C   UNL     1      -6.827  -2.269 -34.588  1.00  0.00     0.001 A 
HETATM   33  C   UNL     1      -5.907  -3.263 -34.906  1.00  0.00     0.000 A 
HETATM   34  C   UNL     1      -4.631  -3.223 -34.356  1.00  0.00     0.001 A 
HETATM   35  C   UNL     1      -4.274  -2.187 -33.491  1.00  0.00     0.010 A 
ENDBRANCH  25  30
ENDBRANCH   2  21
TORSDOF 6
ENDMDL
MODEL 10
REMARK VINA RESULT:      -8.6      2.280      9.507
REMARK  6 active torsions:
REMARK  status: ('A' for Active; 'I' for Inactive)
REMARK    1  A    between atoms: C_7  and  C_8 
REMARK    2  A    between atoms: C_8  and  O_9 
REMARK    3  A    between atoms: O_9  and  C_10 
REMARK    4  A    between atoms: C_10  and  C_11 
REMARK       I    between atoms: C_11  and  N_12 
REMARK    5  A    between atoms: N_12  and  N_13 
REMARK    6  A    between atoms: C_17  and  C_18 
ROOT
HETATM    1  C   UNL     1      -2.639   4.105 -32.178  1.00  0.00     0.261 C 
HETATM    2  N   UNL     1      -3.497   5.182 -32.258  1.00  0.00    -0.255 N 
HETATM    3  O   UNL     1      -1.440   4.203 -31.924  1.00  0.00    -0.269 OA
HETATM    4  H   UNL     1      -4.508   5.045 -32.269  1.00  0.00     0.191 HD
ENDROOT
BRANCH   1   5
HETATM    5  C   UNL     1      -3.322   2.750 -32.387  1.00  0.00     0.283 C 
BRANCH   5   6
HETATM    6  O   UNL     1      -3.333   1.899 -31.240  1.00  0.00    -0.308 OA
BRANCH   6   7
HETATM    7  C   UNL     1      -3.518   0.581 -31.489  1.00  0.00     0.293 C 
HETATM    8  O   UNL     1      -2.743  -0.308 -31.161  1.00  0.00    -0.259 OA
BRANCH   7   9
HETATM    9  C   UNL     1      -4.833   0.336 -32.136  1.00  0.00     0.040 A 
HETATM   10  C   UNL     1      -4.890  -0.607 -33.168  1.00  0.00     0.020 A 
HETATM   11  C   UNL     1      -6.101  -0.929 -33.788  1.00  0.00     0.031 A 
HETATM   12  C   UNL     1      -7.252  -0.273 -33.338  1.00  0.00     0.043 A 
HETATM   13  C   UNL     1      -7.233   0.688 -32.328  1.00  0.00    -0.001 A 
HETATM   14  N   UNL     1      -8.558  -0.412 -33.738  1.00  0.00    -0.359 N 
HETATM   15  C   UNL     1      -8.579   1.141 -32.141  1.00  0.00    -0.027 A 
HETATM   16  C   UNL     1      -5.998   1.000 -31.719  1.00  0.00     0.032 A 
HETATM   17  C   UNL     1      -9.046   2.174 -31.176  1.00  0.00     0.051 C 
HETATM   18  C   UNL     1      -9.376   0.419 -33.015  1.00  0.00     0.012 A 
HETATM   19  C   UNL     1     -10.847   0.439 -33.221  1.00  0.00     0.068 C 
HETATM   20  H   UNL     1      -8.870  -1.055 -34.453  1.00  0.00     0.166 HD
ENDBRANCH   7   9
ENDBRANCH   6   7
ENDBRANCH   5   6
ENDBRANCH   1   5
BRANCH   2  21
HETATM   21  N   UNL     1      -3.027   6.422 -31.882  1.00  0.00    -0.167 N 
HETATM   22  C   UNL     1      -2.392   7.290 -32.727  1.00  0.00     0.345 A 
HETATM   23  O   UNL     1      -2.142   7.159 -33.915  1.00  0.00    -0.245 OA
HETATM   24  N   UNL     1      -2.109   8.436 -32.009  1.00  0.00    -0.319 N 
HETATM   25  C   UNL     1      -2.577   8.369 -30.633  1.00  0.00     0.141 A 
HETATM   26  H   UNL     1      -1.649   9.227 -32.440  1.00  0.00     0.166 HD
HETATM   27  C   UNL     1      -3.257   6.975 -30.649  1.00  0.00     0.279 A 
HETATM   28  C   UNL     1      -3.636   9.451 -30.409  1.00  0.00     0.055 C 
HETATM   29  O   UNL     1      -3.918   6.480 -29.741  1.00  0.00    -0.268 OA
BRANCH  25  30
HETATM   30  C   UNL     1      -1.447   8.434 -29.610  1.00  0.00    -0.021 A 
HETATM   31  C   UNL     1      -1.467   9.321 -28.520  1.00  0.00     0.010 A 
HETATM   32  C   UNL     1      -0.415   9.359 -27.600  1.00  0.00     0.001 A 
HETATM   33  C   UNL     1       0.681   8.515 -27.755  1.00  0.00     0.000 A 
HETATM   34  C   UNL     1       0.727   7.633 -28.829  1.00  0.00     0.001 A 
HETATM   35  C   UNL     1      -0.325   7.594 -29.747  1.00  0.00     0.010 A 
ENDBRANCH  25  30
ENDBRANCH   2  21
TORSDOF 6
ENDMDL
