MODEL 1
REMARK VINA RESULT:      -9.1      0.000      0.000
REMARK  7 active torsions:
REMARK  status: ('A' for Active; 'I' for Inactive)
REMARK    1  A    between atoms: O_2  and  C_3 
REMARK    2  A    between atoms: C_5  and  C_6 
REMARK    3  A    between atoms: C_8  and  C_9 
REMARK    4  A    between atoms: C_9  and  N_10 
REMARK    5  A    between atoms: N_10  and  C_13 
REMARK    6  A    between atoms: C_13  and  C_14 
REMARK    7  A    between atoms: C_24  and  O_25 
ROOT
HETATM    1  C   UNL     1      -4.596   2.853 -32.114  1.00  0.00    -0.007 A 
HETATM    2  C   UNL     1      -5.684   2.450 -32.913  1.00  0.00     0.025 A 
HETATM    3  C   UNL     1      -6.633   1.512 -32.469  1.00  0.00     0.001 A 
HETATM    4  C   UNL     1      -6.492   0.982 -31.186  1.00  0.00     0.073 A 
HETATM    5  C   UNL     1      -5.443   1.374 -30.362  1.00  0.00     0.038 A 
HETATM    6  C   UNL     1      -4.502   2.298 -30.827  1.00  0.00     0.016 A 
ENDROOT
BRANCH   3   7
HETATM    7  C   UNL     1      -7.731   1.066 -33.389  1.00  0.00     0.274 C 
BRANCH   7   8
HETATM    8  N   UNL     1      -7.582  -0.354 -33.810  1.00  0.00    -0.067 N 
HETATM    9  H   UNL     1      -7.479  -0.949 -32.981  1.00  0.00     0.277 HD
HETATM   10  H   UNL     1      -8.447  -0.665 -34.269  1.00  0.00     0.277 HD
BRANCH   8  11
HETATM   11  C   UNL     1      -6.440  -0.631 -34.729  1.00  0.00     0.272 C 
BRANCH  11  12
HETATM   12  C   UNL     1      -5.960  -2.047 -34.539  1.00  0.00    -0.022 A 
HETATM   13  C   UNL     1      -4.901  -2.372 -33.639  1.00  0.00    -0.018 A 
HETATM   14  C   UNL     1      -4.444  -3.714 -33.592  1.00  0.00    -0.025 A 
HETATM   15  C   UNL     1      -4.266  -1.438 -32.781  1.00  0.00     0.013 A 
HETATM   16  C   UNL     1      -3.397  -4.074 -32.731  1.00  0.00     0.012 A 
HETATM   17  C   UNL     1      -5.039  -4.687 -34.407  1.00  0.00     0.012 A 
HETATM   18  C   UNL     1      -2.789  -3.131 -31.905  1.00  0.00     0.001 A 
HETATM   19  C   UNL     1      -3.227  -1.815 -31.927  1.00  0.00     0.001 A 
HETATM   20  C   UNL     1      -6.078  -4.360 -35.273  1.00  0.00     0.002 A 
HETATM   21  C   UNL     1      -6.533  -3.050 -35.345  1.00  0.00     0.010 A 
ENDBRANCH  11  12
ENDBRANCH   8  11
ENDBRANCH   7   8
ENDBRANCH   3   7
BRANCH   4  22
HETATM   22  O   UNL     1      -7.386   0.040 -30.771  1.00  0.00    -0.360 OA
HETATM   23  H   UNL     1      -8.271   0.452 -30.707  1.00  0.00     0.217 HD
ENDBRANCH   4  22
BRANCH   1  24
HETATM   24  C   UNL     1      -3.592   3.795 -32.651  1.00  0.00     0.070 A 
HETATM   25  N   UNL     1      -2.436   3.866 -31.936  1.00  0.00    -0.224 NA
HETATM   26  C   UNL     1      -1.484   4.722 -32.375  1.00  0.00     0.164 A 
HETATM   27  C   UNL     1      -1.620   5.517 -33.500  1.00  0.00     0.058 A 
HETATM   28  C   UNL     1      -2.798   5.429 -34.227  1.00  0.00     0.007 A 
HETATM   29  C   UNL     1      -3.798   4.558 -33.800  1.00  0.00     0.032 A 
BRANCH  26  30
HETATM   30  O   UNL     1      -0.291   4.840 -31.693  1.00  0.00    -0.339 OA
HETATM   31  C   UNL     1      -0.400   5.569 -30.476  1.00  0.00     0.211 C 
ENDBRANCH  26  30
ENDBRANCH   1  24
TORSDOF 7
ENDMDL
MODEL 2
REMARK VINA RESULT:      -9.1      1.480      1.924
REMARK  7 active torsions:
REMARK  status: ('A' for Active; 'I' for Inactive)
REMARK    1  A    between atoms: O_2  and  C_3 
REMARK    2  A    between atoms: C_5  and  C_6 
REMARK    3  A    between atoms: C_8  and  C_9 
REMARK    4  A    between atoms: C_9  and  N_10 
REMARK    5  A    between atoms: N_10  and  C_13 
REMARK    6  A    between atoms: C_13  and  C_14 
REMARK    7  A    between atoms: C_24  and  O_25 
ROOT
HETATM    1  C   UNL     1      -5.871   3.729 -32.440  1.00  0.00    -0.007 A 
HETATM    2  C   UNL     1      -6.858   3.139 -33.254  1.00  0.00     0.025 A 
HETATM    3  C   UNL     1      -8.030   2.573 -32.720  1.00  0.00     0.001 A 
HETATM    4  C   UNL     1      -8.218   2.618 -31.339  1.00  0.00     0.073 A 
HETATM    5  C   UNL     1      -7.276   3.213 -30.507  1.00  0.00     0.038 A 
HETATM    6  C   UNL     1      -6.111   3.759 -31.057  1.00  0.00     0.016 A 
ENDROOT
BRANCH   3   7
HETATM    7  C   UNL     1      -9.012   1.893 -33.627  1.00  0.00     0.274 C 
BRANCH   7   8
HETATM    8  N   UNL     1      -8.471   0.638 -34.218  1.00  0.00    -0.067 N 
HETATM    9  H   UNL     1      -9.090   0.319 -34.972  1.00  0.00     0.277 HD
HETATM   10  H   UNL     1      -7.567   0.833 -34.664  1.00  0.00     0.277 HD
BRANCH   8  11
HETATM   11  C   UNL     1      -8.284  -0.489 -33.259  1.00  0.00     0.272 C 
BRANCH  11  12
HETATM   12  C   UNL     1      -6.957  -1.159 -33.506  1.00  0.00    -0.022 A 
HETATM   13  C   UNL     1      -5.805  -0.867 -32.716  1.00  0.00    -0.018 A 
HETATM   14  C   UNL     1      -4.571  -1.467 -33.076  1.00  0.00    -0.025 A 
HETATM   15  C   UNL     1      -5.805  -0.008 -31.588  1.00  0.00     0.013 A 
HETATM   16  C   UNL     1      -3.410  -1.197 -32.335  1.00  0.00     0.012 A 
HETATM   17  C   UNL     1      -4.506  -2.335 -34.175  1.00  0.00     0.012 A 
HETATM   18  C   UNL     1      -3.443  -0.342 -31.235  1.00  0.00     0.001 A 
HETATM   19  C   UNL     1      -4.642   0.247 -30.859  1.00  0.00     0.001 A 
HETATM   20  C   UNL     1      -5.639  -2.621 -34.930  1.00  0.00     0.002 A 
HETATM   21  C   UNL     1      -6.855  -2.035 -34.604  1.00  0.00     0.010 A 
ENDBRANCH  11  12
ENDBRANCH   8  11
ENDBRANCH   7   8
ENDBRANCH   3   7
BRANCH   4  22
HETATM   22  O   UNL     1      -9.332   2.031 -30.816  1.00  0.00    -0.360 OA
HETATM   23  H   UNL     1      -9.061   1.424 -30.098  1.00  0.00     0.217 HD
ENDBRANCH   4  22
BRANCH   1  24
HETATM   24  C   UNL     1      -4.629   4.255 -33.045  1.00  0.00     0.070 A 
HETATM   25  N   UNL     1      -3.518   4.125 -32.271  1.00  0.00    -0.224 NA
HETATM   26  C   UNL     1      -2.352   4.600 -32.770  1.00  0.00     0.164 A 
HETATM   27  C   UNL     1      -2.232   5.200 -34.011  1.00  0.00     0.058 A 
HETATM   28  C   UNL     1      -3.370   5.319 -34.795  1.00  0.00     0.007 A 
HETATM   29  C   UNL     1      -4.584   4.840 -34.310  1.00  0.00     0.032 A 
BRANCH  26  30
HETATM   30  O   UNL     1      -1.191   4.499 -32.032  1.00  0.00    -0.339 OA
HETATM   31  C   UNL     1      -1.115   5.429 -30.959  1.00  0.00     0.211 C 
ENDBRANCH  26  30
ENDBRANCH   1  24
TORSDOF 7
ENDMDL
MODEL 3
REMARK VINA RESULT:      -9.0      1.956      3.166
REMARK  7 active torsions:
REMARK  status: ('A' for Active; 'I' for Inactive)
REMARK    1  A    between atoms: O_2  and  C_3 
REMARK    2  A    between atoms: C_5  and  C_6 
REMARK    3  A    between atoms: C_8  and  C_9 
REMARK    4  A    between atoms: C_9  and  N_10 
REMARK    5  A    between atoms: N_10  and  C_13 
REMARK    6  A    between atoms: C_13  and  C_14 
REMARK    7  A    between atoms: C_24  and  O_25 
ROOT
HETATM    1  C   UNL     1      -3.677   3.938 -32.013  1.00  0.00    -0.007 A 
HETATM    2  C   UNL     1      -3.033   2.703 -31.796  1.00  0.00     0.025 A 
HETATM    3  C   UNL     1      -3.674   1.627 -31.156  1.00  0.00     0.001 A 
HETATM    4  C   UNL     1      -4.994   1.793 -30.740  1.00  0.00     0.073 A 
HETATM    5  C   UNL     1      -5.668   2.990 -30.958  1.00  0.00     0.038 A 
HETATM    6  C   UNL     1      -5.009   4.053 -31.586  1.00  0.00     0.016 A 
ENDROOT
BRANCH   3   7
HETATM    7  C   UNL     1      -2.917   0.361 -30.887  1.00  0.00     0.274 C 
BRANCH   7   8
HETATM    8  N   UNL     1      -3.435  -0.793 -31.672  1.00  0.00    -0.067 N 
HETATM    9  H   UNL     1      -2.862  -1.623 -31.482  1.00  0.00     0.277 HD
HETATM   10  H   UNL     1      -4.381  -1.028 -31.348  1.00  0.00     0.277 HD
BRANCH   8  11
HETATM   11  C   UNL     1      -3.485  -0.589 -33.149  1.00  0.00     0.272 C 
BRANCH  11  12
HETATM   12  C   UNL     1      -4.845  -0.970 -33.675  1.00  0.00    -0.022 A 
HETATM   13  C   UNL     1      -5.151  -2.303 -34.081  1.00  0.00    -0.018 A 
HETATM   14  C   UNL     1      -6.423  -2.557 -34.656  1.00  0.00    -0.025 A 
HETATM   15  C   UNL     1      -4.265  -3.402 -33.953  1.00  0.00     0.013 A 
HETATM   16  C   UNL     1      -6.761  -3.850 -35.082  1.00  0.00     0.012 A 
HETATM   17  C   UNL     1      -7.350  -1.515 -34.799  1.00  0.00     0.012 A 
HETATM   18  C   UNL     1      -5.864  -4.908 -34.947  1.00  0.00     0.001 A 
HETATM   19  C   UNL     1      -4.619  -4.684 -34.378  1.00  0.00     0.001 A 
HETATM   20  C   UNL     1      -7.043  -0.221 -34.389  1.00  0.00     0.002 A 
HETATM   21  C   UNL     1      -5.799   0.053 -33.836  1.00  0.00     0.010 A 
ENDBRANCH  11  12
ENDBRANCH   8  11
ENDBRANCH   7   8
ENDBRANCH   3   7
BRANCH   4  22
HETATM   22  O   UNL     1      -5.602   0.766 -30.080  1.00  0.00    -0.360 OA
HETATM   23  H   UNL     1      -6.508   0.658 -30.432  1.00  0.00     0.217 HD
ENDBRANCH   4  22
BRANCH   1  24
HETATM   24  C   UNL     1      -2.940   5.058 -32.635  1.00  0.00     0.070 A 
HETATM   25  N   UNL     1      -3.142   6.269 -32.050  1.00  0.00    -0.224 NA
HETATM   26  C   UNL     1      -2.501   7.334 -32.586  1.00  0.00     0.164 A 
HETATM   27  C   UNL     1      -1.659   7.257 -33.681  1.00  0.00     0.058 A 
HETATM   28  C   UNL     1      -1.453   6.015 -34.264  1.00  0.00     0.007 A 
HETATM   29  C   UNL     1      -2.099   4.900 -33.737  1.00  0.00     0.032 A 
BRANCH  26  30
HETATM   30  O   UNL     1      -2.666   8.589 -32.038  1.00  0.00    -0.339 OA
HETATM   31  C   UNL     1      -3.756   8.675 -31.129  1.00  0.00     0.211 C 
ENDBRANCH  26  30
ENDBRANCH   1  24
TORSDOF 7
ENDMDL
MODEL 4
REMARK VINA RESULT:      -8.9      0.811      2.080
REMARK  7 active torsions:
REMARK  status: ('A' for Active; 'I' for Inactive)
REMARK    1  A    between atoms: O_2  and  C_3 
REMARK    2  A    between atoms: C_5  and  C_6 
REMARK    3  A    between atoms: C_8  and  C_9 
REMARK    4  A    between atoms: C_9  and  N_10 
REMARK    5  A    between atoms: N_10  and  C_13 
REMARK    6  A    between atoms: C_13  and  C_14 
REMARK    7  A    between atoms: C_24  and  O_25 
ROOT
HETATM    1  C   UNL     1      -4.618   3.497 -32.117  1.00  0.00    -0.007 A 
HETATM    2  C   UNL     1      -5.616   3.035 -32.998  1.00  0.00     0.025 A 
HETATM    3  C   UNL     1      -6.718   2.283 -32.552  1.00  0.00     0.001 A 
HETATM    4  C   UNL     1      -6.824   2.004 -31.190  1.00  0.00     0.073 A 
HETATM    5  C   UNL     1      -5.871   2.464 -30.289  1.00  0.00     0.038 A 
HETATM    6  C   UNL     1      -4.774   3.199 -30.753  1.00  0.00     0.016 A 
ENDROOT
BRANCH   3   7
HETATM    7  C   UNL     1      -7.712   1.755 -33.544  1.00  0.00     0.274 C 
BRANCH   7   8
HETATM    8  N   UNL     1      -7.693   0.270 -33.638  1.00  0.00    -0.067 N 
HETATM    9  H   UNL     1      -7.366  -0.127 -32.751  1.00  0.00     0.277 HD
HETATM   10  H   UNL     1      -8.652  -0.076 -33.761  1.00  0.00     0.277 HD
BRANCH   8  11
HETATM   11  C   UNL     1      -6.852  -0.289 -34.737  1.00  0.00     0.272 C 
BRANCH  11  12
HETATM   12  C   UNL     1      -5.683  -1.044 -34.157  1.00  0.00    -0.022 A 
HETATM   13  C   UNL     1      -5.525  -2.450 -34.343  1.00  0.00    -0.018 A 
HETATM   14  C   UNL     1      -4.450  -3.100 -33.682  1.00  0.00    -0.025 A 
HETATM   15  C   UNL     1      -6.374  -3.251 -35.148  1.00  0.00     0.013 A 
HETATM   16  C   UNL     1      -4.265  -4.483 -33.827  1.00  0.00     0.012 A 
HETATM   17  C   UNL     1      -3.568  -2.361 -32.882  1.00  0.00     0.012 A 
HETATM   18  C   UNL     1      -5.122  -5.243 -34.621  1.00  0.00     0.001 A 
HETATM   19  C   UNL     1      -6.172  -4.626 -35.284  1.00  0.00     0.001 A 
HETATM   20  C   UNL     1      -3.727  -0.989 -32.716  1.00  0.00     0.002 A 
HETATM   21  C   UNL     1      -4.779  -0.334 -33.343  1.00  0.00     0.010 A 
ENDBRANCH  11  12
ENDBRANCH   8  11
ENDBRANCH   7   8
ENDBRANCH   3   7
BRANCH   4  22
HETATM   22  O   UNL     1      -7.869   1.238 -30.763  1.00  0.00    -0.360 OA
HETATM   23  H   UNL     1      -8.671   1.796 -30.718  1.00  0.00     0.217 HD
ENDBRANCH   4  22
BRANCH   1  24
HETATM   24  C   UNL     1      -3.447   4.230 -32.643  1.00  0.00     0.070 A 
HETATM   25  N   UNL     1      -2.349   4.203 -31.841  1.00  0.00    -0.224 NA
HETATM   26  C   UNL     1      -1.250   4.869 -32.267  1.00  0.00     0.164 A 
HETATM   27  C   UNL     1      -1.184   5.564 -33.462  1.00  0.00     0.058 A 
HETATM   28  C   UNL     1      -2.307   5.577 -34.276  1.00  0.00     0.007 A 
HETATM   29  C   UNL     1      -3.453   4.902 -33.865  1.00  0.00     0.032 A 
BRANCH  26  30
HETATM   30  O   UNL     1      -0.105   4.880 -31.497  1.00  0.00    -0.339 OA
HETATM   31  C   UNL     1       0.332   6.187 -31.145  1.00  0.00     0.211 C 
ENDBRANCH  26  30
ENDBRANCH   1  24
TORSDOF 7
ENDMDL
MODEL 5
REMARK VINA RESULT:      -8.9      3.260      6.805
REMARK  7 active torsions:
REMARK  status: ('A' for Active; 'I' for Inactive)
REMARK    1  A    between atoms: O_2  and  C_3 
REMARK    2  A    between atoms: C_5  and  C_6 
REMARK    3  A    between atoms: C_8  and  C_9 
REMARK    4  A    between atoms: C_9  and  N_10 
REMARK    5  A    between atoms: N_10  and  C_13 
REMARK    6  A    between atoms: C_13  and  C_14 
REMARK    7  A    between atoms: C_24  and  O_25 
ROOT
HETATM    1  C   UNL     1      -9.644   1.793 -33.024  1.00  0.00    -0.007 A 
HETATM    2  C   UNL     1      -8.628   2.629 -32.520  1.00  0.00     0.025 A 
HETATM    3  C   UNL     1      -7.705   2.188 -31.555  1.00  0.00     0.001 A 
HETATM    4  C   UNL     1      -7.796   0.872 -31.103  1.00  0.00     0.073 A 
HETATM    5  C   UNL     1      -8.770   0.011 -31.596  1.00  0.00     0.038 A 
HETATM    6  C   UNL     1      -9.688   0.473 -32.546  1.00  0.00     0.016 A 
ENDROOT
BRANCH   3   7
HETATM    7  C   UNL     1      -6.690   3.143 -31.000  1.00  0.00     0.274 C 
BRANCH   7   8
HETATM    8  N   UNL     1      -5.301   2.615 -31.085  1.00  0.00    -0.067 N 
HETATM    9  H   UNL     1      -4.653   3.280 -30.647  1.00  0.00     0.277 HD
HETATM   10  H   UNL     1      -5.230   1.752 -30.532  1.00  0.00     0.277 HD
BRANCH   8  11
HETATM   11  C   UNL     1      -4.811   2.327 -32.465  1.00  0.00     0.272 C 
BRANCH  11  12
HETATM   12  C   UNL     1      -4.431   0.873 -32.582  1.00  0.00    -0.022 A 
HETATM   13  C   UNL     1      -5.159  -0.033 -33.410  1.00  0.00    -0.018 A 
HETATM   14  C   UNL     1      -4.796  -1.405 -33.389  1.00  0.00    -0.025 A 
HETATM   15  C   UNL     1      -6.230   0.343 -34.260  1.00  0.00     0.013 A 
HETATM   16  C   UNL     1      -5.493  -2.332 -34.178  1.00  0.00     0.012 A 
HETATM   17  C   UNL     1      -3.738  -1.839 -32.579  1.00  0.00     0.012 A 
HETATM   18  C   UNL     1      -6.546  -1.930 -34.997  1.00  0.00     0.001 A 
HETATM   19  C   UNL     1      -6.910  -0.593 -35.042  1.00  0.00     0.001 A 
HETATM   20  C   UNL     1      -3.029  -0.943 -31.783  1.00  0.00     0.002 A 
HETATM   21  C   UNL     1      -3.375   0.402 -31.779  1.00  0.00     0.010 A 
ENDBRANCH  11  12
ENDBRANCH   8  11
ENDBRANCH   7   8
ENDBRANCH   3   7
BRANCH   4  22
HETATM   22  O   UNL     1      -6.929   0.455 -30.136  1.00  0.00    -0.360 OA
HETATM   23  H   UNL     1      -7.028   1.035 -29.354  1.00  0.00     0.217 HD
ENDBRANCH   4  22
BRANCH   1  24
HETATM   24  C   UNL     1     -10.628   2.323 -33.991  1.00  0.00     0.070 A 
HETATM   25  N   UNL     1     -11.774   1.598 -34.094  1.00  0.00    -0.224 NA
HETATM   26  C   UNL     1     -12.708   2.031 -34.974  1.00  0.00     0.164 A 
HETATM   27  C   UNL     1     -12.561   3.160 -35.762  1.00  0.00     0.058 A 
HETATM   28  C   UNL     1     -11.392   3.897 -35.641  1.00  0.00     0.007 A 
HETATM   29  C   UNL     1     -10.412   3.477 -34.745  1.00  0.00     0.032 A 
BRANCH  26  30
HETATM   30  O   UNL     1     -13.891   1.338 -35.126  1.00  0.00    -0.339 OA
HETATM   31  C   UNL     1     -14.317   0.673 -33.943  1.00  0.00     0.211 C 
ENDBRANCH  26  30
ENDBRANCH   1  24
TORSDOF 7
ENDMDL
MODEL 6
REMARK VINA RESULT:      -8.8      2.132      3.558
REMARK  7 active torsions:
REMARK  status: ('A' for Active; 'I' for Inactive)
REMARK    1  A    between atoms: O_2  and  C_3 
REMARK    2  A    between atoms: C_5  and  C_6 
REMARK    3  A    between atoms: C_8  and  C_9 
REMARK    4  A    between atoms: C_9  and  N_10 
REMARK    5  A    between atoms: N_10  and  C_13 
REMARK    6  A    between atoms: C_13  and  C_14 
REMARK    7  A    between atoms: C_24  and  O_25 
ROOT
HETATM    1  C   UNL     1      -5.108   4.155 -33.105  1.00  0.00    -0.007 A 
HETATM    2  C   UNL     1      -5.410   3.658 -31.821  1.00  0.00     0.025 A 
HETATM    3  C   UNL     1      -6.710   3.262 -31.458  1.00  0.00     0.001 A 
HETATM    4  C   UNL     1      -7.722   3.354 -32.412  1.00  0.00     0.073 A 
HETATM    5  C   UNL     1      -7.457   3.817 -33.695  1.00  0.00     0.038 A 
HETATM    6  C   UNL     1      -6.159   4.219 -34.034  1.00  0.00     0.016 A 
ENDROOT
BRANCH   3   7
HETATM    7  C   UNL     1      -6.987   2.809 -30.055  1.00  0.00     0.274 C 
BRANCH   7   8
HETATM    8  N   UNL     1      -5.892   1.969 -29.498  1.00  0.00    -0.067 N 
HETATM    9  H   UNL     1      -4.993   2.276 -29.884  1.00  0.00     0.277 HD
HETATM   10  H   UNL     1      -5.826   2.124 -28.484  1.00  0.00     0.277 HD
BRANCH   8  11
HETATM   11  C   UNL     1      -6.027   0.502 -29.737  1.00  0.00     0.272 C 
BRANCH  11  12
HETATM   12  C   UNL     1      -5.275   0.114 -30.984  1.00  0.00    -0.022 A 
HETATM   13  C   UNL     1      -5.947  -0.238 -32.193  1.00  0.00    -0.018 A 
HETATM   14  C   UNL     1      -5.168  -0.685 -33.291  1.00  0.00    -0.025 A 
HETATM   15  C   UNL     1      -7.351  -0.174 -32.375  1.00  0.00     0.013 A 
HETATM   16  C   UNL     1      -5.788  -1.054 -34.494  1.00  0.00     0.012 A 
HETATM   17  C   UNL     1      -3.773  -0.760 -33.179  1.00  0.00     0.012 A 
HETATM   18  C   UNL     1      -7.173  -0.985 -34.639  1.00  0.00     0.001 A 
HETATM   19  C   UNL     1      -7.952  -0.541 -33.581  1.00  0.00     0.001 A 
HETATM   20  C   UNL     1      -3.128  -0.404 -31.998  1.00  0.00     0.002 A 
HETATM   21  C   UNL     1      -3.872   0.025 -30.906  1.00  0.00     0.010 A 
ENDBRANCH  11  12
ENDBRANCH   8  11
ENDBRANCH   7   8
ENDBRANCH   3   7
BRANCH   4  22
HETATM   22  O   UNL     1      -8.991   3.012 -32.047  1.00  0.00    -0.360 OA
HETATM   23  H   UNL     1      -8.945   2.335 -31.343  1.00  0.00     0.217 HD
ENDBRANCH   4  22
BRANCH   1  24
HETATM   24  C   UNL     1      -3.739   4.615 -33.418  1.00  0.00     0.070 A 
HETATM   25  N   UNL     1      -2.836   4.445 -32.414  1.00  0.00    -0.224 NA
HETATM   26  C   UNL     1      -1.568   4.860 -32.640  1.00  0.00     0.164 A 
HETATM   27  C   UNL     1      -1.144   5.437 -33.825  1.00  0.00     0.058 A 
HETATM   28  C   UNL     1      -2.071   5.596 -34.845  1.00  0.00     0.007 A 
HETATM   29  C   UNL     1      -3.384   5.180 -34.642  1.00  0.00     0.032 A 
BRANCH  26  30
HETATM   30  O   UNL     1      -0.607   4.717 -31.661  1.00  0.00    -0.339 OA
HETATM   31  C   UNL     1      -0.807   5.567 -30.538  1.00  0.00     0.211 C 
ENDBRANCH  26  30
ENDBRANCH   1  24
TORSDOF 7
ENDMDL
MODEL 7
REMARK VINA RESULT:      -8.7      2.304      8.367
REMARK  7 active torsions:
REMARK  status: ('A' for Active; 'I' for Inactive)
REMARK    1  A    between atoms: O_2  and  C_3 
REMARK    2  A    between atoms: C_5  and  C_6 
REMARK    3  A    between atoms: C_8  and  C_9 
REMARK    4  A    between atoms: C_9  and  N_10 
REMARK    5  A    between atoms: N_10  and  C_13 
REMARK    6  A    between atoms: C_13  and  C_14 
REMARK    7  A    between atoms: C_24  and  O_25 
ROOT
HETATM    1  C   UNL     1      -6.177  -1.000 -34.270  1.00  0.00    -0.007 A 
HETATM    2  C   UNL     1      -5.578  -0.200 -33.278  1.00  0.00     0.025 A 
HETATM    3  C   UNL     1      -5.828   1.180 -33.177  1.00  0.00     0.001 A 
HETATM    4  C   UNL     1      -6.713   1.763 -34.083  1.00  0.00     0.073 A 
HETATM    5  C   UNL     1      -7.341   0.999 -35.061  1.00  0.00     0.038 A 
HETATM    6  C   UNL     1      -7.069  -0.370 -35.154  1.00  0.00     0.016 A 
ENDROOT
BRANCH   3   7
HETATM    7  C   UNL     1      -5.106   1.997 -32.146  1.00  0.00     0.274 C 
BRANCH   7   8
HETATM    8  N   UNL     1      -4.064   2.878 -32.741  1.00  0.00    -0.067 N 
HETATM    9  H   UNL     1      -3.449   2.323 -33.346  1.00  0.00     0.277 HD
HETATM   10  H   UNL     1      -4.513   3.567 -33.357  1.00  0.00     0.277 HD
BRANCH   8  11
HETATM   11  C   UNL     1      -3.214   3.614 -31.760  1.00  0.00     0.272 C 
BRANCH  11  12
HETATM   12  C   UNL     1      -2.524   4.767 -32.441  1.00  0.00    -0.022 A 
HETATM   13  C   UNL     1      -2.419   6.052 -31.830  1.00  0.00    -0.018 A 
HETATM   14  C   UNL     1      -1.840   7.109 -32.579  1.00  0.00    -0.025 A 
HETATM   15  C   UNL     1      -2.860   6.352 -30.516  1.00  0.00     0.013 A 
HETATM   16  C   UNL     1      -1.730   8.393 -32.022  1.00  0.00     0.012 A 
HETATM   17  C   UNL     1      -1.375   6.875 -33.880  1.00  0.00     0.012 A 
HETATM   18  C   UNL     1      -2.179   8.655 -30.729  1.00  0.00     0.001 A 
HETATM   19  C   UNL     1      -2.739   7.634 -29.976  1.00  0.00     0.001 A 
HETATM   20  C   UNL     1      -1.472   5.615 -34.461  1.00  0.00     0.002 A 
HETATM   21  C   UNL     1      -2.047   4.569 -33.751  1.00  0.00     0.010 A 
ENDBRANCH  11  12
ENDBRANCH   8  11
ENDBRANCH   7   8
ENDBRANCH   3   7
BRANCH   4  22
HETATM   22  O   UNL     1      -6.923   3.108 -34.014  1.00  0.00    -0.360 OA
HETATM   23  H   UNL     1      -7.277   3.326 -33.129  1.00  0.00     0.217 HD
ENDBRANCH   4  22
BRANCH   1  24
HETATM   24  C   UNL     1      -5.834  -2.434 -34.373  1.00  0.00     0.070 A 
HETATM   25  N   UNL     1      -4.678  -2.790 -33.749  1.00  0.00    -0.224 NA
HETATM   26  C   UNL     1      -4.307  -4.090 -33.820  1.00  0.00     0.164 A 
HETATM   27  C   UNL     1      -5.033  -5.065 -34.482  1.00  0.00     0.058 A 
HETATM   28  C   UNL     1      -6.214  -4.692 -35.106  1.00  0.00     0.007 A 
HETATM   29  C   UNL     1      -6.623  -3.362 -35.052  1.00  0.00     0.032 A 
BRANCH  26  30
HETATM   30  O   UNL     1      -3.145  -4.513 -33.209  1.00  0.00    -0.339 OA
HETATM   31  C   UNL     1      -2.866  -3.840 -31.987  1.00  0.00     0.211 C 
ENDBRANCH  26  30
ENDBRANCH   1  24
TORSDOF 7
ENDMDL
MODEL 8
REMARK VINA RESULT:      -8.6      2.508      4.893
REMARK  7 active torsions:
REMARK  status: ('A' for Active; 'I' for Inactive)
REMARK    1  A    between atoms: O_2  and  C_3 
REMARK    2  A    between atoms: C_5  and  C_6 
REMARK    3  A    between atoms: C_8  and  C_9 
REMARK    4  A    between atoms: C_9  and  N_10 
REMARK    5  A    between atoms: N_10  and  C_13 
REMARK    6  A    between atoms: C_13  and  C_14 
REMARK    7  A    between atoms: C_24  and  O_25 
ROOT
HETATM    1  C   UNL     1      -1.692   5.564 -32.164  1.00  0.00    -0.007 A 
HETATM    2  C   UNL     1      -3.072   5.280 -32.174  1.00  0.00     0.025 A 
HETATM    3  C   UNL     1      -3.814   5.211 -33.367  1.00  0.00     0.001 A 
HETATM    4  C   UNL     1      -3.148   5.415 -34.575  1.00  0.00     0.073 A 
HETATM    5  C   UNL     1      -1.782   5.674 -34.605  1.00  0.00     0.038 A 
HETATM    6  C   UNL     1      -1.065   5.752 -33.406  1.00  0.00     0.016 A 
ENDROOT
BRANCH   3   7
HETATM    7  C   UNL     1      -5.295   4.978 -33.314  1.00  0.00     0.274 C 
BRANCH   7   8
HETATM    8  N   UNL     1      -5.679   3.626 -33.805  1.00  0.00    -0.067 N 
HETATM    9  H   UNL     1      -6.423   3.713 -34.505  1.00  0.00     0.277 HD
HETATM   10  H   UNL     1      -4.882   3.203 -34.297  1.00  0.00     0.277 HD
BRANCH   8  11
HETATM   11  C   UNL     1      -6.137   2.671 -32.753  1.00  0.00     0.272 C 
BRANCH  11  12
HETATM   12  C   UNL     1      -5.211   1.484 -32.698  1.00  0.00    -0.022 A 
HETATM   13  C   UNL     1      -5.499   0.268 -33.388  1.00  0.00    -0.018 A 
HETATM   14  C   UNL     1      -4.625  -0.834 -33.205  1.00  0.00    -0.025 A 
HETATM   15  C   UNL     1      -6.610   0.082 -34.249  1.00  0.00     0.013 A 
HETATM   16  C   UNL     1      -4.879  -2.052 -33.854  1.00  0.00     0.012 A 
HETATM   17  C   UNL     1      -3.503  -0.710 -32.375  1.00  0.00     0.012 A 
HETATM   18  C   UNL     1      -5.983  -2.205 -34.689  1.00  0.00     0.001 A 
HETATM   19  C   UNL     1      -6.845  -1.137 -34.891  1.00  0.00     0.001 A 
HETATM   20  C   UNL     1      -3.226   0.484 -31.716  1.00  0.00     0.002 A 
HETATM   21  C   UNL     1      -4.075   1.572 -31.870  1.00  0.00     0.010 A 
ENDBRANCH  11  12
ENDBRANCH   8  11
ENDBRANCH   7   8
ENDBRANCH   3   7
BRANCH   4  22
HETATM   22  O   UNL     1      -3.874   5.392 -35.729  1.00  0.00    -0.360 OA
HETATM   23  H   UNL     1      -3.659   6.190 -36.252  1.00  0.00     0.217 HD
ENDBRANCH   4  22
BRANCH   1  24
HETATM   24  C   UNL     1      -0.971   5.686 -30.880  1.00  0.00     0.070 A 
HETATM   25  N   UNL     1      -1.510   6.578 -30.005  1.00  0.00    -0.224 NA
HETATM   26  C   UNL     1      -0.884   6.741 -28.816  1.00  0.00     0.164 A 
HETATM   27  C   UNL     1       0.259   6.054 -28.446  1.00  0.00     0.058 A 
HETATM   28  C   UNL     1       0.795   5.140 -29.341  1.00  0.00     0.007 A 
HETATM   29  C   UNL     1       0.174   4.951 -30.573  1.00  0.00     0.032 A 
BRANCH  26  30
HETATM   30  O   UNL     1      -1.380   7.632 -27.888  1.00  0.00    -0.339 OA
HETATM   31  C   UNL     1      -2.732   7.382 -27.525  1.00  0.00     0.211 C 
ENDBRANCH  26  30
ENDBRANCH   1  24
TORSDOF 7
ENDMDL
MODEL 9
REMARK VINA RESULT:      -8.6      2.088      5.235
REMARK  7 active torsions:
REMARK  status: ('A' for Active; 'I' for Inactive)
REMARK    1  A    between atoms: O_2  and  C_3 
REMARK    2  A    between atoms: C_5  and  C_6 
REMARK    3  A    between atoms: C_8  and  C_9 
REMARK    4  A    between atoms: C_9  and  N_10 
REMARK    5  A    between atoms: N_10  and  C_13 
REMARK    6  A    between atoms: C_13  and  C_14 
REMARK    7  A    between atoms: C_24  and  O_25 
ROOT
HETATM    1  C   UNL     1      -6.281   3.736 -33.389  1.00  0.00    -0.007 A 
HETATM    2  C   UNL     1      -5.677   2.824 -32.500  1.00  0.00     0.025 A 
HETATM    3  C   UNL     1      -4.297   2.848 -32.226  1.00  0.00     0.001 A 
HETATM    4  C   UNL     1      -3.514   3.820 -32.848  1.00  0.00     0.073 A 
HETATM    5  C   UNL     1      -4.080   4.750 -33.713  1.00  0.00     0.038 A 
HETATM    6  C   UNL     1      -5.453   4.702 -33.982  1.00  0.00     0.016 A 
ENDROOT
BRANCH   3   7
HETATM    7  C   UNL     1      -3.696   1.808 -31.328  1.00  0.00     0.274 C 
BRANCH   7   8
HETATM    8  N   UNL     1      -4.232   0.445 -31.593  1.00  0.00    -0.067 N 
HETATM    9  H   UNL     1      -4.072  -0.152 -30.774  1.00  0.00     0.277 HD
HETATM   10  H   UNL     1      -5.252   0.495 -31.705  1.00  0.00     0.277 HD
BRANCH   8  11
HETATM   11  C   UNL     1      -3.665  -0.243 -32.789  1.00  0.00     0.272 C 
BRANCH  11  12
HETATM   12  C   UNL     1      -4.753  -0.989 -33.518  1.00  0.00    -0.022 A 
HETATM   13  C   UNL     1      -4.687  -2.397 -33.738  1.00  0.00    -0.018 A 
HETATM   14  C   UNL     1      -5.704  -3.006 -34.517  1.00  0.00    -0.025 A 
HETATM   15  C   UNL     1      -3.664  -3.238 -33.232  1.00  0.00     0.013 A 
HETATM   16  C   UNL     1      -5.670  -4.385 -34.770  1.00  0.00     0.012 A 
HETATM   17  C   UNL     1      -6.749  -2.230 -35.037  1.00  0.00     0.012 A 
HETATM   18  C   UNL     1      -4.648  -5.184 -34.262  1.00  0.00     0.001 A 
HETATM   19  C   UNL     1      -3.648  -4.611 -33.489  1.00  0.00     0.001 A 
HETATM   20  C   UNL     1      -6.809  -0.859 -34.806  1.00  0.00     0.002 A 
HETATM   21  C   UNL     1      -5.817  -0.240 -34.057  1.00  0.00     0.010 A 
ENDBRANCH  11  12
ENDBRANCH   8  11
ENDBRANCH   7   8
ENDBRANCH   3   7
BRANCH   4  22
HETATM   22  O   UNL     1      -2.170   3.816 -32.617  1.00  0.00    -0.360 OA
HETATM   23  H   UNL     1      -1.835   4.732 -32.693  1.00  0.00     0.217 HD
ENDBRANCH   4  22
BRANCH   1  24
HETATM   24  C   UNL     1      -7.724   3.630 -33.690  1.00  0.00     0.070 A 
HETATM   25  N   UNL     1      -8.226   2.366 -33.643  1.00  0.00    -0.224 NA
HETATM   26  C   UNL     1      -9.541   2.207 -33.922  1.00  0.00     0.164 A 
HETATM   27  C   UNL     1     -10.393   3.249 -34.245  1.00  0.00     0.058 A 
HETATM   28  C   UNL     1      -9.872   4.534 -34.280  1.00  0.00     0.007 A 
HETATM   29  C   UNL     1      -8.523   4.730 -33.999  1.00  0.00     0.032 A 
BRANCH  26  30
HETATM   30  O   UNL     1     -10.108   0.950 -33.893  1.00  0.00    -0.339 OA
HETATM   31  C   UNL     1      -9.682   0.158 -32.791  1.00  0.00     0.211 C 
ENDBRANCH  26  30
ENDBRANCH   1  24
TORSDOF 7
ENDMDL
MODEL 10
REMARK VINA RESULT:      -8.5      3.010      7.224
REMARK  7 active torsions:
REMARK  status: ('A' for Active; 'I' for Inactive)
REMARK    1  A    between atoms: O_2  and  C_3 
REMARK    2  A    between atoms: C_5  and  C_6 
REMARK    3  A    between atoms: C_8  and  C_9 
REMARK    4  A    between atoms: C_9  and  N_10 
REMARK    5  A    between atoms: N_10  and  C_13 
REMARK    6  A    between atoms: C_13  and  C_14 
REMARK    7  A    between atoms: C_24  and  O_25 
ROOT
HETATM    1  C   UNL     1      -4.747   0.006 -32.884  1.00  0.00    -0.007 A 
HETATM    2  C   UNL     1      -5.337   1.261 -33.137  1.00  0.00     0.025 A 
HETATM    3  C   UNL     1      -4.920   2.431 -32.476  1.00  0.00     0.001 A 
HETATM    4  C   UNL     1      -3.878   2.336 -31.553  1.00  0.00     0.073 A 
HETATM    5  C   UNL     1      -3.258   1.119 -31.296  1.00  0.00     0.038 A 
HETATM    6  C   UNL     1      -3.696  -0.036 -31.955  1.00  0.00     0.016 A 
ENDROOT
BRANCH   3   7
HETATM    7  C   UNL     1      -5.632   3.726 -32.731  1.00  0.00     0.274 C 
BRANCH   7   8
HETATM    8  N   UNL     1      -6.736   3.587 -33.719  1.00  0.00    -0.067 N 
HETATM    9  H   UNL     1      -6.551   4.189 -34.529  1.00  0.00     0.277 HD
HETATM   10  H   UNL     1      -6.749   2.627 -34.083  1.00  0.00     0.277 HD
BRANCH   8  11
HETATM   11  C   UNL     1      -8.099   3.908 -33.202  1.00  0.00     0.272 C 
BRANCH  11  12
HETATM   12  C   UNL     1      -8.986   2.694 -33.305  1.00  0.00    -0.022 A 
HETATM   13  C   UNL     1     -10.164   2.685 -34.110  1.00  0.00    -0.018 A 
HETATM   14  C   UNL     1     -10.996   1.536 -34.075  1.00  0.00    -0.025 A 
HETATM   15  C   UNL     1     -10.568   3.755 -34.949  1.00  0.00     0.013 A 
HETATM   16  C   UNL     1     -12.171   1.491 -34.841  1.00  0.00     0.012 A 
HETATM   17  C   UNL     1     -10.646   0.440 -33.275  1.00  0.00     0.012 A 
HETATM   18  C   UNL     1     -12.542   2.562 -35.651  1.00  0.00     0.001 A 
HETATM   19  C   UNL     1     -11.738   3.691 -35.708  1.00  0.00     0.001 A 
HETATM   20  C   UNL     1      -9.489   0.456 -32.502  1.00  0.00     0.002 A 
HETATM   21  C   UNL     1      -8.667   1.575 -32.511  1.00  0.00     0.010 A 
ENDBRANCH  11  12
ENDBRANCH   8  11
ENDBRANCH   7   8
ENDBRANCH   3   7
BRANCH   4  22
HETATM   22  O   UNL     1      -3.504   3.461 -30.880  1.00  0.00    -0.360 OA
HETATM   23  H   UNL     1      -4.104   3.586 -30.117  1.00  0.00     0.217 HD
ENDBRANCH   4  22
BRANCH   1  24
HETATM   24  C   UNL     1      -5.262  -1.203 -33.560  1.00  0.00     0.070 A 
HETATM   25  N   UNL     1      -4.361  -2.215 -33.685  1.00  0.00    -0.224 NA
HETATM   26  C   UNL     1      -4.774  -3.344 -34.307  1.00  0.00     0.164 A 
HETATM   27  C   UNL     1      -6.049  -3.523 -34.813  1.00  0.00     0.058 A 
HETATM   28  C   UNL     1      -6.963  -2.489 -34.672  1.00  0.00     0.007 A 
HETATM   29  C   UNL     1      -6.568  -1.314 -34.037  1.00  0.00     0.032 A 
BRANCH  26  30
HETATM   30  O   UNL     1      -3.906  -4.404 -34.465  1.00  0.00    -0.339 OA
HETATM   31  C   UNL     1      -3.363  -4.884 -33.242  1.00  0.00     0.211 C 
ENDBRANCH  26  30
ENDBRANCH   1  24
TORSDOF 7
ENDMDL
