MODEL 1
REMARK VINA RESULT:      -9.9      0.000      0.000
REMARK  4 active torsions:
REMARK  status: ('A' for Active; 'I' for Inactive)
REMARK       I    between atoms: C_2  and  N_3 
REMARK    1  A    between atoms: N_7  and  N_8 
REMARK       I    between atoms: N_8  and  C_9 
REMARK    2  A    between atoms: C_9  and  C_10 
REMARK    3  A    between atoms: C_18  and  C_19 
REMARK    4  A    between atoms: C_20  and  O_21 
ROOT
HETATM    1  C   UNL     1      -5.027   1.113 -32.415  1.00  0.00     0.048 A 
HETATM    2  C   UNL     1      -6.337   1.443 -32.002  1.00  0.00     0.009 A 
HETATM    3  C   UNL     1      -7.336   0.501 -32.320  1.00  0.00     0.068 A 
HETATM    4  C   UNL     1      -8.653   0.777 -31.983  1.00  0.00     0.032 A 
HETATM    5  C   UNL     1      -9.018   1.947 -31.311  1.00  0.00     0.002 A 
HETATM    6  C   UNL     1      -8.040   2.859 -30.946  1.00  0.00     0.001 A 
HETATM    7  C   UNL     1      -6.711   2.608 -31.277  1.00  0.00     0.015 A 
HETATM    8  N   UNL     1      -7.076  -0.669 -32.923  1.00  0.00    -0.247 NA
HETATM    9  C   UNL     1      -5.805  -0.987 -33.267  1.00  0.00     0.071 A 
HETATM   10  C   UNL     1      -4.759  -0.109 -33.037  1.00  0.00     0.050 A 
ENDROOT
BRANCH   1  11
HETATM   11  C   UNL     1      -3.849   1.990 -32.202  1.00  0.00     0.272 C 
HETATM   12  N   UNL     1      -3.761   3.090 -33.043  1.00  0.00    -0.243 N 
HETATM   13  H   UNL     1      -4.425   3.205 -33.798  1.00  0.00     0.192 HD
HETATM   14  O   UNL     1      -3.032   1.674 -31.343  1.00  0.00    -0.266 OA
BRANCH  12  15
HETATM   15  N   UNL     1      -2.678   3.904 -32.956  1.00  0.00    -0.181 NA
HETATM   16  C   UNL     1      -2.750   5.031 -32.317  1.00  0.00     0.035 C 
HETATM   17  C   UNL     1      -1.498   5.880 -32.268  1.00  0.00     0.076 C 
HETATM   18  C   UNL     1      -3.922   5.542 -31.510  1.00  0.00     0.076 C 
HETATM   19  C   UNL     1      -1.851   7.315 -32.618  1.00  0.00     0.131 C 
HETATM   20  N   UNL     1      -2.965   7.809 -31.804  1.00  0.00    -0.352 N 
HETATM   21  C   UNL     1      -2.914   9.123 -31.354  1.00  0.00     0.215 C 
HETATM   22  C   UNL     1      -4.186   7.001 -31.855  1.00  0.00     0.131 C 
HETATM   23  C   UNL     1      -4.110   9.641 -30.594  1.00  0.00     0.117 C 
HETATM   24  O   UNL     1      -1.939   9.852 -31.532  1.00  0.00    -0.274 OA
ENDBRANCH  12  15
ENDBRANCH   1  11
BRANCH   9  25
HETATM   25  C   UNL     1      -5.586  -2.332 -33.834  1.00  0.00     0.026 A 
HETATM   26  C   UNL     1      -4.407  -3.072 -33.625  1.00  0.00     0.080 A 
HETATM   27  C   UNL     1      -4.247  -4.356 -34.163  1.00  0.00     0.037 A 
HETATM   28  C   UNL     1      -5.248  -4.915 -34.954  1.00  0.00     0.003 A 
HETATM   29  C   UNL     1      -6.415  -4.197 -35.196  1.00  0.00     0.001 A 
HETATM   30  C   UNL     1      -6.581  -2.924 -34.642  1.00  0.00     0.016 A 
BRANCH  26  31
HETATM   31  O   UNL     1      -3.419  -2.582 -32.806  1.00  0.00    -0.355 OA
HETATM   32  C   UNL     1      -3.029  -3.571 -31.852  1.00  0.00     0.210 C 
ENDBRANCH  26  31
ENDBRANCH   9  25
TORSDOF 4
ENDMDL
MODEL 2
REMARK VINA RESULT:      -9.9      2.482      3.199
REMARK  4 active torsions:
REMARK  status: ('A' for Active; 'I' for Inactive)
REMARK       I    between atoms: C_2  and  N_3 
REMARK    1  A    between atoms: N_7  and  N_8 
REMARK       I    between atoms: N_8  and  C_9 
REMARK    2  A    between atoms: C_9  and  C_10 
REMARK    3  A    between atoms: C_18  and  C_19 
REMARK    4  A    between atoms: C_20  and  O_21 
ROOT
HETATM    1  C   UNL     1      -6.697   3.442 -33.846  1.00  0.00     0.048 A 
HETATM    2  C   UNL     1      -8.111   3.447 -33.833  1.00  0.00     0.009 A 
HETATM    3  C   UNL     1      -8.729   2.187 -33.962  1.00  0.00     0.068 A 
HETATM    4  C   UNL     1     -10.114   2.119 -34.000  1.00  0.00     0.032 A 
HETATM    5  C   UNL     1     -10.917   3.256 -33.885  1.00  0.00     0.002 A 
HETATM    6  C   UNL     1     -10.325   4.497 -33.707  1.00  0.00     0.001 A 
HETATM    7  C   UNL     1      -8.936   4.593 -33.670  1.00  0.00     0.015 A 
HETATM    8  N   UNL     1      -8.043   1.036 -34.033  1.00  0.00    -0.247 NA
HETATM    9  C   UNL     1      -6.689   1.051 -33.994  1.00  0.00     0.071 A 
HETATM   10  C   UNL     1      -5.987   2.241 -33.913  1.00  0.00     0.050 A 
ENDROOT
BRANCH   1  11
HETATM   11  C   UNL     1      -5.867   4.669 -33.755  1.00  0.00     0.272 C 
HETATM   12  N   UNL     1      -4.834   4.761 -34.678  1.00  0.00    -0.243 N 
HETATM   13  H   UNL     1      -4.634   3.985 -35.295  1.00  0.00     0.192 HD
HETATM   14  O   UNL     1      -6.119   5.482 -32.872  1.00  0.00    -0.266 OA
BRANCH  12  15
HETATM   15  N   UNL     1      -3.988   5.821 -34.617  1.00  0.00    -0.181 NA
HETATM   16  C   UNL     1      -2.860   5.727 -33.982  1.00  0.00     0.035 C 
HETATM   17  C   UNL     1      -1.974   6.955 -33.960  1.00  0.00     0.076 C 
HETATM   18  C   UNL     1      -2.272   4.482 -33.358  1.00  0.00     0.076 C 
HETATM   19  C   UNL     1      -1.494   7.201 -32.540  1.00  0.00     0.131 C 
HETATM   20  N   UNL     1      -0.895   5.996 -31.959  1.00  0.00    -0.352 N 
HETATM   21  C   UNL     1       0.235   6.145 -31.163  1.00  0.00     0.215 C 
HETATM   22  C   UNL     1      -1.749   4.806 -31.964  1.00  0.00     0.131 C 
HETATM   23  C   UNL     1       0.783   4.907 -30.501  1.00  0.00     0.117 C 
HETATM   24  O   UNL     1       0.800   7.227 -31.002  1.00  0.00    -0.274 OA
ENDBRANCH  12  15
ENDBRANCH   1  11
BRANCH   9  25
HETATM   25  C   UNL     1      -6.011  -0.260 -33.976  1.00  0.00     0.026 A 
HETATM   26  C   UNL     1      -4.946  -0.563 -33.106  1.00  0.00     0.080 A 
HETATM   27  C   UNL     1      -4.342  -1.827 -33.105  1.00  0.00     0.037 A 
HETATM   28  C   UNL     1      -4.766  -2.807 -33.999  1.00  0.00     0.003 A 
HETATM   29  C   UNL     1      -5.801  -2.529 -34.885  1.00  0.00     0.001 A 
HETATM   30  C   UNL     1      -6.415  -1.273 -34.872  1.00  0.00     0.016 A 
BRANCH  26  31
HETATM   31  O   UNL     1      -4.534   0.356 -32.171  1.00  0.00    -0.355 OA
HETATM   32  C   UNL     1      -3.524  -0.207 -31.333  1.00  0.00     0.210 C 
ENDBRANCH  26  31
ENDBRANCH   9  25
TORSDOF 4
ENDMDL
MODEL 3
REMARK VINA RESULT:      -9.6      1.979      2.929
REMARK  4 active torsions:
REMARK  status: ('A' for Active; 'I' for Inactive)
REMARK       I    between atoms: C_2  and  N_3 
REMARK    1  A    between atoms: N_7  and  N_8 
REMARK       I    between atoms: N_8  and  C_9 
REMARK    2  A    between atoms: C_9  and  C_10 
REMARK    3  A    between atoms: C_18  and  C_19 
REMARK    4  A    between atoms: C_20  and  O_21 
ROOT
HETATM    1  C   UNL     1      -6.462   2.120 -33.084  1.00  0.00     0.048 A 
HETATM    2  C   UNL     1      -7.850   1.853 -33.105  1.00  0.00     0.009 A 
HETATM    3  C   UNL     1      -8.212   0.495 -33.202  1.00  0.00     0.068 A 
HETATM    4  C   UNL     1      -9.557   0.160 -33.270  1.00  0.00     0.032 A 
HETATM    5  C   UNL     1     -10.565   1.125 -33.216  1.00  0.00     0.002 A 
HETATM    6  C   UNL     1     -10.227   2.461 -33.070  1.00  0.00     0.001 A 
HETATM    7  C   UNL     1      -8.884   2.824 -33.004  1.00  0.00     0.015 A 
HETATM    8  N   UNL     1      -7.317  -0.505 -33.215  1.00  0.00    -0.247 NA
HETATM    9  C   UNL     1      -5.992  -0.228 -33.145  1.00  0.00     0.071 A 
HETATM   10  C   UNL     1      -5.533   1.077 -33.090  1.00  0.00     0.050 A 
ENDROOT
BRANCH   1  11
HETATM   11  C   UNL     1      -5.885   3.486 -33.019  1.00  0.00     0.272 C 
HETATM   12  N   UNL     1      -5.182   3.892 -34.145  1.00  0.00    -0.243 N 
HETATM   13  H   UNL     1      -5.016   3.241 -34.902  1.00  0.00     0.192 HD
HETATM   14  O   UNL     1      -6.033   4.135 -31.989  1.00  0.00    -0.266 OA
BRANCH  12  15
HETATM   15  N   UNL     1      -4.566   5.102 -34.137  1.00  0.00    -0.181 NA
HETATM   16  C   UNL     1      -3.361   5.225 -33.671  1.00  0.00     0.035 C 
HETATM   17  C   UNL     1      -2.747   6.608 -33.697  1.00  0.00     0.076 C 
HETATM   18  C   UNL     1      -2.450   4.110 -33.210  1.00  0.00     0.076 C 
HETATM   19  C   UNL     1      -2.121   6.905 -32.345  1.00  0.00     0.131 C 
HETATM   20  N   UNL     1      -1.214   5.833 -31.927  1.00  0.00    -0.352 N 
HETATM   21  C   UNL     1      -0.032   6.189 -31.286  1.00  0.00     0.215 C 
HETATM   22  C   UNL     1      -1.802   4.492 -31.886  1.00  0.00     0.131 C 
HETATM   23  C   UNL     1       0.846   5.071 -30.783  1.00  0.00     0.117 C 
HETATM   24  O   UNL     1       0.321   7.359 -31.140  1.00  0.00    -0.274 OA
ENDBRANCH  12  15
ENDBRANCH   1  11
BRANCH   9  25
HETATM   25  C   UNL     1      -5.077  -1.383 -33.062  1.00  0.00     0.026 A 
HETATM   26  C   UNL     1      -5.135  -2.476 -33.948  1.00  0.00     0.080 A 
HETATM   27  C   UNL     1      -4.233  -3.543 -33.850  1.00  0.00     0.037 A 
HETATM   28  C   UNL     1      -3.274  -3.561 -32.841  1.00  0.00     0.003 A 
HETATM   29  C   UNL     1      -3.208  -2.505 -31.937  1.00  0.00     0.001 A 
HETATM   30  C   UNL     1      -4.096  -1.431 -32.049  1.00  0.00     0.016 A 
BRANCH  26  31
HETATM   31  O   UNL     1      -6.029  -2.473 -34.992  1.00  0.00    -0.355 OA
HETATM   32  C   UNL     1      -6.724  -3.718 -35.055  1.00  0.00     0.210 C 
ENDBRANCH  26  31
ENDBRANCH   9  25
TORSDOF 4
ENDMDL
MODEL 4
REMARK VINA RESULT:      -9.6      3.590      8.614
REMARK  4 active torsions:
REMARK  status: ('A' for Active; 'I' for Inactive)
REMARK       I    between atoms: C_2  and  N_3 
REMARK    1  A    between atoms: N_7  and  N_8 
REMARK       I    between atoms: N_8  and  C_9 
REMARK    2  A    between atoms: C_9  and  C_10 
REMARK    3  A    between atoms: C_18  and  C_19 
REMARK    4  A    between atoms: C_20  and  O_21 
ROOT
HETATM    1  C   UNL     1      -5.361   3.424 -32.078  1.00  0.00     0.048 A 
HETATM    2  C   UNL     1      -5.079   2.074 -31.771  1.00  0.00     0.009 A 
HETATM    3  C   UNL     1      -3.721   1.764 -31.561  1.00  0.00     0.068 A 
HETATM    4  C   UNL     1      -3.364   0.449 -31.297  1.00  0.00     0.032 A 
HETATM    5  C   UNL     1      -4.312  -0.573 -31.204  1.00  0.00     0.002 A 
HETATM    6  C   UNL     1      -5.657  -0.275 -31.357  1.00  0.00     0.001 A 
HETATM    7  C   UNL     1      -6.041   1.037 -31.628  1.00  0.00     0.015 A 
HETATM    8  N   UNL     1      -2.745   2.684 -31.585  1.00  0.00    -0.247 NA
HETATM    9  C   UNL     1      -3.044   3.982 -31.833  1.00  0.00     0.071 A 
HETATM   10  C   UNL     1      -4.343   4.381 -32.096  1.00  0.00     0.050 A 
ENDROOT
BRANCH   1  11
HETATM   11  C   UNL     1      -6.723   3.939 -32.365  1.00  0.00     0.272 C 
HETATM   12  N   UNL     1      -7.282   3.517 -33.564  1.00  0.00    -0.243 N 
HETATM   13  H   UNL     1      -6.733   2.971 -34.215  1.00  0.00     0.192 HD
HETATM   14  O   UNL     1      -7.238   4.710 -31.562  1.00  0.00    -0.266 OA
BRANCH  12  15
HETATM   15  N   UNL     1      -8.498   3.998 -33.930  1.00  0.00    -0.181 NA
HETATM   16  C   UNL     1      -9.569   3.291 -33.740  1.00  0.00     0.035 C 
HETATM   17  C   UNL     1     -10.885   3.898 -34.178  1.00  0.00     0.076 C 
HETATM   18  C   UNL     1      -9.665   1.967 -33.016  1.00  0.00     0.076 C 
HETATM   19  C   UNL     1     -11.673   2.870 -34.971  1.00  0.00     0.131 C 
HETATM   20  N   UNL     1     -11.788   1.603 -34.243  1.00  0.00    -0.352 N 
HETATM   21  C   UNL     1     -12.995   0.917 -34.311  1.00  0.00     0.215 C 
HETATM   22  C   UNL     1     -10.520   1.001 -33.826  1.00  0.00     0.131 C 
HETATM   23  C   UNL     1     -13.066  -0.427 -33.631  1.00  0.00     0.117 C 
HETATM   24  O   UNL     1     -13.990   1.371 -34.876  1.00  0.00    -0.274 OA
ENDBRANCH  12  15
ENDBRANCH   1  11
BRANCH   9  25
HETATM   25  C   UNL     1      -1.932   4.949 -31.744  1.00  0.00     0.026 A 
HETATM   26  C   UNL     1      -1.595   5.832 -32.787  1.00  0.00     0.080 A 
HETATM   27  C   UNL     1      -0.545   6.750 -32.655  1.00  0.00     0.037 A 
HETATM   28  C   UNL     1       0.216   6.782 -31.489  1.00  0.00     0.003 A 
HETATM   29  C   UNL     1      -0.080   5.905 -30.451  1.00  0.00     0.001 A 
HETATM   30  C   UNL     1      -1.140   5.003 -30.577  1.00  0.00     0.016 A 
BRANCH  26  31
HETATM   31  O   UNL     1      -2.354   5.872 -33.932  1.00  0.00    -0.355 OA
HETATM   32  C   UNL     1      -1.720   5.132 -34.975  1.00  0.00     0.210 C 
ENDBRANCH  26  31
ENDBRANCH   9  25
TORSDOF 4
ENDMDL
MODEL 5
REMARK VINA RESULT:      -9.5      3.646      8.584
REMARK  4 active torsions:
REMARK  status: ('A' for Active; 'I' for Inactive)
REMARK       I    between atoms: C_2  and  N_3 
REMARK    1  A    between atoms: N_7  and  N_8 
REMARK       I    between atoms: N_8  and  C_9 
REMARK    2  A    between atoms: C_9  and  C_10 
REMARK    3  A    between atoms: C_18  and  C_19 
REMARK    4  A    between atoms: C_20  and  O_21 
ROOT
HETATM    1  C   UNL     1      -4.595   3.810 -32.945  1.00  0.00     0.048 A 
HETATM    2  C   UNL     1      -4.510   2.481 -32.473  1.00  0.00     0.009 A 
HETATM    3  C   UNL     1      -3.395   2.189 -31.662  1.00  0.00     0.068 A 
HETATM    4  C   UNL     1      -3.223   0.893 -31.197  1.00  0.00     0.032 A 
HETATM    5  C   UNL     1      -4.136  -0.126 -31.483  1.00  0.00     0.002 A 
HETATM    6  C   UNL     1      -5.264   0.158 -32.237  1.00  0.00     0.001 A 
HETATM    7  C   UNL     1      -5.457   1.450 -32.720  1.00  0.00     0.015 A 
HETATM    8  N   UNL     1      -2.491   3.110 -31.297  1.00  0.00    -0.247 NA
HETATM    9  C   UNL     1      -2.619   4.390 -31.721  1.00  0.00     0.071 A 
HETATM   10  C   UNL     1      -3.655   4.768 -32.557  1.00  0.00     0.050 A 
ENDROOT
BRANCH   1  11
HETATM   11  C   UNL     1      -5.674   4.302 -33.837  1.00  0.00     0.272 C 
HETATM   12  N   UNL     1      -6.816   4.764 -33.196  1.00  0.00    -0.243 N 
HETATM   13  H   UNL     1      -6.906   4.672 -32.193  1.00  0.00     0.192 HD
HETATM   14  O   UNL     1      -5.507   4.236 -35.050  1.00  0.00    -0.266 OA
BRANCH  12  15
HETATM   15  N   UNL     1      -7.875   5.168 -33.944  1.00  0.00    -0.181 NA
HETATM   16  C   UNL     1      -8.994   4.512 -33.908  1.00  0.00     0.035 C 
HETATM   17  C   UNL     1     -10.125   5.027 -34.773  1.00  0.00     0.076 C 
HETATM   18  C   UNL     1      -9.336   3.351 -33.002  1.00  0.00     0.076 C 
HETATM   19  C   UNL     1     -10.739   3.867 -35.538  1.00  0.00     0.131 C 
HETATM   20  N   UNL     1     -11.097   2.763 -34.643  1.00  0.00    -0.352 N 
HETATM   21  C   UNL     1     -12.282   2.079 -34.891  1.00  0.00     0.215 C 
HETATM   22  C   UNL     1     -10.007   2.249 -33.812  1.00  0.00     0.131 C 
HETATM   23  C   UNL     1     -12.590   0.889 -34.016  1.00  0.00     0.117 C 
HETATM   24  O   UNL     1     -13.078   2.418 -35.766  1.00  0.00    -0.274 OA
ENDBRANCH  12  15
ENDBRANCH   1  11
BRANCH   9  25
HETATM   25  C   UNL     1      -1.642   5.364 -31.196  1.00  0.00     0.026 A 
HETATM   26  C   UNL     1      -2.001   6.438 -30.358  1.00  0.00     0.080 A 
HETATM   27  C   UNL     1      -1.040   7.329 -29.863  1.00  0.00     0.037 A 
HETATM   28  C   UNL     1       0.297   7.190 -30.223  1.00  0.00     0.003 A 
HETATM   29  C   UNL     1       0.678   6.152 -31.068  1.00  0.00     0.001 A 
HETATM   30  C   UNL     1      -0.279   5.252 -31.545  1.00  0.00     0.016 A 
BRANCH  26  31
HETATM   31  O   UNL     1      -3.300   6.579 -29.933  1.00  0.00    -0.355 OA
HETATM   32  C   UNL     1      -3.337   7.194 -28.645  1.00  0.00     0.210 C 
ENDBRANCH  26  31
ENDBRANCH   9  25
TORSDOF 4
ENDMDL
MODEL 6
REMARK VINA RESULT:      -9.4      3.155      9.987
REMARK  4 active torsions:
REMARK  status: ('A' for Active; 'I' for Inactive)
REMARK       I    between atoms: C_2  and  N_3 
REMARK    1  A    between atoms: N_7  and  N_8 
REMARK       I    between atoms: N_8  and  C_9 
REMARK    2  A    between atoms: C_9  and  C_10 
REMARK    3  A    between atoms: C_18  and  C_19 
REMARK    4  A    between atoms: C_20  and  O_21 
ROOT
HETATM    1  C   UNL     1      -3.136   5.831 -31.121  1.00  0.00     0.048 A 
HETATM    2  C   UNL     1      -2.498   5.754 -32.380  1.00  0.00     0.009 A 
HETATM    3  C   UNL     1      -1.326   6.523 -32.521  1.00  0.00     0.068 A 
HETATM    4  C   UNL     1      -0.670   6.530 -33.744  1.00  0.00     0.032 A 
HETATM    5  C   UNL     1      -1.118   5.775 -34.831  1.00  0.00     0.002 A 
HETATM    6  C   UNL     1      -2.240   4.974 -34.692  1.00  0.00     0.001 A 
HETATM    7  C   UNL     1      -2.920   4.953 -33.476  1.00  0.00     0.015 A 
HETATM    8  N   UNL     1      -0.795   7.243 -31.522  1.00  0.00    -0.247 NA
HETATM    9  C   UNL     1      -1.396   7.264 -30.308  1.00  0.00     0.071 A 
HETATM   10  C   UNL     1      -2.576   6.576 -30.080  1.00  0.00     0.050 A 
ENDROOT
BRANCH   1  11
HETATM   11  C   UNL     1      -4.397   5.122 -30.789  1.00  0.00     0.272 C 
HETATM   12  N   UNL     1      -4.248   3.820 -30.330  1.00  0.00    -0.243 N 
HETATM   13  H   UNL     1      -3.334   3.387 -30.322  1.00  0.00     0.192 HD
HETATM   14  O   UNL     1      -5.461   5.704 -30.971  1.00  0.00    -0.266 OA
BRANCH  12  15
HETATM   15  N   UNL     1      -5.357   3.082 -30.070  1.00  0.00    -0.181 NA
HETATM   16  C   UNL     1      -5.835   2.273 -30.965  1.00  0.00     0.035 C 
HETATM   17  C   UNL     1      -7.075   1.487 -30.597  1.00  0.00     0.076 C 
HETATM   18  C   UNL     1      -5.218   1.937 -32.304  1.00  0.00     0.076 C 
HETATM   19  C   UNL     1      -8.083   1.581 -31.729  1.00  0.00     0.131 C 
HETATM   20  N   UNL     1      -7.481   1.219 -33.015  1.00  0.00    -0.352 N 
HETATM   21  C   UNL     1      -8.244   0.475 -33.908  1.00  0.00     0.215 C 
HETATM   22  C   UNL     1      -6.288   1.982 -33.387  1.00  0.00     0.131 C 
HETATM   23  C   UNL     1      -7.643   0.189 -35.261  1.00  0.00     0.117 C 
HETATM   24  O   UNL     1      -9.359   0.034 -33.628  1.00  0.00    -0.274 OA
ENDBRANCH  12  15
ENDBRANCH   1  11
BRANCH   9  25
HETATM   25  C   UNL     1      -0.698   7.996 -29.233  1.00  0.00     0.026 A 
HETATM   26  C   UNL     1      -1.239   9.131 -28.600  1.00  0.00     0.080 A 
HETATM   27  C   UNL     1      -0.554   9.786 -27.568  1.00  0.00     0.037 A 
HETATM   28  C   UNL     1       0.705   9.343 -27.170  1.00  0.00     0.003 A 
HETATM   29  C   UNL     1       1.274   8.238 -27.794  1.00  0.00     0.001 A 
HETATM   30  C   UNL     1       0.580   7.574 -28.810  1.00  0.00     0.016 A 
BRANCH  26  31
HETATM   31  O   UNL     1      -2.502   9.568 -28.922  1.00  0.00    -0.355 OA
HETATM   32  C   UNL     1      -2.429  10.713 -29.772  1.00  0.00     0.210 C 
ENDBRANCH  26  31
ENDBRANCH   9  25
TORSDOF 4
ENDMDL
MODEL 7
REMARK VINA RESULT:      -9.1      4.276      8.557
REMARK  4 active torsions:
REMARK  status: ('A' for Active; 'I' for Inactive)
REMARK       I    between atoms: C_2  and  N_3 
REMARK    1  A    between atoms: N_7  and  N_8 
REMARK       I    between atoms: N_8  and  C_9 
REMARK    2  A    between atoms: C_9  and  C_10 
REMARK    3  A    between atoms: C_18  and  C_19 
REMARK    4  A    between atoms: C_20  and  O_21 
ROOT
HETATM    1  C   UNL     1      -7.887   0.608 -33.216  1.00  0.00     0.048 A 
HETATM    2  C   UNL     1      -6.929  -0.376 -33.553  1.00  0.00     0.009 A 
HETATM    3  C   UNL     1      -5.588  -0.047 -33.274  1.00  0.00     0.068 A 
HETATM    4  C   UNL     1      -4.590  -0.947 -33.617  1.00  0.00     0.032 A 
HETATM    5  C   UNL     1      -4.873  -2.182 -34.204  1.00  0.00     0.002 A 
HETATM    6  C   UNL     1      -6.191  -2.542 -34.439  1.00  0.00     0.001 A 
HETATM    7  C   UNL     1      -7.212  -1.654 -34.108  1.00  0.00     0.015 A 
HETATM    8  N   UNL     1      -5.222   1.094 -32.671  1.00  0.00    -0.247 NA
HETATM    9  C   UNL     1      -6.161   2.002 -32.312  1.00  0.00     0.071 A 
HETATM   10  C   UNL     1      -7.503   1.792 -32.582  1.00  0.00     0.050 A 
ENDROOT
BRANCH   1  11
HETATM   11  C   UNL     1      -9.343   0.461 -33.463  1.00  0.00     0.272 C 
HETATM   12  N   UNL     1      -9.864   1.269 -34.464  1.00  0.00    -0.243 N 
HETATM   13  H   UNL     1      -9.279   1.963 -34.911  1.00  0.00     0.192 HD
HETATM   14  O   UNL     1      -9.980  -0.317 -32.760  1.00  0.00    -0.266 OA
BRANCH  12  15
HETATM   15  N   UNL     1     -11.200   1.243 -34.705  1.00  0.00    -0.181 NA
HETATM   16  C   UNL     1     -11.979   2.146 -34.192  1.00  0.00     0.035 C 
HETATM   17  C   UNL     1     -13.456   2.045 -34.508  1.00  0.00     0.076 C 
HETATM   18  C   UNL     1     -11.557   3.366 -33.406  1.00  0.00     0.076 C 
HETATM   19  C   UNL     1     -14.254   2.201 -33.225  1.00  0.00     0.131 C 
HETATM   20  N   UNL     1     -13.860   3.406 -32.490  1.00  0.00    -0.352 N 
HETATM   21  C   UNL     1     -14.857   4.149 -31.868  1.00  0.00     0.215 C 
HETATM   22  C   UNL     1     -12.434   3.507 -32.169  1.00  0.00     0.131 C 
HETATM   23  C   UNL     1     -14.423   5.334 -31.042  1.00  0.00     0.117 C 
HETATM   24  O   UNL     1     -16.054   3.888 -31.985  1.00  0.00    -0.274 OA
ENDBRANCH  12  15
ENDBRANCH   1  11
BRANCH   9  25
HETATM   25  C   UNL     1      -5.691   3.185 -31.564  1.00  0.00     0.026 A 
HETATM   26  C   UNL     1      -4.816   4.143 -32.112  1.00  0.00     0.080 A 
HETATM   27  C   UNL     1      -4.410   5.264 -31.377  1.00  0.00     0.037 A 
HETATM   28  C   UNL     1      -4.839   5.434 -30.063  1.00  0.00     0.003 A 
HETATM   29  C   UNL     1      -5.685   4.492 -29.488  1.00  0.00     0.001 A 
HETATM   30  C   UNL     1      -6.105   3.384 -30.230  1.00  0.00     0.016 A 
BRANCH  26  31
HETATM   31  O   UNL     1      -4.414   4.043 -33.422  1.00  0.00    -0.355 OA
HETATM   32  C   UNL     1      -5.005   5.082 -34.203  1.00  0.00     0.210 C 
ENDBRANCH  26  31
ENDBRANCH   9  25
TORSDOF 4
ENDMDL
MODEL 8
REMARK VINA RESULT:      -9.1      3.048      5.484
REMARK  4 active torsions:
REMARK  status: ('A' for Active; 'I' for Inactive)
REMARK       I    between atoms: C_2  and  N_3 
REMARK    1  A    between atoms: N_7  and  N_8 
REMARK       I    between atoms: N_8  and  C_9 
REMARK    2  A    between atoms: C_9  and  C_10 
REMARK    3  A    between atoms: C_18  and  C_19 
REMARK    4  A    between atoms: C_20  and  O_21 
ROOT
HETATM    1  C   UNL     1      -7.527   1.418 -32.082  1.00  0.00     0.048 A 
HETATM    2  C   UNL     1      -6.793   0.387 -32.710  1.00  0.00     0.009 A 
HETATM    3  C   UNL     1      -7.528  -0.453 -33.569  1.00  0.00     0.068 A 
HETATM    4  C   UNL     1      -6.881  -1.513 -34.188  1.00  0.00     0.032 A 
HETATM    5  C   UNL     1      -5.518  -1.758 -34.009  1.00  0.00     0.002 A 
HETATM    6  C   UNL     1      -4.770  -0.910 -33.207  1.00  0.00     0.001 A 
HETATM    7  C   UNL     1      -5.396   0.159 -32.570  1.00  0.00     0.015 A 
HETATM    8  N   UNL     1      -8.829  -0.271 -33.839  1.00  0.00    -0.247 NA
HETATM    9  C   UNL     1      -9.503   0.754 -33.263  1.00  0.00     0.071 A 
HETATM   10  C   UNL     1      -8.881   1.609 -32.370  1.00  0.00     0.050 A 
ENDROOT
BRANCH   1  11
HETATM   11  C   UNL     1      -6.939   2.382 -31.119  1.00  0.00     0.272 C 
HETATM   12  N   UNL     1      -6.970   3.714 -31.511  1.00  0.00    -0.243 N 
HETATM   13  H   UNL     1      -7.296   3.963 -32.436  1.00  0.00     0.192 HD
HETATM   14  O   UNL     1      -6.445   1.948 -30.084  1.00  0.00    -0.266 OA
BRANCH  12  15
HETATM   15  N   UNL     1      -6.391   4.649 -30.715  1.00  0.00    -0.181 NA
HETATM   16  C   UNL     1      -5.435   5.399 -31.170  1.00  0.00     0.035 C 
HETATM   17  C   UNL     1      -4.841   6.417 -30.219  1.00  0.00     0.076 C 
HETATM   18  C   UNL     1      -4.923   5.453 -32.592  1.00  0.00     0.076 C 
HETATM   19  C   UNL     1      -3.326   6.339 -30.283  1.00  0.00     0.131 C 
HETATM   20  N   UNL     1      -2.842   6.427 -31.663  1.00  0.00    -0.352 N 
HETATM   21  C   UNL     1      -1.685   7.161 -31.905  1.00  0.00     0.215 C 
HETATM   22  C   UNL     1      -3.400   5.439 -32.589  1.00  0.00     0.131 C 
HETATM   23  C   UNL     1      -1.152   7.166 -33.315  1.00  0.00     0.117 C 
HETATM   24  O   UNL     1      -1.111   7.808 -31.030  1.00  0.00    -0.274 OA
ENDBRANCH  12  15
ENDBRANCH   1  11
BRANCH   9  25
HETATM   25  C   UNL     1     -10.903   0.949 -33.686  1.00  0.00     0.026 A 
HETATM   26  C   UNL     1     -11.337   2.071 -34.418  1.00  0.00     0.080 A 
HETATM   27  C   UNL     1     -12.672   2.209 -34.820  1.00  0.00     0.037 A 
HETATM   28  C   UNL     1     -13.613   1.245 -34.468  1.00  0.00     0.003 A 
HETATM   29  C   UNL     1     -13.218   0.137 -33.725  1.00  0.00     0.001 A 
HETATM   30  C   UNL     1     -11.882  -0.008 -33.342  1.00  0.00     0.016 A 
BRANCH  26  31
HETATM   31  O   UNL     1     -10.431   3.017 -34.835  1.00  0.00    -0.355 OA
HETATM   32  C   UNL     1     -11.104   4.095 -35.487  1.00  0.00     0.210 C 
ENDBRANCH  26  31
ENDBRANCH   9  25
TORSDOF 4
ENDMDL
MODEL 9
REMARK VINA RESULT:      -9.1      3.604      7.320
REMARK  4 active torsions:
REMARK  status: ('A' for Active; 'I' for Inactive)
REMARK       I    between atoms: C_2  and  N_3 
REMARK    1  A    between atoms: N_7  and  N_8 
REMARK       I    between atoms: N_8  and  C_9 
REMARK    2  A    between atoms: C_9  and  C_10 
REMARK    3  A    between atoms: C_18  and  C_19 
REMARK    4  A    between atoms: C_20  and  O_21 
ROOT
HETATM    1  C   UNL     1      -5.920   2.784 -32.071  1.00  0.00     0.048 A 
HETATM    2  C   UNL     1      -4.842   3.675 -32.279  1.00  0.00     0.009 A 
HETATM    3  C   UNL     1      -3.588   3.076 -32.507  1.00  0.00     0.068 A 
HETATM    4  C   UNL     1      -2.476   3.888 -32.677  1.00  0.00     0.032 A 
HETATM    5  C   UNL     1      -2.565   5.282 -32.659  1.00  0.00     0.002 A 
HETATM    6  C   UNL     1      -3.800   5.887 -32.486  1.00  0.00     0.001 A 
HETATM    7  C   UNL     1      -4.931   5.093 -32.308  1.00  0.00     0.015 A 
HETATM    8  N   UNL     1      -3.411   1.748 -32.587  1.00  0.00    -0.247 NA
HETATM    9  C   UNL     1      -4.467   0.914 -32.433  1.00  0.00     0.071 A 
HETATM   10  C   UNL     1      -5.734   1.403 -32.161  1.00  0.00     0.050 A 
ENDROOT
BRANCH   1  11
HETATM   11  C   UNL     1      -7.308   3.222 -31.782  1.00  0.00     0.272 C 
HETATM   12  N   UNL     1      -8.128   3.380 -32.891  1.00  0.00    -0.243 N 
HETATM   13  H   UNL     1      -7.745   3.284 -33.823  1.00  0.00     0.192 HD
HETATM   14  O   UNL     1      -7.622   3.443 -30.617  1.00  0.00    -0.266 OA
BRANCH  12  15
HETATM   15  N   UNL     1      -9.393   3.843 -32.717  1.00  0.00    -0.181 NA
HETATM   16  C   UNL     1     -10.395   3.020 -32.677  1.00  0.00     0.035 C 
HETATM   17  C   UNL     1     -11.773   3.617 -32.480  1.00  0.00     0.076 C 
HETATM   18  C   UNL     1     -10.329   1.510 -32.686  1.00  0.00     0.076 C 
HETATM   19  C   UNL     1     -12.731   3.010 -33.490  1.00  0.00     0.131 C 
HETATM   20  N   UNL     1     -12.682   1.546 -33.464  1.00  0.00    -0.352 N 
HETATM   21  C   UNL     1     -13.877   0.849 -33.605  1.00  0.00     0.215 C 
HETATM   22  C   UNL     1     -11.356   0.958 -33.666  1.00  0.00     0.131 C 
HETATM   23  C   UNL     1     -13.797  -0.656 -33.666  1.00  0.00     0.117 C 
HETATM   24  O   UNL     1     -14.973   1.407 -33.658  1.00  0.00    -0.274 OA
ENDBRANCH  12  15
ENDBRANCH   1  11
BRANCH   9  25
HETATM   25  C   UNL     1      -4.212  -0.526 -32.634  1.00  0.00     0.026 A 
HETATM   26  C   UNL     1      -4.797  -1.273 -33.675  1.00  0.00     0.080 A 
HETATM   27  C   UNL     1      -4.511  -2.634 -33.845  1.00  0.00     0.037 A 
HETATM   28  C   UNL     1      -3.662  -3.289 -32.957  1.00  0.00     0.003 A 
HETATM   29  C   UNL     1      -3.088  -2.581 -31.906  1.00  0.00     0.001 A 
HETATM   30  C   UNL     1      -3.358  -1.219 -31.749  1.00  0.00     0.016 A 
BRANCH  26  31
HETATM   31  O   UNL     1      -5.595  -0.654 -34.606  1.00  0.00    -0.355 OA
HETATM   32  C   UNL     1      -6.869  -1.296 -34.673  1.00  0.00     0.210 C 
ENDBRANCH  26  31
ENDBRANCH   9  25
TORSDOF 4
ENDMDL
MODEL 10
REMARK VINA RESULT:      -8.9      2.696      9.902
REMARK  4 active torsions:
REMARK  status: ('A' for Active; 'I' for Inactive)
REMARK       I    between atoms: C_2  and  N_3 
REMARK    1  A    between atoms: N_7  and  N_8 
REMARK       I    between atoms: N_8  and  C_9 
REMARK    2  A    between atoms: C_9  and  C_10 
REMARK    3  A    between atoms: C_18  and  C_19 
REMARK    4  A    between atoms: C_20  and  O_21 
ROOT
HETATM    1  C   UNL     1      -3.587   5.673 -31.184  1.00  0.00     0.048 A 
HETATM    2  C   UNL     1      -2.800   5.650 -32.358  1.00  0.00     0.009 A 
HETATM    3  C   UNL     1      -1.759   6.597 -32.416  1.00  0.00     0.068 A 
HETATM    4  C   UNL     1      -0.971   6.662 -33.557  1.00  0.00     0.032 A 
HETATM    5  C   UNL     1      -1.160   5.799 -34.639  1.00  0.00     0.002 A 
HETATM    6  C   UNL     1      -2.147   4.828 -34.576  1.00  0.00     0.001 A 
HETATM    7  C   UNL     1      -2.955   4.745 -33.444  1.00  0.00     0.015 A 
HETATM    8  N   UNL     1      -1.472   7.437 -31.410  1.00  0.00    -0.247 NA
HETATM    9  C   UNL     1      -2.209   7.408 -30.273  1.00  0.00     0.071 A 
HETATM   10  C   UNL     1      -3.282   6.544 -30.136  1.00  0.00     0.050 A 
ENDROOT
BRANCH   1  11
HETATM   11  C   UNL     1      -4.748   4.778 -30.951  1.00  0.00     0.272 C 
HETATM   12  N   UNL     1      -4.437   3.489 -30.539  1.00  0.00    -0.243 N 
HETATM   13  H   UNL     1      -3.472   3.189 -30.498  1.00  0.00     0.192 HD
HETATM   14  O   UNL     1      -5.874   5.212 -31.168  1.00  0.00    -0.266 OA
BRANCH  12  15
HETATM   15  N   UNL     1      -5.440   2.590 -30.370  1.00  0.00    -0.181 NA
HETATM   16  C   UNL     1      -5.451   1.481 -31.043  1.00  0.00     0.035 C 
HETATM   17  C   UNL     1      -6.605   0.533 -30.798  1.00  0.00     0.076 C 
HETATM   18  C   UNL     1      -4.367   0.971 -31.967  1.00  0.00     0.076 C 
HETATM   19  C   UNL     1      -7.164   0.068 -32.131  1.00  0.00     0.131 C 
HETATM   20  N   UNL     1      -6.109  -0.455 -33.003  1.00  0.00    -0.352 N 
HETATM   21  C   UNL     1      -6.395  -1.576 -33.775  1.00  0.00     0.215 C 
HETATM   22  C   UNL     1      -4.994   0.459 -33.257  1.00  0.00     0.131 C 
HETATM   23  C   UNL     1      -5.329  -2.046 -34.732  1.00  0.00     0.117 C 
HETATM   24  O   UNL     1      -7.456  -2.193 -33.688  1.00  0.00    -0.274 OA
ENDBRANCH  12  15
ENDBRANCH   1  11
BRANCH   9  25
HETATM   25  C   UNL     1      -1.771   8.291 -29.175  1.00  0.00     0.026 A 
HETATM   26  C   UNL     1      -1.089   7.821 -28.035  1.00  0.00     0.080 A 
HETATM   27  C   UNL     1      -0.670   8.695 -27.024  1.00  0.00     0.037 A 
HETATM   28  C   UNL     1      -0.955  10.055 -27.111  1.00  0.00     0.003 A 
HETATM   29  C   UNL     1      -1.647  10.545 -28.214  1.00  0.00     0.001 A 
HETATM   30  C   UNL     1      -2.047   9.674 -29.232  1.00  0.00     0.016 A 
BRANCH  26  31
HETATM   31  O   UNL     1      -0.739   6.496 -27.937  1.00  0.00    -0.355 OA
HETATM   32  C   UNL     1       0.657   6.331 -28.189  1.00  0.00     0.210 C 
ENDBRANCH  26  31
ENDBRANCH   9  25
TORSDOF 4
ENDMDL
