MODEL 1
REMARK VINA RESULT:      -8.6      0.000      0.000
REMARK  6 active torsions:
REMARK  status: ('A' for Active; 'I' for Inactive)
REMARK    1  A    between atoms: C_2  and  C_3 
REMARK    2  A    between atoms: C_3  and  C_4 
REMARK    3  A    between atoms: C_4  and  C_5 
REMARK    4  A    between atoms: C_4  and  C_21 
REMARK       I    between atoms: C_5  and  N_6 
REMARK    5  A    between atoms: N_6  and  C_7 
REMARK    6  A    between atoms: C_14  and  C_15 
REMARK       I    between atoms: C_15  and  N_16 
ROOT
HETATM    1  C   UNL     1      -8.956   1.132 -33.446  1.00  0.00     0.035 A 
HETATM    2  C   UNL     1     -10.236   0.560 -33.433  1.00  0.00     0.046 A 
HETATM    3  C   UNL     1     -11.370   1.396 -33.516  1.00  0.00     0.030 A 
HETATM    4  C   UNL     1     -11.185   2.773 -33.558  1.00  0.00     0.063 A 
HETATM    5  N   UNL     1     -12.443   3.305 -33.597  1.00  0.00    -0.277 N 
HETATM    6  H   UNL     1     -12.693   4.287 -33.614  1.00  0.00     0.189 HD
HETATM    7  N   UNL     1     -13.431   2.397 -33.643  1.00  0.00    -0.168 NA
HETATM    8  C   UNL     1     -12.782   1.211 -33.603  1.00  0.00     0.156 A 
HETATM    9  C   UNL     1      -9.924   3.375 -33.565  1.00  0.00     0.034 A 
HETATM   10  C   UNL     1      -8.814   2.522 -33.536  1.00  0.00     0.032 A 
ENDROOT
BRANCH   1  11
HETATM   11  N   UNL     1      -7.774   0.363 -33.428  1.00  0.00    -0.327 N 
HETATM   12  C   UNL     1      -7.005   0.013 -34.528  1.00  0.00     0.231 C 
HETATM   13  O   UNL     1      -7.317   0.265 -35.690  1.00  0.00    -0.272 OA
HETATM   14  H   UNL     1      -7.562  -0.096 -32.551  1.00  0.00     0.169 HD
BRANCH  12  15
HETATM   15  C   UNL     1      -5.646  -0.647 -34.184  1.00  0.00     0.115 C 
BRANCH  15  16
HETATM   16  C   UNL     1      -5.694  -2.197 -33.976  1.00  0.00    -0.001 C 
HETATM   17  C   UNL     1      -4.448  -2.876 -34.565  1.00  0.00     0.011 C 
BRANCH  16  18
HETATM   18  C   UNL     1      -6.998  -2.857 -34.483  1.00  0.00     0.001 C 
HETATM   19  C   UNL     1      -6.810  -4.275 -35.007  1.00  0.00     0.005 C 
ENDBRANCH  16  18
ENDBRANCH  15  16
BRANCH  15  20
HETATM   20  C   UNL     1      -4.838   0.040 -33.079  1.00  0.00    -0.045 A 
HETATM   21  C   UNL     1      -4.305  -0.739 -32.038  1.00  0.00     0.008 A 
HETATM   22  C   UNL     1      -3.549  -0.152 -31.022  1.00  0.00     0.001 A 
HETATM   23  C   UNL     1      -3.321   1.220 -31.027  1.00  0.00     0.000 A 
HETATM   24  C   UNL     1      -3.851   2.008 -32.046  1.00  0.00     0.001 A 
HETATM   25  C   UNL     1      -4.607   1.424 -33.065  1.00  0.00     0.008 A 
ENDBRANCH  15  20
ENDBRANCH  12  15
ENDBRANCH   1  11
BRANCH   8  26
HETATM   26  C   UNL     1     -13.515  -0.060 -33.685  1.00  0.00     0.270 C 
HETATM   27  N   UNL     1     -14.748   0.043 -34.272  1.00  0.00    -0.365 N 
HETATM   28  H   UNL     1     -15.039   0.947 -34.626  1.00  0.00     0.159 HD
HETATM   29  H   UNL     1     -15.297  -0.787 -34.424  1.00  0.00     0.159 HD
HETATM   30  O   UNL     1     -13.087  -1.142 -33.299  1.00  0.00    -0.266 OA
ENDBRANCH   8  26
TORSDOF 6
ENDMDL
MODEL 2
REMARK VINA RESULT:      -8.5      2.492      7.808
REMARK  6 active torsions:
REMARK  status: ('A' for Active; 'I' for Inactive)
REMARK    1  A    between atoms: C_2  and  C_3 
REMARK    2  A    between atoms: C_3  and  C_4 
REMARK    3  A    between atoms: C_4  and  C_5 
REMARK    4  A    between atoms: C_4  and  C_21 
REMARK       I    between atoms: C_5  and  N_6 
REMARK    5  A    between atoms: N_6  and  C_7 
REMARK    6  A    between atoms: C_14  and  C_15 
REMARK       I    between atoms: C_15  and  N_16 
ROOT
HETATM    1  C   UNL     1      -7.640   0.400 -34.502  1.00  0.00     0.035 A 
HETATM    2  C   UNL     1      -7.469  -0.962 -34.786  1.00  0.00     0.046 A 
HETATM    3  C   UNL     1      -6.262  -1.598 -34.424  1.00  0.00     0.030 A 
HETATM    4  C   UNL     1      -5.254  -0.840 -33.840  1.00  0.00     0.063 A 
HETATM    5  N   UNL     1      -4.218  -1.709 -33.643  1.00  0.00    -0.277 N 
HETATM    6  H   UNL     1      -3.306  -1.498 -33.253  1.00  0.00     0.189 HD
HETATM    7  N   UNL     1      -4.480  -2.979 -33.992  1.00  0.00    -0.168 NA
HETATM    8  C   UNL     1      -5.746  -2.928 -34.468  1.00  0.00     0.156 A 
HETATM    9  C   UNL     1      -5.390   0.519 -33.552  1.00  0.00     0.034 A 
HETATM   10  C   UNL     1      -6.616   1.116 -33.871  1.00  0.00     0.032 A 
ENDROOT
BRANCH   1  11
HETATM   11  N   UNL     1      -8.837   1.094 -34.776  1.00  0.00    -0.327 N 
HETATM   12  C   UNL     1      -9.929   1.214 -33.929  1.00  0.00     0.231 C 
HETATM   13  O   UNL     1     -10.020   0.642 -32.845  1.00  0.00    -0.272 OA
HETATM   14  H   UNL     1      -8.961   1.398 -35.734  1.00  0.00     0.169 HD
BRANCH  12  15
HETATM   15  C   UNL     1     -11.011   2.215 -34.405  1.00  0.00     0.115 C 
BRANCH  15  16
HETATM   16  C   UNL     1     -10.680   3.723 -34.148  1.00  0.00    -0.001 C 
HETATM   17  C   UNL     1     -10.520   4.490 -35.470  1.00  0.00     0.011 C 
BRANCH  16  18
HETATM   18  C   UNL     1      -9.474   3.947 -33.206  1.00  0.00     0.001 C 
HETATM   19  C   UNL     1      -8.279   4.612 -33.880  1.00  0.00     0.005 C 
ENDBRANCH  16  18
ENDBRANCH  15  16
BRANCH  15  20
HETATM   20  C   UNL     1     -12.448   1.881 -33.992  1.00  0.00    -0.045 A 
HETATM   21  C   UNL     1     -13.069   2.652 -32.995  1.00  0.00     0.008 A 
HETATM   22  C   UNL     1     -14.383   2.390 -32.604  1.00  0.00     0.001 A 
HETATM   23  C   UNL     1     -15.092   1.350 -33.198  1.00  0.00     0.000 A 
HETATM   24  C   UNL     1     -14.488   0.570 -34.180  1.00  0.00     0.001 A 
HETATM   25  C   UNL     1     -13.173   0.831 -34.575  1.00  0.00     0.008 A 
ENDBRANCH  15  20
ENDBRANCH  12  15
ENDBRANCH   1  11
BRANCH   8  26
HETATM   26  C   UNL     1      -6.439  -4.144 -34.917  1.00  0.00     0.270 C 
HETATM   27  N   UNL     1      -7.571  -4.436 -34.204  1.00  0.00    -0.365 N 
HETATM   28  H   UNL     1      -7.857  -3.798 -33.471  1.00  0.00     0.159 HD
HETATM   29  H   UNL     1      -8.143  -5.218 -34.479  1.00  0.00     0.159 HD
HETATM   30  O   UNL     1      -6.084  -4.846 -35.858  1.00  0.00    -0.266 OA
ENDBRANCH   8  26
TORSDOF 6
ENDMDL
MODEL 3
REMARK VINA RESULT:      -8.5      3.832      7.518
REMARK  6 active torsions:
REMARK  status: ('A' for Active; 'I' for Inactive)
REMARK    1  A    between atoms: C_2  and  C_3 
REMARK    2  A    between atoms: C_3  and  C_4 
REMARK    3  A    between atoms: C_4  and  C_5 
REMARK    4  A    between atoms: C_4  and  C_21 
REMARK       I    between atoms: C_5  and  N_6 
REMARK    5  A    between atoms: N_6  and  C_7 
REMARK    6  A    between atoms: C_14  and  C_15 
REMARK       I    between atoms: C_15  and  N_16 
ROOT
HETATM    1  C   UNL     1      -5.149   2.650 -32.555  1.00  0.00     0.035 A 
HETATM    2  C   UNL     1      -3.909   3.296 -32.658  1.00  0.00     0.046 A 
HETATM    3  C   UNL     1      -3.566   4.290 -31.716  1.00  0.00     0.030 A 
HETATM    4  C   UNL     1      -4.492   4.637 -30.740  1.00  0.00     0.063 A 
HETATM    5  N   UNL     1      -3.898   5.632 -30.016  1.00  0.00    -0.277 N 
HETATM    6  H   UNL     1      -4.293   6.140 -29.233  1.00  0.00     0.189 HD
HETATM    7  N   UNL     1      -2.644   5.925 -30.396  1.00  0.00    -0.168 NA
HETATM    8  C   UNL     1      -2.420   5.096 -31.441  1.00  0.00     0.156 A 
HETATM    9  C   UNL     1      -5.738   4.019 -30.616  1.00  0.00     0.034 A 
HETATM   10  C   UNL     1      -6.035   2.999 -31.528  1.00  0.00     0.032 A 
ENDROOT
BRANCH   1  11
HETATM   11  N   UNL     1      -5.542   1.606 -33.418  1.00  0.00    -0.327 N 
HETATM   12  C   UNL     1      -5.542   0.251 -33.121  1.00  0.00     0.231 C 
HETATM   13  O   UNL     1      -5.107  -0.219 -32.072  1.00  0.00    -0.272 OA
HETATM   14  H   UNL     1      -5.689   1.866 -34.385  1.00  0.00     0.169 HD
BRANCH  12  15
HETATM   15  C   UNL     1      -6.231  -0.644 -34.180  1.00  0.00     0.115 C 
BRANCH  15  16
HETATM   16  C   UNL     1      -7.794  -0.569 -34.199  1.00  0.00    -0.001 C 
HETATM   17  C   UNL     1      -8.290   0.409 -35.275  1.00  0.00     0.011 C 
BRANCH  16  18
HETATM   18  C   UNL     1      -8.423  -0.269 -32.818  1.00  0.00     0.001 C 
HETATM   19  C   UNL     1      -9.876   0.186 -32.887  1.00  0.00     0.005 C 
ENDBRANCH  16  18
ENDBRANCH  15  16
BRANCH  15  20
HETATM   20  C   UNL     1      -5.742  -2.095 -34.239  1.00  0.00    -0.045 A 
HETATM   21  C   UNL     1      -6.629  -3.099 -34.663  1.00  0.00     0.008 A 
HETATM   22  C   UNL     1      -6.215  -4.429 -34.746  1.00  0.00     0.001 A 
HETATM   23  C   UNL     1      -4.912  -4.776 -34.401  1.00  0.00     0.000 A 
HETATM   24  C   UNL     1      -4.023  -3.795 -33.970  1.00  0.00     0.001 A 
HETATM   25  C   UNL     1      -4.434  -2.462 -33.887  1.00  0.00     0.008 A 
ENDBRANCH  15  20
ENDBRANCH  12  15
ENDBRANCH   1  11
BRANCH   8  26
HETATM   26  C   UNL     1      -1.119   5.067 -32.124  1.00  0.00     0.270 C 
HETATM   27  N   UNL     1      -1.172   5.442 -33.440  1.00  0.00    -0.365 N 
HETATM   28  H   UNL     1      -2.063   5.735 -33.823  1.00  0.00     0.159 HD
HETATM   29  H   UNL     1      -0.319   5.508 -33.972  1.00  0.00     0.159 HD
HETATM   30  O   UNL     1      -0.056   4.767 -31.593  1.00  0.00    -0.266 OA
ENDBRANCH   8  26
TORSDOF 6
ENDMDL
MODEL 4
REMARK VINA RESULT:      -8.5      1.966      4.479
REMARK  6 active torsions:
REMARK  status: ('A' for Active; 'I' for Inactive)
REMARK    1  A    between atoms: C_2  and  C_3 
REMARK    2  A    between atoms: C_3  and  C_4 
REMARK    3  A    between atoms: C_4  and  C_5 
REMARK    4  A    between atoms: C_4  and  C_21 
REMARK       I    between atoms: C_5  and  N_6 
REMARK    5  A    between atoms: N_6  and  C_7 
REMARK    6  A    between atoms: C_14  and  C_15 
REMARK       I    between atoms: C_15  and  N_16 
ROOT
HETATM    1  C   UNL     1     -10.105   1.211 -33.793  1.00  0.00     0.035 A 
HETATM    2  C   UNL     1      -9.911   2.517 -34.263  1.00  0.00     0.046 A 
HETATM    3  C   UNL     1     -11.029   3.290 -34.643  1.00  0.00     0.030 A 
HETATM    4  C   UNL     1     -12.293   2.713 -34.586  1.00  0.00     0.063 A 
HETATM    5  N   UNL     1     -13.149   3.676 -35.042  1.00  0.00    -0.277 N 
HETATM    6  H   UNL     1     -14.153   3.599 -35.157  1.00  0.00     0.189 HD
HETATM    7  N   UNL     1     -12.565   4.849 -35.336  1.00  0.00    -0.168 NA
HETATM    8  C   UNL     1     -11.254   4.629 -35.085  1.00  0.00     0.156 A 
HETATM    9  C   UNL     1     -12.519   1.414 -34.130  1.00  0.00     0.034 A 
HETATM   10  C   UNL     1     -11.400   0.685 -33.708  1.00  0.00     0.032 A 
ENDROOT
BRANCH   1  11
HETATM   11  N   UNL     1      -9.048   0.397 -33.338  1.00  0.00    -0.327 N 
HETATM   12  C   UNL     1      -7.999  -0.092 -34.104  1.00  0.00     0.231 C 
HETATM   13  O   UNL     1      -7.912   0.059 -35.321  1.00  0.00    -0.272 OA
HETATM   14  H   UNL     1      -9.154   0.016 -32.406  1.00  0.00     0.169 HD
BRANCH  12  15
HETATM   15  C   UNL     1      -6.869  -0.775 -33.294  1.00  0.00     0.115 C 
BRANCH  15  16
HETATM   16  C   UNL     1      -5.732   0.183 -32.803  1.00  0.00    -0.001 C 
HETATM   17  C   UNL     1      -5.581   0.127 -31.275  1.00  0.00     0.011 C 
BRANCH  16  18
HETATM   18  C   UNL     1      -5.876   1.637 -33.311  1.00  0.00     0.001 C 
HETATM   19  C   UNL     1      -6.307   2.627 -32.236  1.00  0.00     0.005 C 
ENDBRANCH  16  18
ENDBRANCH  15  16
BRANCH  15  20
HETATM   20  C   UNL     1      -6.293  -2.053 -33.911  1.00  0.00    -0.045 A 
HETATM   21  C   UNL     1      -7.174  -3.052 -34.360  1.00  0.00     0.008 A 
HETATM   22  C   UNL     1      -6.688  -4.223 -34.943  1.00  0.00     0.001 A 
HETATM   23  C   UNL     1      -5.317  -4.417 -35.078  1.00  0.00     0.000 A 
HETATM   24  C   UNL     1      -4.430  -3.442 -34.629  1.00  0.00     0.001 A 
HETATM   25  C   UNL     1      -4.913  -2.268 -34.046  1.00  0.00     0.008 A 
ENDBRANCH  15  20
ENDBRANCH  12  15
ENDBRANCH   1  11
BRANCH   8  26
HETATM   26  C   UNL     1     -10.260   5.700 -35.237  1.00  0.00     0.270 C 
HETATM   27  N   UNL     1     -10.775   6.875 -35.715  1.00  0.00    -0.365 N 
HETATM   28  H   UNL     1     -11.771   6.930 -35.889  1.00  0.00     0.159 HD
HETATM   29  H   UNL     1     -10.178   7.683 -35.795  1.00  0.00     0.159 HD
HETATM   30  O   UNL     1      -9.072   5.601 -34.947  1.00  0.00    -0.266 OA
ENDBRANCH   8  26
TORSDOF 6
ENDMDL
MODEL 5
REMARK VINA RESULT:      -8.3      0.739      3.324
REMARK  6 active torsions:
REMARK  status: ('A' for Active; 'I' for Inactive)
REMARK    1  A    between atoms: C_2  and  C_3 
REMARK    2  A    between atoms: C_3  and  C_4 
REMARK    3  A    between atoms: C_4  and  C_5 
REMARK    4  A    between atoms: C_4  and  C_21 
REMARK       I    between atoms: C_5  and  N_6 
REMARK    5  A    between atoms: N_6  and  C_7 
REMARK    6  A    between atoms: C_14  and  C_15 
REMARK       I    between atoms: C_15  and  N_16 
ROOT
HETATM    1  C   UNL     1      -9.430   1.083 -33.091  1.00  0.00     0.035 A 
HETATM    2  C   UNL     1     -10.743   0.604 -33.196  1.00  0.00     0.046 A 
HETATM    3  C   UNL     1     -11.789   1.509 -33.482  1.00  0.00     0.030 A 
HETATM    4  C   UNL     1     -11.491   2.861 -33.602  1.00  0.00     0.063 A 
HETATM    5  N   UNL     1     -12.689   3.475 -33.838  1.00  0.00    -0.277 N 
HETATM    6  H   UNL     1     -12.856   4.467 -33.959  1.00  0.00     0.189 HD
HETATM    7  N   UNL     1     -13.734   2.638 -33.941  1.00  0.00    -0.168 NA
HETATM    8  C   UNL     1     -13.191   1.416 -33.732  1.00  0.00     0.156 A 
HETATM    9  C   UNL     1     -10.195   3.370 -33.495  1.00  0.00     0.034 A 
HETATM   10  C   UNL     1      -9.168   2.447 -33.264  1.00  0.00     0.032 A 
ENDROOT
BRANCH   1  11
HETATM   11  N   UNL     1      -8.324   0.237 -32.868  1.00  0.00    -0.327 N 
HETATM   12  C   UNL     1      -7.357  -0.114 -33.799  1.00  0.00     0.231 C 
HETATM   13  O   UNL     1      -7.399   0.210 -34.984  1.00  0.00    -0.272 OA
HETATM   14  H   UNL     1      -8.329  -0.274 -31.994  1.00  0.00     0.169 HD
BRANCH  12  15
HETATM   15  C   UNL     1      -6.142  -0.877 -33.215  1.00  0.00     0.115 C 
BRANCH  15  16
HETATM   16  C   UNL     1      -4.842  -0.023 -33.040  1.00  0.00    -0.001 C 
HETATM   17  C   UNL     1      -4.061  -0.450 -31.788  1.00  0.00     0.011 C 
BRANCH  16  18
HETATM   18  C   UNL     1      -5.088   1.503 -33.069  1.00  0.00     0.001 C 
HETATM   19  C   UNL     1      -5.356   2.112 -31.697  1.00  0.00     0.005 C 
ENDBRANCH  16  18
ENDBRANCH  15  16
BRANCH  15  20
HETATM   20  C   UNL     1      -5.837  -2.231 -33.864  1.00  0.00    -0.045 A 
HETATM   21  C   UNL     1      -6.896  -2.991 -34.389  1.00  0.00     0.008 A 
HETATM   22  C   UNL     1      -6.657  -4.221 -35.003  1.00  0.00     0.001 A 
HETATM   23  C   UNL     1      -5.358  -4.712 -35.096  1.00  0.00     0.000 A 
HETATM   24  C   UNL     1      -4.298  -3.976 -34.573  1.00  0.00     0.001 A 
HETATM   25  C   UNL     1      -4.534  -2.744 -33.958  1.00  0.00     0.008 A 
ENDBRANCH  15  20
ENDBRANCH  12  15
ENDBRANCH   1  11
BRANCH   8  26
HETATM   26  C   UNL     1     -14.008   0.197 -33.812  1.00  0.00     0.270 C 
HETATM   27  N   UNL     1     -15.153   0.340 -34.548  1.00  0.00    -0.365 N 
HETATM   28  H   UNL     1     -15.330   1.231 -34.998  1.00  0.00     0.159 HD
HETATM   29  H   UNL     1     -15.745  -0.460 -34.706  1.00  0.00     0.159 HD
HETATM   30  O   UNL     1     -13.713  -0.878 -33.302  1.00  0.00    -0.266 OA
ENDBRANCH   8  26
TORSDOF 6
ENDMDL
MODEL 6
REMARK VINA RESULT:      -8.2      5.068      8.881
REMARK  6 active torsions:
REMARK  status: ('A' for Active; 'I' for Inactive)
REMARK    1  A    between atoms: C_2  and  C_3 
REMARK    2  A    between atoms: C_3  and  C_4 
REMARK    3  A    between atoms: C_4  and  C_5 
REMARK    4  A    between atoms: C_4  and  C_21 
REMARK       I    between atoms: C_5  and  N_6 
REMARK    5  A    between atoms: N_6  and  C_7 
REMARK    6  A    between atoms: C_14  and  C_15 
REMARK       I    between atoms: C_15  and  N_16 
ROOT
HETATM    1  C   UNL     1      -3.390   4.067 -32.864  1.00  0.00     0.035 A 
HETATM    2  C   UNL     1      -2.356   4.164 -31.923  1.00  0.00     0.046 A 
HETATM    3  C   UNL     1      -1.476   5.266 -31.972  1.00  0.00     0.030 A 
HETATM    4  C   UNL     1      -1.630   6.202 -32.987  1.00  0.00     0.063 A 
HETATM    5  N   UNL     1      -0.627   7.111 -32.794  1.00  0.00    -0.277 N 
HETATM    6  H   UNL     1      -0.421   7.925 -33.362  1.00  0.00     0.189 HD
HETATM    7  N   UNL     1       0.131   6.884 -31.710  1.00  0.00    -0.168 NA
HETATM    8  C   UNL     1      -0.388   5.751 -31.184  1.00  0.00     0.156 A 
HETATM    9  C   UNL     1      -2.644   6.131 -33.944  1.00  0.00     0.034 A 
HETATM   10  C   UNL     1      -3.537   5.057 -33.843  1.00  0.00     0.032 A 
ENDROOT
BRANCH   1  11
HETATM   11  N   UNL     1      -4.346   3.031 -32.847  1.00  0.00    -0.327 N 
HETATM   12  C   UNL     1      -4.134   1.725 -32.430  1.00  0.00     0.231 C 
HETATM   13  O   UNL     1      -3.036   1.281 -32.100  1.00  0.00    -0.272 OA
HETATM   14  H   UNL     1      -5.217   3.227 -33.324  1.00  0.00     0.169 HD
BRANCH  12  15
HETATM   15  C   UNL     1      -5.418   0.866 -32.313  1.00  0.00     0.115 C 
BRANCH  15  16
HETATM   16  C   UNL     1      -5.864   0.534 -30.850  1.00  0.00    -0.001 C 
HETATM   17  C   UNL     1      -7.262  -0.102 -30.827  1.00  0.00     0.011 C 
BRANCH  16  18
HETATM   18  C   UNL     1      -5.765   1.733 -29.879  1.00  0.00     0.001 C 
HETATM   19  C   UNL     1      -6.911   2.729 -30.007  1.00  0.00     0.005 C 
ENDBRANCH  16  18
ENDBRANCH  15  16
BRANCH  15  20
HETATM   20  C   UNL     1      -5.465  -0.378 -33.206  1.00  0.00    -0.045 A 
HETATM   21  C   UNL     1      -6.452  -0.468 -34.202  1.00  0.00     0.008 A 
HETATM   22  C   UNL     1      -6.517  -1.577 -35.047  1.00  0.00     0.001 A 
HETATM   23  C   UNL     1      -5.601  -2.615 -34.904  1.00  0.00     0.000 A 
HETATM   24  C   UNL     1      -4.623  -2.547 -33.915  1.00  0.00     0.001 A 
HETATM   25  C   UNL     1      -4.554  -1.438 -33.069  1.00  0.00     0.008 A 
ENDBRANCH  15  20
ENDBRANCH  12  15
ENDBRANCH   1  11
BRANCH   8  26
HETATM   26  C   UNL     1       0.138   5.181 -29.936  1.00  0.00     0.270 C 
HETATM   27  N   UNL     1      -0.389   5.739 -28.802  1.00  0.00    -0.365 N 
HETATM   28  H   UNL     1      -1.102   6.453 -28.902  1.00  0.00     0.159 HD
HETATM   29  H   UNL     1      -0.131   5.371 -27.901  1.00  0.00     0.159 HD
HETATM   30  O   UNL     1       0.955   4.269 -29.872  1.00  0.00    -0.266 OA
ENDBRANCH   8  26
TORSDOF 6
ENDMDL
MODEL 7
REMARK VINA RESULT:      -8.1      2.463      8.171
REMARK  6 active torsions:
REMARK  status: ('A' for Active; 'I' for Inactive)
REMARK    1  A    between atoms: C_2  and  C_3 
REMARK    2  A    between atoms: C_3  and  C_4 
REMARK    3  A    between atoms: C_4  and  C_5 
REMARK    4  A    between atoms: C_4  and  C_21 
REMARK       I    between atoms: C_5  and  N_6 
REMARK    5  A    between atoms: N_6  and  C_7 
REMARK    6  A    between atoms: C_14  and  C_15 
REMARK       I    between atoms: C_15  and  N_16 
ROOT
HETATM    1  C   UNL     1      -7.483  -0.079 -34.028  1.00  0.00     0.035 A 
HETATM    2  C   UNL     1      -6.528   0.104 -33.019  1.00  0.00     0.046 A 
HETATM    3  C   UNL     1      -5.438  -0.789 -32.926  1.00  0.00     0.030 A 
HETATM    4  C   UNL     1      -5.372  -1.858 -33.811  1.00  0.00     0.063 A 
HETATM    5  N   UNL     1      -4.248  -2.551 -33.455  1.00  0.00    -0.277 N 
HETATM    6  H   UNL     1      -3.896  -3.405 -33.874  1.00  0.00     0.189 HD
HETATM    7  N   UNL     1      -3.544  -1.997 -32.456  1.00  0.00    -0.168 NA
HETATM    8  C   UNL     1      -4.263  -0.900 -32.124  1.00  0.00     0.156 A 
HETATM    9  C   UNL     1      -6.311  -2.073 -34.822  1.00  0.00     0.034 A 
HETATM   10  C   UNL     1      -7.353  -1.144 -34.928  1.00  0.00     0.032 A 
ENDROOT
BRANCH   1  11
HETATM   11  N   UNL     1      -8.566   0.803 -34.226  1.00  0.00    -0.327 N 
HETATM   12  C   UNL     1      -9.765   0.800 -33.528  1.00  0.00     0.231 C 
HETATM   13  O   UNL     1     -10.069  -0.049 -32.693  1.00  0.00    -0.272 OA
HETATM   14  H   UNL     1      -8.514   1.386 -35.051  1.00  0.00     0.169 HD
BRANCH  12  15
HETATM   15  C   UNL     1     -10.679   2.019 -33.807  1.00  0.00     0.115 C 
BRANCH  15  16
HETATM   16  C   UNL     1     -10.260   3.343 -33.085  1.00  0.00    -0.001 C 
HETATM   17  C   UNL     1      -9.522   4.289 -34.045  1.00  0.00     0.011 C 
BRANCH  16  18
HETATM   18  C   UNL     1      -9.464   3.118 -31.778  1.00  0.00     0.001 C 
HETATM   19  C   UNL     1     -10.156   3.660 -30.533  1.00  0.00     0.005 C 
ENDBRANCH  16  18
ENDBRANCH  15  16
BRANCH  15  20
HETATM   20  C   UNL     1     -12.183   1.762 -33.672  1.00  0.00    -0.045 A 
HETATM   21  C   UNL     1     -12.950   2.607 -32.852  1.00  0.00     0.008 A 
HETATM   22  C   UNL     1     -14.326   2.415 -32.716  1.00  0.00     0.001 A 
HETATM   23  C   UNL     1     -14.954   1.373 -33.392  1.00  0.00     0.000 A 
HETATM   24  C   UNL     1     -14.207   0.520 -34.201  1.00  0.00     0.001 A 
HETATM   25  C   UNL     1     -12.830   0.710 -34.339  1.00  0.00     0.008 A 
ENDBRANCH  15  20
ENDBRANCH  12  15
ENDBRANCH   1  11
BRANCH   8  26
HETATM   26  C   UNL     1      -3.798   0.028 -31.083  1.00  0.00     0.270 C 
HETATM   27  N   UNL     1      -4.778   0.428 -30.214  1.00  0.00    -0.365 N 
HETATM   28  H   UNL     1      -5.708   0.043 -30.326  1.00  0.00     0.159 HD
HETATM   29  H   UNL     1      -4.539   1.017 -29.433  1.00  0.00     0.159 HD
HETATM   30  O   UNL     1      -2.641   0.412 -30.953  1.00  0.00    -0.266 OA
ENDBRANCH   8  26
TORSDOF 6
ENDMDL
MODEL 8
REMARK VINA RESULT:      -8.0      4.524      8.283
REMARK  6 active torsions:
REMARK  status: ('A' for Active; 'I' for Inactive)
REMARK    1  A    between atoms: C_2  and  C_3 
REMARK    2  A    between atoms: C_3  and  C_4 
REMARK    3  A    between atoms: C_4  and  C_5 
REMARK    4  A    between atoms: C_4  and  C_21 
REMARK       I    between atoms: C_5  and  N_6 
REMARK    5  A    between atoms: N_6  and  C_7 
REMARK    6  A    between atoms: C_14  and  C_15 
REMARK       I    between atoms: C_15  and  N_16 
ROOT
HETATM    1  C   UNL     1      -4.194   3.489 -33.050  1.00  0.00     0.035 A 
HETATM    2  C   UNL     1      -2.994   3.768 -32.383  1.00  0.00     0.046 A 
HETATM    3  C   UNL     1      -2.315   4.975 -32.656  1.00  0.00     0.030 A 
HETATM    4  C   UNL     1      -2.833   5.833 -33.619  1.00  0.00     0.063 A 
HETATM    5  N   UNL     1      -1.953   6.876 -33.684  1.00  0.00    -0.277 N 
HETATM    6  H   UNL     1      -2.002   7.683 -34.297  1.00  0.00     0.189 HD
HETATM    7  N   UNL     1      -0.938   6.805 -32.808  1.00  0.00    -0.168 NA
HETATM    8  C   UNL     1      -1.153   5.639 -32.158  1.00  0.00     0.156 A 
HETATM    9  C   UNL     1      -4.022   5.580 -34.307  1.00  0.00     0.034 A 
HETATM   10  C   UNL     1      -4.705   4.402 -33.981  1.00  0.00     0.032 A 
ENDROOT
BRANCH   1  11
HETATM   11  N   UNL     1      -4.963   2.335 -32.791  1.00  0.00    -0.327 N 
HETATM   12  C   UNL     1      -5.819   2.143 -31.716  1.00  0.00     0.231 C 
HETATM   13  O   UNL     1      -5.947   2.944 -30.792  1.00  0.00    -0.272 OA
HETATM   14  H   UNL     1      -4.748   1.526 -33.359  1.00  0.00     0.169 HD
BRANCH  12  15
HETATM   15  C   UNL     1      -6.697   0.870 -31.806  1.00  0.00     0.115 C 
BRANCH  15  16
HETATM   16  C   UNL     1      -5.943  -0.427 -32.251  1.00  0.00    -0.001 C 
HETATM   17  C   UNL     1      -4.570  -0.533 -31.568  1.00  0.00     0.011 C 
BRANCH  16  18
HETATM   18  C   UNL     1      -5.834  -0.593 -33.784  1.00  0.00     0.001 C 
HETATM   19  C   UNL     1      -6.530  -1.837 -34.322  1.00  0.00     0.005 C 
ENDBRANCH  16  18
ENDBRANCH  15  16
BRANCH  15  20
HETATM   20  C   UNL     1      -8.021   1.032 -32.560  1.00  0.00    -0.045 A 
HETATM   21  C   UNL     1      -8.164   2.093 -33.470  1.00  0.00     0.008 A 
HETATM   22  C   UNL     1      -9.348   2.263 -34.189  1.00  0.00     0.001 A 
HETATM   23  C   UNL     1     -10.409   1.381 -34.002  1.00  0.00     0.000 A 
HETATM   24  C   UNL     1     -10.287   0.331 -33.096  1.00  0.00     0.001 A 
HETATM   25  C   UNL     1      -9.102   0.157 -32.377  1.00  0.00     0.008 A 
ENDBRANCH  15  20
ENDBRANCH  12  15
ENDBRANCH   1  11
BRANCH   8  26
HETATM   26  C   UNL     1      -0.275   5.205 -31.062  1.00  0.00     0.270 C 
HETATM   27  N   UNL     1      -0.741   5.523 -29.815  1.00  0.00    -0.365 N 
HETATM   28  H   UNL     1      -1.640   5.985 -29.738  1.00  0.00     0.159 HD
HETATM   29  H   UNL     1      -0.234   5.213 -29.001  1.00  0.00     0.159 HD
HETATM   30  O   UNL     1       0.775   4.589 -31.208  1.00  0.00    -0.266 OA
ENDBRANCH   8  26
TORSDOF 6
ENDMDL
MODEL 9
REMARK VINA RESULT:      -7.7      4.467      7.959
REMARK  6 active torsions:
REMARK  status: ('A' for Active; 'I' for Inactive)
REMARK    1  A    between atoms: C_2  and  C_3 
REMARK    2  A    between atoms: C_3  and  C_4 
REMARK    3  A    between atoms: C_4  and  C_5 
REMARK    4  A    between atoms: C_4  and  C_21 
REMARK       I    between atoms: C_5  and  N_6 
REMARK    5  A    between atoms: N_6  and  C_7 
REMARK    6  A    between atoms: C_14  and  C_15 
REMARK       I    between atoms: C_15  and  N_16 
ROOT
HETATM    1  C   UNL     1      -4.762   4.080 -32.500  1.00  0.00     0.035 A 
HETATM    2  C   UNL     1      -3.424   4.266 -32.127  1.00  0.00     0.046 A 
HETATM    3  C   UNL     1      -3.084   5.347 -31.284  1.00  0.00     0.030 A 
HETATM    4  C   UNL     1      -4.083   6.228 -30.888  1.00  0.00     0.063 A 
HETATM    5  N   UNL     1      -3.452   7.170 -30.125  1.00  0.00    -0.277 N 
HETATM    6  H   UNL     1      -3.869   7.982 -29.684  1.00  0.00     0.189 HD
HETATM    7  N   UNL     1      -2.141   6.950 -29.940  1.00  0.00    -0.168 NA
HETATM    8  C   UNL     1      -1.899   5.820 -30.643  1.00  0.00     0.156 A 
HETATM    9  C   UNL     1      -5.424   6.075 -31.249  1.00  0.00     0.034 A 
HETATM   10  C   UNL     1      -5.745   4.966 -32.041  1.00  0.00     0.032 A 
ENDROOT
BRANCH   1  11
HETATM   11  N   UNL     1      -5.192   2.993 -33.288  1.00  0.00    -0.327 N 
HETATM   12  C   UNL     1      -5.848   1.857 -32.833  1.00  0.00     0.231 C 
HETATM   13  O   UNL     1      -6.060   1.619 -31.646  1.00  0.00    -0.272 OA
HETATM   14  H   UNL     1      -4.853   2.979 -34.241  1.00  0.00     0.169 HD
BRANCH  12  15
HETATM   15  C   UNL     1      -6.394   0.934 -33.950  1.00  0.00     0.115 C 
BRANCH  15  16
HETATM   16  C   UNL     1      -7.954   0.869 -34.056  1.00  0.00    -0.001 C 
HETATM   17  C   UNL     1      -8.574   2.272 -33.980  1.00  0.00     0.011 C 
BRANCH  16  18
HETATM   18  C   UNL     1      -8.610  -0.103 -33.048  1.00  0.00     0.001 C 
HETATM   19  C   UNL     1      -9.383   0.592 -31.934  1.00  0.00     0.005 C 
ENDBRANCH  16  18
ENDBRANCH  15  16
BRANCH  15  20
HETATM   20  C   UNL     1      -5.772  -0.465 -34.014  1.00  0.00    -0.045 A 
HETATM   21  C   UNL     1      -6.346  -1.430 -34.859  1.00  0.00     0.008 A 
HETATM   22  C   UNL     1      -5.798  -2.710 -34.957  1.00  0.00     0.001 A 
HETATM   23  C   UNL     1      -4.673  -3.046 -34.209  1.00  0.00     0.000 A 
HETATM   24  C   UNL     1      -4.098  -2.104 -33.360  1.00  0.00     0.001 A 
HETATM   25  C   UNL     1      -4.643  -0.822 -33.260  1.00  0.00     0.008 A 
ENDBRANCH  15  20
ENDBRANCH  12  15
ENDBRANCH   1  11
BRANCH   8  26
HETATM   26  C   UNL     1      -0.566   5.203 -30.658  1.00  0.00     0.270 C 
HETATM   27  N   UNL     1      -0.007   5.052 -29.417  1.00  0.00    -0.365 N 
HETATM   28  H   UNL     1      -0.547   5.334 -28.607  1.00  0.00     0.159 HD
HETATM   29  H   UNL     1       0.881   4.585 -29.325  1.00  0.00     0.159 HD
HETATM   30  O   UNL     1       0.017   4.818 -31.666  1.00  0.00    -0.266 OA
ENDBRANCH   8  26
TORSDOF 6
ENDMDL
MODEL 10
REMARK VINA RESULT:      -7.6      2.345      4.337
REMARK  6 active torsions:
REMARK  status: ('A' for Active; 'I' for Inactive)
REMARK    1  A    between atoms: C_2  and  C_3 
REMARK    2  A    between atoms: C_3  and  C_4 
REMARK    3  A    between atoms: C_4  and  C_5 
REMARK    4  A    between atoms: C_4  and  C_21 
REMARK       I    between atoms: C_5  and  N_6 
REMARK    5  A    between atoms: N_6  and  C_7 
REMARK    6  A    between atoms: C_14  and  C_15 
REMARK       I    between atoms: C_15  and  N_16 
ROOT
HETATM    1  C   UNL     1     -10.297   1.570 -33.259  1.00  0.00     0.035 A 
HETATM    2  C   UNL     1     -10.526   2.820 -32.667  1.00  0.00     0.046 A 
HETATM    3  C   UNL     1     -11.634   3.590 -33.080  1.00  0.00     0.030 A 
HETATM    4  C   UNL     1     -12.442   3.106 -34.103  1.00  0.00     0.063 A 
HETATM    5  N   UNL     1     -13.389   4.071 -34.301  1.00  0.00    -0.277 N 
HETATM    6  H   UNL     1     -14.136   4.066 -34.986  1.00  0.00     0.189 HD
HETATM    7  N   UNL     1     -13.307   5.114 -33.460  1.00  0.00    -0.168 NA
HETATM    8  C   UNL     1     -12.231   4.827 -32.691  1.00  0.00     0.156 A 
HETATM    9  C   UNL     1     -12.237   1.870 -34.718  1.00  0.00     0.034 A 
HETATM   10  C   UNL     1     -11.162   1.100 -34.254  1.00  0.00     0.032 A 
ENDROOT
BRANCH   1  11
HETATM   11  N   UNL     1      -9.249   0.715 -32.860  1.00  0.00    -0.327 N 
HETATM   12  C   UNL     1      -8.042   0.532 -33.520  1.00  0.00     0.231 C 
HETATM   13  O   UNL     1      -7.772   1.041 -34.606  1.00  0.00    -0.272 OA
HETATM   14  H   UNL     1      -9.467   0.071 -32.111  1.00  0.00     0.169 HD
BRANCH  12  15
HETATM   15  C   UNL     1      -6.995  -0.298 -32.737  1.00  0.00     0.115 C 
BRANCH  15  16
HETATM   16  C   UNL     1      -5.935   0.542 -31.950  1.00  0.00    -0.001 C 
HETATM   17  C   UNL     1      -6.348   0.723 -30.481  1.00  0.00     0.011 C 
BRANCH  16  18
HETATM   18  C   UNL     1      -5.587   1.893 -32.617  1.00  0.00     0.001 C 
HETATM   19  C   UNL     1      -4.138   2.323 -32.422  1.00  0.00     0.005 C 
ENDBRANCH  16  18
ENDBRANCH  15  16
BRANCH  15  20
HETATM   20  C   UNL     1      -6.335  -1.437 -33.520  1.00  0.00    -0.045 A 
HETATM   21  C   UNL     1      -7.147  -2.353 -34.211  1.00  0.00     0.008 A 
HETATM   22  C   UNL     1      -6.582  -3.394 -34.949  1.00  0.00     0.001 A 
HETATM   23  C   UNL     1      -5.199  -3.539 -35.002  1.00  0.00     0.000 A 
HETATM   24  C   UNL     1      -4.380  -2.647 -34.315  1.00  0.00     0.001 A 
HETATM   25  C   UNL     1      -4.942  -1.603 -33.576  1.00  0.00     0.008 A 
ENDBRANCH  15  20
ENDBRANCH  12  15
ENDBRANCH   1  11
BRANCH   8  26
HETATM   26  C   UNL     1     -11.823   5.712 -31.592  1.00  0.00     0.270 C 
HETATM   27  N   UNL     1     -12.086   5.211 -30.345  1.00  0.00    -0.365 N 
HETATM   28  H   UNL     1     -12.495   4.286 -30.273  1.00  0.00     0.159 HD
HETATM   29  H   UNL     1     -11.787   5.723 -29.530  1.00  0.00     0.159 HD
HETATM   30  O   UNL     1     -11.269   6.797 -31.734  1.00  0.00    -0.266 OA
ENDBRANCH   8  26
TORSDOF 6
ENDMDL
