MODEL 1
REMARK VINA RESULT:     -10.3      0.000      0.000
REMARK  6 active torsions:
REMARK  status: ('A' for Active; 'I' for Inactive)
REMARK    1  A    between atoms: O_2  and  C_3 
REMARK    2  A    between atoms: C_7  and  C_8 
REMARK    3  A    between atoms: C_8  and  N_9 
REMARK       I    between atoms: N_9  and  C_10 
REMARK    4  A    between atoms: C_10  and  C_12 
REMARK    5  A    between atoms: N_14  and  C_15 
REMARK    6  A    between atoms: C_23  and  C_27 
ROOT
HETATM    1  C   UNL     1      -5.774   1.957 -31.807  1.00  0.00     0.060 C 
HETATM    2  C   UNL     1      -7.119   2.233 -31.975  1.00  0.00     0.115 C 
HETATM    3  N   UNL     1      -7.695   1.268 -32.782  1.00  0.00    -0.321 N 
HETATM    4  C   UNL     1      -6.750   0.264 -32.999  1.00  0.00     0.051 A 
HETATM    5  C   UNL     1      -6.852  -1.017 -33.591  1.00  0.00     0.043 A 
HETATM    6  C   UNL     1      -5.707  -1.822 -33.716  1.00  0.00    -0.021 A 
HETATM    7  C   UNL     1      -4.487  -1.354 -33.228  1.00  0.00     0.013 A 
HETATM    8  C   UNL     1      -4.393  -0.108 -32.597  1.00  0.00     0.016 A 
HETATM    9  C   UNL     1      -5.538   0.705 -32.456  1.00  0.00     0.008 A 
ENDROOT
BRANCH   1  10
HETATM   10  C   UNL     1      -4.787   2.793 -31.123  1.00  0.00     0.254 C 
HETATM   11  N   UNL     1      -3.668   3.088 -31.869  1.00  0.00    -0.353 N 
HETATM   12  H   UNL     1      -3.692   2.909 -32.861  1.00  0.00     0.163 HD
HETATM   13  O   UNL     1      -4.956   3.204 -29.980  1.00  0.00    -0.268 OA
BRANCH  11  14
HETATM   14  C   UNL     1      -2.631   3.957 -31.366  1.00  0.00     0.161 C 
BRANCH  14  15
HETATM   15  C   UNL     1      -2.258   5.015 -32.371  1.00  0.00    -0.038 A 
HETATM   16  C   UNL     1      -1.960   4.662 -33.694  1.00  0.00     0.009 A 
HETATM   17  C   UNL     1      -1.612   5.641 -34.623  1.00  0.00     0.003 A 
HETATM   18  C   UNL     1      -1.553   6.984 -34.244  1.00  0.00     0.037 A 
HETATM   19  C   UNL     1      -1.838   7.352 -32.929  1.00  0.00     0.068 A 
HETATM   20  C   UNL     1      -2.182   6.366 -31.999  1.00  0.00     0.045 A 
BRANCH  19  21
HETATM   21  O   UNL     1      -1.815   8.625 -32.428  1.00  0.00    -0.356 OA
HETATM   22  C   UNL     1      -2.476   8.836 -31.187  1.00  0.00     0.210 C 
ENDBRANCH  19  21
ENDBRANCH  14  15
ENDBRANCH  11  14
ENDBRANCH   1  10
BRANCH   3  23
HETATM   23  C   UNL     1      -9.023   1.351 -33.307  1.00  0.00     0.039 A 
HETATM   24  C   UNL     1      -9.392   2.407 -34.151  1.00  0.00     0.030 A 
HETATM   25  C   UNL     1     -10.699   2.497 -34.638  1.00  0.00     0.002 A 
HETATM   26  C   UNL     1     -11.647   1.540 -34.281  1.00  0.00     0.000 A 
HETATM   27  C   UNL     1     -11.292   0.496 -33.430  1.00  0.00     0.002 A 
HETATM   28  C   UNL     1      -9.988   0.403 -32.936  1.00  0.00     0.030 A 
ENDBRANCH   3  23
BRANCH   6  29
HETATM   29  C   UNL     1      -5.812  -3.132 -34.339  1.00  0.00     0.010 A 
HETATM   30  C   UNL     1      -4.868  -4.180 -34.460  1.00  0.00     0.152 A 
HETATM   31  N   UNL     1      -5.358  -5.251 -35.091  1.00  0.00    -0.187 NA
HETATM   32  N   UNL     1      -6.619  -4.893 -35.378  1.00  0.00    -0.289 N 
HETATM   33  H   UNL     1      -7.208  -5.559 -35.868  1.00  0.00     0.188 HD
HETATM   34  C   UNL     1      -6.942  -3.639 -34.948  1.00  0.00     0.123 A 
ENDBRANCH   6  29
TORSDOF 6
ENDMDL
MODEL 2
REMARK VINA RESULT:     -10.1      1.570      4.686
REMARK  6 active torsions:
REMARK  status: ('A' for Active; 'I' for Inactive)
REMARK    1  A    between atoms: O_2  and  C_3 
REMARK    2  A    between atoms: C_7  and  C_8 
REMARK    3  A    between atoms: C_8  and  N_9 
REMARK       I    between atoms: N_9  and  C_10 
REMARK    4  A    between atoms: C_10  and  C_12 
REMARK    5  A    between atoms: N_14  and  C_15 
REMARK    6  A    between atoms: C_23  and  C_27 
ROOT
HETATM    1  C   UNL     1      -4.417   0.761 -32.356  1.00  0.00     0.060 C 
HETATM    2  C   UNL     1      -4.170  -0.406 -33.056  1.00  0.00     0.115 C 
HETATM    3  N   UNL     1      -5.369  -0.996 -33.417  1.00  0.00    -0.321 N 
HETATM    4  C   UNL     1      -6.400  -0.112 -33.093  1.00  0.00     0.051 A 
HETATM    5  C   UNL     1      -7.782  -0.124 -33.394  1.00  0.00     0.043 A 
HETATM    6  C   UNL     1      -8.614   0.895 -32.898  1.00  0.00    -0.021 A 
HETATM    7  C   UNL     1      -8.056   1.920 -32.135  1.00  0.00     0.013 A 
HETATM    8  C   UNL     1      -6.681   1.962 -31.878  1.00  0.00     0.016 A 
HETATM    9  C   UNL     1      -5.833   0.950 -32.379  1.00  0.00     0.008 A 
ENDROOT
BRANCH   1  10
HETATM   10  C   UNL     1      -3.426   1.615 -31.701  1.00  0.00     0.254 C 
HETATM   11  N   UNL     1      -3.495   2.946 -32.047  1.00  0.00    -0.353 N 
HETATM   12  H   UNL     1      -4.318   3.273 -32.529  1.00  0.00     0.163 HD
HETATM   13  O   UNL     1      -2.608   1.174 -30.901  1.00  0.00    -0.268 OA
BRANCH  11  14
HETATM   14  C   UNL     1      -2.632   3.931 -31.440  1.00  0.00     0.161 C 
BRANCH  14  15
HETATM   15  C   UNL     1      -2.246   5.008 -32.419  1.00  0.00    -0.038 A 
HETATM   16  C   UNL     1      -1.921   4.680 -33.742  1.00  0.00     0.009 A 
HETATM   17  C   UNL     1      -1.561   5.677 -34.648  1.00  0.00     0.003 A 
HETATM   18  C   UNL     1      -1.516   7.013 -34.244  1.00  0.00     0.037 A 
HETATM   19  C   UNL     1      -1.827   7.357 -32.928  1.00  0.00     0.068 A 
HETATM   20  C   UNL     1      -2.183   6.352 -32.022  1.00  0.00     0.045 A 
BRANCH  19  21
HETATM   21  O   UNL     1      -1.819   8.621 -32.405  1.00  0.00    -0.356 OA
HETATM   22  C   UNL     1      -2.517   8.810 -31.180  1.00  0.00     0.210 C 
ENDBRANCH  19  21
ENDBRANCH  14  15
ENDBRANCH  11  14
ENDBRANCH   1  10
BRANCH   3  23
HETATM   23  C   UNL     1      -5.480  -2.303 -33.985  1.00  0.00     0.039 A 
HETATM   24  C   UNL     1      -6.676  -2.724 -34.583  1.00  0.00     0.030 A 
HETATM   25  C   UNL     1      -6.786  -4.013 -35.111  1.00  0.00     0.002 A 
HETATM   26  C   UNL     1      -5.708  -4.893 -35.039  1.00  0.00     0.000 A 
HETATM   27  C   UNL     1      -4.522  -4.489 -34.431  1.00  0.00     0.002 A 
HETATM   28  C   UNL     1      -4.407  -3.203 -33.897  1.00  0.00     0.030 A 
ENDBRANCH   3  23
BRANCH   6  29
HETATM   29  C   UNL     1     -10.038   0.872 -33.196  1.00  0.00     0.010 A 
HETATM   30  C   UNL     1     -10.872   1.838 -33.808  1.00  0.00     0.152 A 
HETATM   31  N   UNL     1     -12.139   1.430 -33.926  1.00  0.00    -0.187 NA
HETATM   32  N   UNL     1     -12.122   0.200 -33.389  1.00  0.00    -0.289 N 
HETATM   33  H   UNL     1     -12.989  -0.326 -33.365  1.00  0.00     0.188 HD
HETATM   34  C   UNL     1     -10.891  -0.182 -32.941  1.00  0.00     0.123 A 
ENDBRANCH   6  29
TORSDOF 6
ENDMDL
MODEL 3
REMARK VINA RESULT:      -9.6      3.167      8.216
REMARK  6 active torsions:
REMARK  status: ('A' for Active; 'I' for Inactive)
REMARK    1  A    between atoms: O_2  and  C_3 
REMARK    2  A    between atoms: C_7  and  C_8 
REMARK    3  A    between atoms: C_8  and  N_9 
REMARK       I    between atoms: N_9  and  C_10 
REMARK    4  A    between atoms: C_10  and  C_12 
REMARK    5  A    between atoms: N_14  and  C_15 
REMARK    6  A    between atoms: C_23  and  C_27 
ROOT
HETATM    1  C   UNL     1      -8.601   3.419 -33.547  1.00  0.00     0.060 C 
HETATM    2  C   UNL     1      -7.485   4.218 -33.727  1.00  0.00     0.115 C 
HETATM    3  N   UNL     1      -6.350   3.429 -33.772  1.00  0.00    -0.321 N 
HETATM    4  C   UNL     1      -6.751   2.092 -33.791  1.00  0.00     0.051 A 
HETATM    5  C   UNL     1      -6.033   0.893 -34.006  1.00  0.00     0.043 A 
HETATM    6  C   UNL     1      -6.697  -0.343 -33.930  1.00  0.00    -0.021 A 
HETATM    7  C   UNL     1      -8.067  -0.367 -33.667  1.00  0.00     0.013 A 
HETATM    8  C   UNL     1      -8.790   0.820 -33.504  1.00  0.00     0.016 A 
HETATM    9  C   UNL     1      -8.136   2.068 -33.588  1.00  0.00     0.008 A 
ENDROOT
BRANCH   1  10
HETATM   10  C   UNL     1      -9.975   3.872 -33.331  1.00  0.00     0.254 C 
HETATM   11  N   UNL     1     -10.804   3.733 -34.421  1.00  0.00    -0.353 N 
HETATM   12  H   UNL     1     -10.495   3.154 -35.188  1.00  0.00     0.163 HD
HETATM   13  O   UNL     1     -10.353   4.328 -32.257  1.00  0.00    -0.268 OA
BRANCH  11  14
HETATM   14  C   UNL     1     -12.206   4.069 -34.354  1.00  0.00     0.161 C 
BRANCH  14  15
HETATM   15  C   UNL     1     -13.053   2.861 -34.049  1.00  0.00    -0.038 A 
HETATM   16  C   UNL     1     -12.888   1.678 -34.782  1.00  0.00     0.009 A 
HETATM   17  C   UNL     1     -13.673   0.561 -34.503  1.00  0.00     0.003 A 
HETATM   18  C   UNL     1     -14.636   0.611 -33.492  1.00  0.00     0.037 A 
HETATM   19  C   UNL     1     -14.820   1.783 -32.759  1.00  0.00     0.068 A 
HETATM   20  C   UNL     1     -14.033   2.903 -33.047  1.00  0.00     0.045 A 
BRANCH  19  21
HETATM   21  O   UNL     1     -15.726   1.966 -31.750  1.00  0.00    -0.356 OA
HETATM   22  C   UNL     1     -16.944   2.614 -32.094  1.00  0.00     0.210 C 
ENDBRANCH  19  21
ENDBRANCH  14  15
ENDBRANCH  11  14
ENDBRANCH   1  10
BRANCH   3  23
HETATM   23  C   UNL     1      -5.016   3.943 -33.761  1.00  0.00     0.039 A 
HETATM   24  C   UNL     1      -4.589   4.846 -34.744  1.00  0.00     0.030 A 
HETATM   25  C   UNL     1      -3.275   5.322 -34.742  1.00  0.00     0.002 A 
HETATM   26  C   UNL     1      -2.377   4.897 -33.766  1.00  0.00     0.000 A 
HETATM   27  C   UNL     1      -2.788   3.987 -32.795  1.00  0.00     0.002 A 
HETATM   28  C   UNL     1      -4.099   3.503 -32.794  1.00  0.00     0.030 A 
ENDBRANCH   3  23
BRANCH   6  29
HETATM   29  C   UNL     1      -5.952  -1.575 -34.137  1.00  0.00     0.010 A 
HETATM   30  C   UNL     1      -6.354  -2.823 -34.671  1.00  0.00     0.152 A 
HETATM   31  N   UNL     1      -5.358  -3.714 -34.717  1.00  0.00    -0.187 NA
HETATM   32  N   UNL     1      -4.314  -3.040 -34.212  1.00  0.00    -0.289 N 
HETATM   33  H   UNL     1      -3.421  -3.517 -34.145  1.00  0.00     0.188 HD
HETATM   34  C   UNL     1      -4.614  -1.758 -33.853  1.00  0.00     0.123 A 
ENDBRANCH   6  29
TORSDOF 6
ENDMDL
MODEL 4
REMARK VINA RESULT:      -9.6      1.519      1.994
REMARK  6 active torsions:
REMARK  status: ('A' for Active; 'I' for Inactive)
REMARK    1  A    between atoms: O_2  and  C_3 
REMARK    2  A    between atoms: C_7  and  C_8 
REMARK    3  A    between atoms: C_8  and  N_9 
REMARK       I    between atoms: N_9  and  C_10 
REMARK    4  A    between atoms: C_10  and  C_12 
REMARK    5  A    between atoms: N_14  and  C_15 
REMARK    6  A    between atoms: C_23  and  C_27 
ROOT
HETATM    1  C   UNL     1      -7.295   2.829 -32.660  1.00  0.00     0.060 C 
HETATM    2  C   UNL     1      -8.675   2.764 -32.719  1.00  0.00     0.115 C 
HETATM    3  N   UNL     1      -9.062   1.567 -33.295  1.00  0.00    -0.321 N 
HETATM    4  C   UNL     1      -7.924   0.776 -33.456  1.00  0.00     0.051 A 
HETATM    5  C   UNL     1      -7.761  -0.579 -33.824  1.00  0.00     0.043 A 
HETATM    6  C   UNL     1      -6.469  -1.120 -33.948  1.00  0.00    -0.021 A 
HETATM    7  C   UNL     1      -5.363  -0.313 -33.678  1.00  0.00     0.013 A 
HETATM    8  C   UNL     1      -5.523   1.015 -33.264  1.00  0.00     0.016 A 
HETATM    9  C   UNL     1      -6.815   1.566 -33.127  1.00  0.00     0.008 A 
ENDROOT
BRANCH   1  10
HETATM   10  C   UNL     1      -6.489   3.971 -32.230  1.00  0.00     0.254 C 
HETATM   11  N   UNL     1      -6.118   4.827 -33.243  1.00  0.00    -0.353 N 
HETATM   12  H   UNL     1      -6.584   4.745 -34.134  1.00  0.00     0.163 HD
HETATM   13  O   UNL     1      -6.181   4.152 -31.057  1.00  0.00    -0.268 OA
BRANCH  11  14
HETATM   14  C   UNL     1      -5.379   6.038 -32.978  1.00  0.00     0.161 C 
BRANCH  14  15
HETATM   15  C   UNL     1      -3.940   5.913 -33.404  1.00  0.00    -0.038 A 
HETATM   16  C   UNL     1      -3.608   5.265 -34.600  1.00  0.00     0.009 A 
HETATM   17  C   UNL     1      -2.276   5.146 -34.993  1.00  0.00     0.003 A 
HETATM   18  C   UNL     1      -1.257   5.669 -34.194  1.00  0.00     0.037 A 
HETATM   19  C   UNL     1      -1.567   6.310 -32.995  1.00  0.00     0.068 A 
HETATM   20  C   UNL     1      -2.906   6.422 -32.603  1.00  0.00     0.045 A 
BRANCH  19  21
HETATM   21  O   UNL     1      -0.670   6.861 -32.122  1.00  0.00    -0.356 OA
HETATM   22  C   UNL     1      -0.040   5.973 -31.206  1.00  0.00     0.210 C 
ENDBRANCH  19  21
ENDBRANCH  14  15
ENDBRANCH  11  14
ENDBRANCH   1  10
BRANCH   3  23
HETATM   23  C   UNL     1     -10.405   1.259 -33.677  1.00  0.00     0.039 A 
HETATM   24  C   UNL     1     -11.077   0.167 -33.111  1.00  0.00     0.030 A 
HETATM   25  C   UNL     1     -12.379  -0.145 -33.510  1.00  0.00     0.002 A 
HETATM   26  C   UNL     1     -13.018   0.624 -34.480  1.00  0.00     0.000 A 
HETATM   27  C   UNL     1     -12.351   1.702 -35.060  1.00  0.00     0.002 A 
HETATM   28  C   UNL     1     -11.047   2.016 -34.668  1.00  0.00     0.030 A 
ENDBRANCH   3  23
BRANCH   6  29
HETATM   29  C   UNL     1      -6.304  -2.510 -34.341  1.00  0.00     0.010 A 
HETATM   30  C   UNL     1      -5.138  -3.261 -34.628  1.00  0.00     0.152 A 
HETATM   31  N   UNL     1      -5.403  -4.534 -34.936  1.00  0.00    -0.187 NA
HETATM   32  N   UNL     1      -6.740  -4.604 -34.850  1.00  0.00    -0.289 N 
HETATM   33  H   UNL     1      -7.188  -5.494 -35.043  1.00  0.00     0.188 HD
HETATM   34  C   UNL     1      -7.327  -3.424 -34.494  1.00  0.00     0.123 A 
ENDBRANCH   6  29
TORSDOF 6
ENDMDL
MODEL 5
REMARK VINA RESULT:      -9.3      4.075      7.167
REMARK  6 active torsions:
REMARK  status: ('A' for Active; 'I' for Inactive)
REMARK    1  A    between atoms: O_2  and  C_3 
REMARK    2  A    between atoms: C_7  and  C_8 
REMARK    3  A    between atoms: C_8  and  N_9 
REMARK       I    between atoms: N_9  and  C_10 
REMARK    4  A    between atoms: C_10  and  C_12 
REMARK    5  A    between atoms: N_14  and  C_15 
REMARK    6  A    between atoms: C_23  and  C_27 
ROOT
HETATM    1  C   UNL     1      -6.812   1.668 -31.341  1.00  0.00     0.060 C 
HETATM    2  C   UNL     1      -7.040   2.952 -30.879  1.00  0.00     0.115 C 
HETATM    3  N   UNL     1      -8.246   3.418 -31.374  1.00  0.00    -0.321 N 
HETATM    4  C   UNL     1      -8.884   2.361 -32.026  1.00  0.00     0.051 A 
HETATM    5  C   UNL     1     -10.189   2.227 -32.552  1.00  0.00     0.043 A 
HETATM    6  C   UNL     1     -10.561   1.039 -33.205  1.00  0.00    -0.021 A 
HETATM    7  C   UNL     1      -9.640  -0.004 -33.301  1.00  0.00     0.013 A 
HETATM    8  C   UNL     1      -8.364   0.107 -32.736  1.00  0.00     0.016 A 
HETATM    9  C   UNL     1      -7.982   1.291 -32.070  1.00  0.00     0.008 A 
ENDROOT
BRANCH   1  10
HETATM   10  C   UNL     1      -5.602   0.870 -31.145  1.00  0.00     0.254 C 
HETATM   11  N   UNL     1      -4.819   0.726 -32.269  1.00  0.00    -0.353 N 
HETATM   12  H   UNL     1      -4.997   1.329 -33.057  1.00  0.00     0.163 HD
HETATM   13  O   UNL     1      -5.309   0.380 -30.060  1.00  0.00    -0.268 OA
BRANCH  11  14
HETATM   14  C   UNL     1      -3.559   0.024 -32.228  1.00  0.00     0.161 C 
BRANCH  14  15
HETATM   15  C   UNL     1      -3.708  -1.410 -32.663  1.00  0.00    -0.038 A 
HETATM   16  C   UNL     1      -3.073  -2.436 -31.951  1.00  0.00     0.009 A 
HETATM   17  C   UNL     1      -3.208  -3.763 -32.355  1.00  0.00     0.003 A 
HETATM   18  C   UNL     1      -3.975  -4.084 -33.478  1.00  0.00     0.037 A 
HETATM   19  C   UNL     1      -4.606  -3.074 -34.204  1.00  0.00     0.068 A 
HETATM   20  C   UNL     1      -4.463  -1.743 -33.797  1.00  0.00     0.045 A 
BRANCH  19  21
HETATM   21  O   UNL     1      -5.380  -3.250 -35.319  1.00  0.00    -0.356 OA
HETATM   22  C   UNL     1      -6.224  -4.395 -35.337  1.00  0.00     0.210 C 
ENDBRANCH  19  21
ENDBRANCH  14  15
ENDBRANCH  11  14
ENDBRANCH   1  10
BRANCH   3  23
HETATM   23  C   UNL     1      -8.696   4.769 -31.245  1.00  0.00     0.039 A 
HETATM   24  C   UNL     1      -9.247   5.227 -30.040  1.00  0.00     0.030 A 
HETATM   25  C   UNL     1      -9.711   6.541 -29.931  1.00  0.00     0.002 A 
HETATM   26  C   UNL     1      -9.636   7.403 -31.023  1.00  0.00     0.000 A 
HETATM   27  C   UNL     1      -9.105   6.950 -32.229  1.00  0.00     0.002 A 
HETATM   28  C   UNL     1      -8.644   5.636 -32.346  1.00  0.00     0.030 A 
ENDBRANCH   3  23
BRANCH   6  29
HETATM   29  C   UNL     1     -11.900   0.910 -33.758  1.00  0.00     0.010 A 
HETATM   30  C   UNL     1     -12.629   1.756 -34.629  1.00  0.00     0.152 A 
HETATM   31  N   UNL     1     -13.839   1.274 -34.930  1.00  0.00    -0.187 NA
HETATM   32  N   UNL     1     -13.890   0.117 -34.251  1.00  0.00    -0.289 N 
HETATM   33  H   UNL     1     -14.732  -0.446 -34.325  1.00  0.00     0.188 HD
HETATM   34  C   UNL     1     -12.757  -0.149 -33.539  1.00  0.00     0.123 A 
ENDBRANCH   6  29
TORSDOF 6
ENDMDL
MODEL 6
REMARK VINA RESULT:      -9.2      3.346      9.066
REMARK  6 active torsions:
REMARK  status: ('A' for Active; 'I' for Inactive)
REMARK    1  A    between atoms: O_2  and  C_3 
REMARK    2  A    between atoms: C_7  and  C_8 
REMARK    3  A    between atoms: C_8  and  N_9 
REMARK       I    between atoms: N_9  and  C_10 
REMARK    4  A    between atoms: C_10  and  C_12 
REMARK    5  A    between atoms: N_14  and  C_15 
REMARK    6  A    between atoms: C_23  and  C_27 
ROOT
HETATM    1  C   UNL     1      -8.496   2.598 -33.466  1.00  0.00     0.060 C 
HETATM    2  C   UNL     1      -8.212   1.244 -33.502  1.00  0.00     0.115 C 
HETATM    3  N   UNL     1      -6.842   1.055 -33.516  1.00  0.00    -0.321 N 
HETATM    4  C   UNL     1      -6.231   2.294 -33.315  1.00  0.00     0.051 A 
HETATM    5  C   UNL     1      -4.886   2.655 -33.069  1.00  0.00     0.043 A 
HETATM    6  C   UNL     1      -4.539   4.011 -32.941  1.00  0.00    -0.021 A 
HETATM    7  C   UNL     1      -5.536   4.982 -33.033  1.00  0.00     0.013 A 
HETATM    8  C   UNL     1      -6.875   4.625 -33.225  1.00  0.00     0.016 A 
HETATM    9  C   UNL     1      -7.238   3.266 -33.346  1.00  0.00     0.008 A 
ENDROOT
BRANCH   1  10
HETATM   10  C   UNL     1      -9.817   3.218 -33.558  1.00  0.00     0.254 C 
HETATM   11  N   UNL     1     -10.707   2.826 -32.583  1.00  0.00    -0.353 N 
HETATM   12  H   UNL     1     -10.349   2.335 -31.778  1.00  0.00     0.163 HD
HETATM   13  O   UNL     1     -10.099   4.031 -34.432  1.00  0.00    -0.268 OA
BRANCH  11  14
HETATM   14  C   UNL     1     -12.030   3.394 -32.493  1.00  0.00     0.161 C 
BRANCH  14  15
HETATM   15  C   UNL     1     -13.074   2.458 -33.043  1.00  0.00    -0.038 A 
HETATM   16  C   UNL     1     -12.720   1.466 -33.967  1.00  0.00     0.009 A 
HETATM   17  C   UNL     1     -13.687   0.602 -34.479  1.00  0.00     0.003 A 
HETATM   18  C   UNL     1     -15.020   0.718 -34.078  1.00  0.00     0.037 A 
HETATM   19  C   UNL     1     -15.392   1.706 -33.166  1.00  0.00     0.068 A 
HETATM   20  C   UNL     1     -14.418   2.574 -32.659  1.00  0.00     0.045 A 
BRANCH  19  21
HETATM   21  O   UNL     1     -16.656   1.929 -32.694  1.00  0.00    -0.356 OA
HETATM   22  C   UNL     1     -16.914   3.214 -32.140  1.00  0.00     0.210 C 
ENDBRANCH  19  21
ENDBRANCH  14  15
ENDBRANCH  11  14
ENDBRANCH   1  10
BRANCH   3  23
HETATM   23  C   UNL     1      -6.210  -0.208 -33.739  1.00  0.00     0.039 A 
HETATM   24  C   UNL     1      -5.046  -0.559 -33.042  1.00  0.00     0.030 A 
HETATM   25  C   UNL     1      -4.418  -1.783 -33.287  1.00  0.00     0.002 A 
HETATM   26  C   UNL     1      -4.941  -2.662 -34.232  1.00  0.00     0.000 A 
HETATM   27  C   UNL     1      -6.088  -2.314 -34.942  1.00  0.00     0.002 A 
HETATM   28  C   UNL     1      -6.718  -1.089 -34.705  1.00  0.00     0.030 A 
ENDBRANCH   3  23
BRANCH   6  29
HETATM   29  C   UNL     1      -3.152   4.379 -32.703  1.00  0.00     0.010 A 
HETATM   30  C   UNL     1      -2.339   4.237 -31.552  1.00  0.00     0.152 A 
HETATM   31  N   UNL     1      -1.094   4.684 -31.737  1.00  0.00    -0.187 NA
HETATM   32  N   UNL     1      -1.104   5.117 -33.007  1.00  0.00    -0.289 N 
HETATM   33  H   UNL     1      -0.249   5.510 -33.388  1.00  0.00     0.188 HD
HETATM   34  C   UNL     1      -2.307   4.955 -33.630  1.00  0.00     0.123 A 
ENDBRANCH   6  29
TORSDOF 6
ENDMDL
MODEL 7
REMARK VINA RESULT:      -9.1      2.101      2.599
REMARK  6 active torsions:
REMARK  status: ('A' for Active; 'I' for Inactive)
REMARK    1  A    between atoms: O_2  and  C_3 
REMARK    2  A    between atoms: C_7  and  C_8 
REMARK    3  A    between atoms: C_8  and  N_9 
REMARK       I    between atoms: N_9  and  C_10 
REMARK    4  A    between atoms: C_10  and  C_12 
REMARK    5  A    between atoms: N_14  and  C_15 
REMARK    6  A    between atoms: C_23  and  C_27 
ROOT
HETATM    1  C   UNL     1      -5.470   3.431 -31.931  1.00  0.00     0.060 C 
HETATM    2  C   UNL     1      -6.837   3.256 -32.054  1.00  0.00     0.115 C 
HETATM    3  N   UNL     1      -7.104   1.979 -32.516  1.00  0.00    -0.321 N 
HETATM    4  C   UNL     1      -5.905   1.264 -32.531  1.00  0.00     0.051 A 
HETATM    5  C   UNL     1      -5.625  -0.106 -32.741  1.00  0.00     0.043 A 
HETATM    6  C   UNL     1      -4.293  -0.556 -32.739  1.00  0.00    -0.021 A 
HETATM    7  C   UNL     1      -3.265   0.357 -32.502  1.00  0.00     0.013 A 
HETATM    8  C   UNL     1      -3.542   1.704 -32.243  1.00  0.00     0.016 A 
HETATM    9  C   UNL     1      -4.876   2.166 -32.233  1.00  0.00     0.008 A 
ENDROOT
BRANCH   1  10
HETATM   10  C   UNL     1      -4.774   4.671 -31.588  1.00  0.00     0.254 C 
HETATM   11  N   UNL     1      -3.795   5.048 -32.480  1.00  0.00    -0.353 N 
HETATM   12  H   UNL     1      -3.770   4.596 -33.382  1.00  0.00     0.163 HD
HETATM   13  O   UNL     1      -5.053   5.323 -30.587  1.00  0.00    -0.268 OA
BRANCH  11  14
HETATM   14  C   UNL     1      -3.061   6.280 -32.323  1.00  0.00     0.161 C 
BRANCH  14  15
HETATM   15  C   UNL     1      -1.853   6.097 -31.444  1.00  0.00    -0.038 A 
HETATM   16  C   UNL     1      -0.723   5.421 -31.923  1.00  0.00     0.009 A 
HETATM   17  C   UNL     1       0.395   5.248 -31.109  1.00  0.00     0.003 A 
HETATM   18  C   UNL     1       0.399   5.745 -29.803  1.00  0.00     0.037 A 
HETATM   19  C   UNL     1      -0.720   6.414 -29.306  1.00  0.00     0.068 A 
HETATM   20  C   UNL     1      -1.841   6.579 -30.126  1.00  0.00     0.045 A 
BRANCH  19  21
HETATM   21  O   UNL     1      -0.847   6.944 -28.051  1.00  0.00    -0.356 OA
HETATM   22  C   UNL     1       0.089   6.505 -27.074  1.00  0.00     0.210 C 
ENDBRANCH  19  21
ENDBRANCH  14  15
ENDBRANCH  11  14
ENDBRANCH   1  10
BRANCH   3  23
HETATM   23  C   UNL     1      -8.397   1.531 -32.930  1.00  0.00     0.039 A 
HETATM   24  C   UNL     1      -9.131   2.249 -33.883  1.00  0.00     0.030 A 
HETATM   25  C   UNL     1     -10.406   1.820 -34.261  1.00  0.00     0.002 A 
HETATM   26  C   UNL     1     -10.959   0.677 -33.688  1.00  0.00     0.000 A 
HETATM   27  C   UNL     1     -10.243  -0.034 -32.728  1.00  0.00     0.002 A 
HETATM   28  C   UNL     1      -8.969   0.393 -32.342  1.00  0.00     0.030 A 
ENDBRANCH   3  23
BRANCH   6  29
HETATM   29  C   UNL     1      -4.007  -1.963 -32.970  1.00  0.00     0.010 A 
HETATM   30  C   UNL     1      -3.298  -2.906 -32.187  1.00  0.00     0.152 A 
HETATM   31  N   UNL     1      -3.272  -4.123 -32.738  1.00  0.00    -0.187 NA
HETATM   32  N   UNL     1      -3.963  -3.965 -33.877  1.00  0.00    -0.289 N 
HETATM   33  H   UNL     1      -4.084  -4.771 -34.482  1.00  0.00     0.188 HD
HETATM   34  C   UNL     1      -4.427  -2.695 -34.062  1.00  0.00     0.123 A 
ENDBRANCH   6  29
TORSDOF 6
ENDMDL
MODEL 8
REMARK VINA RESULT:      -9.1      1.677      2.710
REMARK  6 active torsions:
REMARK  status: ('A' for Active; 'I' for Inactive)
REMARK    1  A    between atoms: O_2  and  C_3 
REMARK    2  A    between atoms: C_7  and  C_8 
REMARK    3  A    between atoms: C_8  and  N_9 
REMARK       I    between atoms: N_9  and  C_10 
REMARK    4  A    between atoms: C_10  and  C_12 
REMARK    5  A    between atoms: N_14  and  C_15 
REMARK    6  A    between atoms: C_23  and  C_27 
ROOT
HETATM    1  C   UNL     1      -5.929   3.382 -30.681  1.00  0.00     0.060 C 
HETATM    2  C   UNL     1      -7.247   3.274 -31.087  1.00  0.00     0.115 C 
HETATM    3  N   UNL     1      -7.402   2.147 -31.874  1.00  0.00    -0.321 N 
HETATM    4  C   UNL     1      -6.208   1.425 -31.836  1.00  0.00     0.051 A 
HETATM    5  C   UNL     1      -5.870   0.134 -32.305  1.00  0.00     0.043 A 
HETATM    6  C   UNL     1      -4.553  -0.337 -32.166  1.00  0.00    -0.021 A 
HETATM    7  C   UNL     1      -3.602   0.470 -31.541  1.00  0.00     0.013 A 
HETATM    8  C   UNL     1      -3.946   1.727 -31.031  1.00  0.00     0.016 A 
HETATM    9  C   UNL     1      -5.267   2.207 -31.156  1.00  0.00     0.008 A 
ENDROOT
BRANCH   1  10
HETATM   10  C   UNL     1      -5.330   4.490 -29.938  1.00  0.00     0.254 C 
HETATM   11  N   UNL     1      -4.347   5.174 -30.617  1.00  0.00    -0.353 N 
HETATM   12  H   UNL     1      -4.258   5.023 -31.611  1.00  0.00     0.163 HD
HETATM   13  O   UNL     1      -5.688   4.787 -28.803  1.00  0.00    -0.268 OA
BRANCH  11  14
HETATM   14  C   UNL     1      -3.702   6.334 -30.051  1.00  0.00     0.161 C 
BRANCH  14  15
HETATM   15  C   UNL     1      -2.323   6.537 -30.622  1.00  0.00    -0.038 A 
HETATM   16  C   UNL     1      -1.215   6.651 -29.773  1.00  0.00     0.009 A 
HETATM   17  C   UNL     1       0.061   6.841 -30.300  1.00  0.00     0.003 A 
HETATM   18  C   UNL     1       0.247   6.925 -31.682  1.00  0.00     0.037 A 
HETATM   19  C   UNL     1      -0.846   6.822 -32.542  1.00  0.00     0.068 A 
HETATM   20  C   UNL     1      -2.125   6.636 -32.007  1.00  0.00     0.045 A 
BRANCH  19  21
HETATM   21  O   UNL     1      -0.803   6.888 -33.908  1.00  0.00    -0.356 OA
HETATM   22  C   UNL     1      -1.358   5.789 -34.619  1.00  0.00     0.210 C 
ENDBRANCH  19  21
ENDBRANCH  14  15
ENDBRANCH  11  14
ENDBRANCH   1  10
BRANCH   3  23
HETATM   23  C   UNL     1      -8.590   1.839 -32.609  1.00  0.00     0.039 A 
HETATM   24  C   UNL     1      -9.302   0.659 -32.356  1.00  0.00     0.030 A 
HETATM   25  C   UNL     1     -10.446   0.353 -33.097  1.00  0.00     0.002 A 
HETATM   26  C   UNL     1     -10.883   1.215 -34.100  1.00  0.00     0.000 A 
HETATM   27  C   UNL     1     -10.171   2.382 -34.369  1.00  0.00     0.002 A 
HETATM   28  C   UNL     1      -9.024   2.693 -33.634  1.00  0.00     0.030 A 
ENDBRANCH   3  23
BRANCH   6  29
HETATM   29  C   UNL     1      -4.205  -1.659 -32.663  1.00  0.00     0.010 A 
HETATM   30  C   UNL     1      -4.588  -2.335 -33.846  1.00  0.00     0.152 A 
HETATM   31  N   UNL     1      -4.032  -3.546 -33.955  1.00  0.00    -0.187 NA
HETATM   32  N   UNL     1      -3.292  -3.651 -32.841  1.00  0.00    -0.289 N 
HETATM   33  H   UNL     1      -2.761  -4.503 -32.696  1.00  0.00     0.188 HD
HETATM   34  C   UNL     1      -3.357  -2.550 -32.037  1.00  0.00     0.123 A 
ENDBRANCH   6  29
TORSDOF 6
ENDMDL
MODEL 9
REMARK VINA RESULT:      -9.0      3.091      8.785
REMARK  6 active torsions:
REMARK  status: ('A' for Active; 'I' for Inactive)
REMARK    1  A    between atoms: O_2  and  C_3 
REMARK    2  A    between atoms: C_7  and  C_8 
REMARK    3  A    between atoms: C_8  and  N_9 
REMARK       I    between atoms: N_9  and  C_10 
REMARK    4  A    between atoms: C_10  and  C_12 
REMARK    5  A    between atoms: N_14  and  C_15 
REMARK    6  A    between atoms: C_23  and  C_27 
ROOT
HETATM    1  C   UNL     1      -3.852   2.176 -31.238  1.00  0.00     0.060 C 
HETATM    2  C   UNL     1      -2.917   3.167 -31.476  1.00  0.00     0.115 C 
HETATM    3  N   UNL     1      -3.496   4.410 -31.291  1.00  0.00    -0.321 N 
HETATM    4  C   UNL     1      -4.774   4.218 -30.763  1.00  0.00     0.051 A 
HETATM    5  C   UNL     1      -5.721   5.122 -30.230  1.00  0.00     0.043 A 
HETATM    6  C   UNL     1      -6.972   4.650 -29.796  1.00  0.00    -0.021 A 
HETATM    7  C   UNL     1      -7.250   3.285 -29.875  1.00  0.00     0.013 A 
HETATM    8  C   UNL     1      -6.296   2.381 -30.355  1.00  0.00     0.016 A 
HETATM    9  C   UNL     1      -5.033   2.842 -30.785  1.00  0.00     0.008 A 
ENDROOT
BRANCH   1  10
HETATM   10  C   UNL     1      -3.674   0.739 -31.438  1.00  0.00     0.254 C 
HETATM   11  N   UNL     1      -3.485   0.359 -32.748  1.00  0.00    -0.353 N 
HETATM   12  H   UNL     1      -3.268   1.073 -33.427  1.00  0.00     0.163 HD
HETATM   13  O   UNL     1      -3.684  -0.058 -30.507  1.00  0.00    -0.268 OA
BRANCH  11  14
HETATM   14  C   UNL     1      -3.228  -1.014 -33.109  1.00  0.00     0.161 C 
BRANCH  14  15
HETATM   15  C   UNL     1      -4.448  -1.671 -33.698  1.00  0.00    -0.038 A 
HETATM   16  C   UNL     1      -4.413  -3.019 -34.081  1.00  0.00     0.009 A 
HETATM   17  C   UNL     1      -5.541  -3.626 -34.629  1.00  0.00     0.003 A 
HETATM   18  C   UNL     1      -6.719  -2.896 -34.807  1.00  0.00     0.037 A 
HETATM   19  C   UNL     1      -6.769  -1.551 -34.440  1.00  0.00     0.068 A 
HETATM   20  C   UNL     1      -5.632  -0.945 -33.895  1.00  0.00     0.045 A 
BRANCH  19  21
HETATM   21  O   UNL     1      -7.853  -0.725 -34.563  1.00  0.00    -0.356 OA
HETATM   22  C   UNL     1      -7.603   0.589 -35.049  1.00  0.00     0.210 C 
ENDBRANCH  19  21
ENDBRANCH  14  15
ENDBRANCH  11  14
ENDBRANCH   1  10
BRANCH   3  23
HETATM   23  C   UNL     1      -2.866   5.647 -31.633  1.00  0.00     0.039 A 
HETATM   24  C   UNL     1      -2.349   6.486 -30.636  1.00  0.00     0.030 A 
HETATM   25  C   UNL     1      -1.760   7.707 -30.977  1.00  0.00     0.002 A 
HETATM   26  C   UNL     1      -1.689   8.102 -32.311  1.00  0.00     0.000 A 
HETATM   27  C   UNL     1      -2.216   7.282 -33.306  1.00  0.00     0.002 A 
HETATM   28  C   UNL     1      -2.810   6.062 -32.972  1.00  0.00     0.030 A 
ENDBRANCH   3  23
BRANCH   6  29
HETATM   29  C   UNL     1      -7.950   5.585 -29.261  1.00  0.00     0.010 A 
HETATM   30  C   UNL     1      -7.868   6.493 -28.178  1.00  0.00     0.152 A 
HETATM   31  N   UNL     1      -8.986   7.205 -28.012  1.00  0.00    -0.187 NA
HETATM   32  N   UNL     1      -9.790   6.755 -28.987  1.00  0.00    -0.289 N 
HETATM   33  H   UNL     1     -10.719   7.156 -29.068  1.00  0.00     0.188 HD
HETATM   34  C   UNL     1      -9.218   5.790 -29.764  1.00  0.00     0.123 A 
ENDBRANCH   6  29
TORSDOF 6
ENDMDL
MODEL 10
REMARK VINA RESULT:      -9.0      2.058      5.036
REMARK  6 active torsions:
REMARK  status: ('A' for Active; 'I' for Inactive)
REMARK    1  A    between atoms: O_2  and  C_3 
REMARK    2  A    between atoms: C_7  and  C_8 
REMARK    3  A    between atoms: C_8  and  N_9 
REMARK       I    between atoms: N_9  and  C_10 
REMARK    4  A    between atoms: C_10  and  C_12 
REMARK    5  A    between atoms: N_14  and  C_15 
REMARK    6  A    between atoms: C_23  and  C_27 
ROOT
HETATM    1  C   UNL     1      -4.389   1.262 -32.561  1.00  0.00     0.060 C 
HETATM    2  C   UNL     1      -4.155   0.044 -33.174  1.00  0.00     0.115 C 
HETATM    3  N   UNL     1      -5.359  -0.592 -33.421  1.00  0.00    -0.321 N 
HETATM    4  C   UNL     1      -6.390   0.299 -33.118  1.00  0.00     0.051 A 
HETATM    5  C   UNL     1      -7.785   0.240 -33.343  1.00  0.00     0.043 A 
HETATM    6  C   UNL     1      -8.610   1.284 -32.890  1.00  0.00    -0.021 A 
HETATM    7  C   UNL     1      -8.034   2.379 -32.245  1.00  0.00     0.013 A 
HETATM    8  C   UNL     1      -6.649   2.463 -32.066  1.00  0.00     0.016 A 
HETATM    9  C   UNL     1      -5.808   1.426 -32.525  1.00  0.00     0.008 A 
ENDROOT
BRANCH   1  10
HETATM   10  C   UNL     1      -3.383   2.183 -32.033  1.00  0.00     0.254 C 
HETATM   11  N   UNL     1      -3.212   3.333 -32.770  1.00  0.00    -0.353 N 
HETATM   12  H   UNL     1      -3.907   3.565 -33.464  1.00  0.00     0.163 HD
HETATM   13  O   UNL     1      -2.752   1.947 -31.008  1.00  0.00    -0.268 OA
BRANCH  11  14
HETATM   14  C   UNL     1      -2.307   4.375 -32.349  1.00  0.00     0.161 C 
BRANCH  14  15
HETATM   15  C   UNL     1      -3.015   5.434 -31.546  1.00  0.00    -0.038 A 
HETATM   16  C   UNL     1      -4.361   5.733 -31.798  1.00  0.00     0.009 A 
HETATM   17  C   UNL     1      -5.016   6.715 -31.057  1.00  0.00     0.003 A 
HETATM   18  C   UNL     1      -4.335   7.416 -30.058  1.00  0.00     0.037 A 
HETATM   19  C   UNL     1      -2.993   7.138 -29.800  1.00  0.00     0.068 A 
HETATM   20  C   UNL     1      -2.339   6.155 -30.550  1.00  0.00     0.045 A 
BRANCH  19  21
HETATM   21  O   UNL     1      -2.213   7.750 -28.857  1.00  0.00    -0.356 OA
HETATM   22  C   UNL     1      -2.497   7.444 -27.497  1.00  0.00     0.210 C 
ENDBRANCH  19  21
ENDBRANCH  14  15
ENDBRANCH  11  14
ENDBRANCH   1  10
BRANCH   3  23
HETATM   23  C   UNL     1      -5.473  -1.945 -33.871  1.00  0.00     0.039 A 
HETATM   24  C   UNL     1      -4.374  -2.812 -33.816  1.00  0.00     0.030 A 
HETATM   25  C   UNL     1      -4.485  -4.124 -34.284  1.00  0.00     0.002 A 
HETATM   26  C   UNL     1      -5.690  -4.577 -34.818  1.00  0.00     0.000 A 
HETATM   27  C   UNL     1      -6.782  -3.716 -34.892  1.00  0.00     0.002 A 
HETATM   28  C   UNL     1      -6.676  -2.402 -34.429  1.00  0.00     0.030 A 
ENDBRANCH   3  23
BRANCH   6  29
HETATM   29  C   UNL     1     -10.047   1.214 -33.110  1.00  0.00     0.010 A 
HETATM   30  C   UNL     1     -10.987   2.224 -33.422  1.00  0.00     0.152 A 
HETATM   31  N   UNL     1     -12.228   1.751 -33.569  1.00  0.00    -0.187 NA
HETATM   32  N   UNL     1     -12.088   0.435 -33.351  1.00  0.00    -0.289 N 
HETATM   33  H   UNL     1     -12.913  -0.153 -33.411  1.00  0.00     0.188 HD
HETATM   34  C   UNL     1     -10.805   0.061 -33.076  1.00  0.00     0.123 A 
ENDBRANCH   6  29
TORSDOF 6
ENDMDL
