MODEL 1
REMARK VINA RESULT:      -8.9      0.000      0.000
REMARK  7 active torsions:
REMARK  status: ('A' for Active; 'I' for Inactive)
REMARK    1  A    between atoms: O_2  and  C_3 
REMARK    2  A    between atoms: C_6  and  C_7 
REMARK    3  A    between atoms: C_11  and  C_12 
REMARK       I    between atoms: C_12  and  N_13 
REMARK    4  A    between atoms: N_13  and  N_14 
REMARK       I    between atoms: N_14  and  C_15 
REMARK    5  A    between atoms: C_15  and  C_16 
REMARK    6  A    between atoms: C_16  and  C_17 
REMARK    7  A    between atoms: C_17  and  C_18 
ROOT
HETATM    1  C   UNL     1      -1.765   4.736 -31.442  1.00  0.00     0.288 C 
HETATM    2  N   UNL     1      -2.817   3.985 -30.966  1.00  0.00    -0.262 N 
HETATM    3  O   UNL     1      -1.525   4.839 -32.642  1.00  0.00    -0.264 OA
HETATM    4  H   UNL     1      -3.053   3.903 -29.979  1.00  0.00     0.190 HD
ENDROOT
BRANCH   1   5
HETATM    5  C   UNL     1      -0.976   5.381 -30.429  1.00  0.00     0.121 A 
HETATM    6  N   UNL     1       0.060   4.751 -29.799  1.00  0.00    -0.272 N 
HETATM    7  N   UNL     1       0.671   5.495 -28.865  1.00  0.00    -0.174 NA
HETATM    8  H   UNL     1       0.386   3.803 -29.961  1.00  0.00     0.189 HD
HETATM    9  C   UNL     1       0.032   6.675 -28.898  1.00  0.00     0.089 A 
HETATM   10  C   UNL     1      -1.011   6.641 -29.865  1.00  0.00     0.071 A 
BRANCH   9  11
HETATM   11  C   UNL     1       0.400   7.787 -28.017  1.00  0.00    -0.005 A 
HETATM   12  C   UNL     1      -0.365   8.960 -27.977  1.00  0.00     0.016 A 
HETATM   13  C   UNL     1      -0.023  10.002 -27.110  1.00  0.00     0.037 A 
HETATM   14  C   UNL     1       1.081   9.893 -26.263  1.00  0.00     0.068 A 
HETATM   15  C   UNL     1       1.859   8.738 -26.308  1.00  0.00     0.037 A 
HETATM   16  C   UNL     1       1.521   7.694 -27.181  1.00  0.00     0.016 A 
BRANCH  14  17
HETATM   17  O   UNL     1       1.292  10.977 -25.456  1.00  0.00    -0.356 OA
HETATM   18  C   UNL     1       2.298  10.845 -24.460  1.00  0.00     0.210 C 
ENDBRANCH  14  17
ENDBRANCH   9  11
ENDBRANCH   1   5
BRANCH   2  19
HETATM   19  N   UNL     1      -3.682   3.347 -31.857  1.00  0.00    -0.267 N 
HETATM   20  C   UNL     1      -3.687   1.968 -31.860  1.00  0.00     0.236 C 
HETATM   21  O   UNL     1      -2.932   1.310 -31.146  1.00  0.00    -0.272 OA
HETATM   22  H   UNL     1      -4.343   3.929 -32.369  1.00  0.00     0.190 HD
BRANCH  20  23
HETATM   23  C   UNL     1      -4.708   1.368 -32.798  1.00  0.00     0.109 C 
BRANCH  23  24
HETATM   24  C   UNL     1      -5.382   0.152 -32.166  1.00  0.00     0.049 C 
BRANCH  24  25
HETATM   25  C   UNL     1      -5.518  -0.998 -33.137  1.00  0.00    -0.036 A 
HETATM   26  C   UNL     1      -6.739  -1.357 -33.729  1.00  0.00     0.040 A 
HETATM   27 CL   UNL     1      -8.203  -0.506 -33.390  1.00  0.00    -0.084 Cl
HETATM   28  C   UNL     1      -6.807  -2.433 -34.621  1.00  0.00     0.024 A 
HETATM   29  C   UNL     1      -5.661  -3.163 -34.931  1.00  0.00     0.002 A 
HETATM   30  C   UNL     1      -4.444  -2.823 -34.346  1.00  0.00     0.001 A 
HETATM   31  C   UNL     1      -4.372  -1.750 -33.454  1.00  0.00     0.009 A 
ENDBRANCH  24  25
ENDBRANCH  23  24
ENDBRANCH  20  23
ENDBRANCH   2  19
TORSDOF 7
ENDMDL
MODEL 2
REMARK VINA RESULT:      -8.8      1.104      1.418
REMARK  7 active torsions:
REMARK  status: ('A' for Active; 'I' for Inactive)
REMARK    1  A    between atoms: O_2  and  C_3 
REMARK    2  A    between atoms: C_6  and  C_7 
REMARK    3  A    between atoms: C_11  and  C_12 
REMARK       I    between atoms: C_12  and  N_13 
REMARK    4  A    between atoms: N_13  and  N_14 
REMARK       I    between atoms: N_14  and  C_15 
REMARK    5  A    between atoms: C_15  and  C_16 
REMARK    6  A    between atoms: C_16  and  C_17 
REMARK    7  A    between atoms: C_17  and  C_18 
ROOT
HETATM    1  C   UNL     1      -1.859   4.712 -31.486  1.00  0.00     0.288 C 
HETATM    2  N   UNL     1      -2.973   4.067 -30.995  1.00  0.00    -0.262 N 
HETATM    3  O   UNL     1      -1.554   4.676 -32.676  1.00  0.00    -0.264 OA
HETATM    4  H   UNL     1      -3.262   4.102 -30.019  1.00  0.00     0.190 HD
ENDROOT
BRANCH   1   5
HETATM    5  C   UNL     1      -1.088   5.421 -30.503  1.00  0.00     0.121 A 
HETATM    6  N   UNL     1      -0.044   4.842 -29.838  1.00  0.00    -0.272 N 
HETATM    7  N   UNL     1       0.548   5.642 -28.938  1.00  0.00    -0.174 NA
HETATM    8  H   UNL     1       0.300   3.893 -29.950  1.00  0.00     0.189 HD
HETATM    9  C   UNL     1      -0.112   6.807 -29.033  1.00  0.00     0.089 A 
HETATM   10  C   UNL     1      -1.149   6.706 -30.002  1.00  0.00     0.071 A 
BRANCH   9  11
HETATM   11  C   UNL     1       0.231   7.968 -28.206  1.00  0.00    -0.005 A 
HETATM   12  C   UNL     1      -0.668   9.030 -28.045  1.00  0.00     0.016 A 
HETATM   13  C   UNL     1      -0.343  10.118 -27.229  1.00  0.00     0.037 A 
HETATM   14  C   UNL     1       0.877  10.165 -26.554  1.00  0.00     0.068 A 
HETATM   15  C   UNL     1       1.787   9.122 -26.723  1.00  0.00     0.037 A 
HETATM   16  C   UNL     1       1.465   8.034 -27.545  1.00  0.00     0.016 A 
BRANCH  14  17
HETATM   17  O   UNL     1       1.059  11.276 -25.778  1.00  0.00    -0.356 OA
HETATM   18  C   UNL     1       2.019  11.176 -24.734  1.00  0.00     0.210 C 
ENDBRANCH  14  17
ENDBRANCH   9  11
ENDBRANCH   1   5
BRANCH   2  19
HETATM   19  N   UNL     1      -3.826   3.383 -31.861  1.00  0.00    -0.267 N 
HETATM   20  C   UNL     1      -3.765   2.005 -31.856  1.00  0.00     0.236 C 
HETATM   21  O   UNL     1      -2.964   1.390 -31.154  1.00  0.00    -0.272 OA
HETATM   22  H   UNL     1      -4.525   3.929 -32.362  1.00  0.00     0.190 HD
BRANCH  20  23
HETATM   23  C   UNL     1      -4.777   1.350 -32.766  1.00  0.00     0.109 C 
BRANCH  23  24
HETATM   24  C   UNL     1      -5.366   0.099 -32.118  1.00  0.00     0.049 C 
BRANCH  24  25
HETATM   25  C   UNL     1      -5.364  -1.087 -33.055  1.00  0.00    -0.036 A 
HETATM   26  C   UNL     1      -4.324  -2.029 -33.091  1.00  0.00     0.040 A 
HETATM   27 CL   UNL     1      -2.946  -1.909 -32.056  1.00  0.00    -0.084 Cl
HETATM   28  C   UNL     1      -4.373  -3.108 -33.980  1.00  0.00     0.024 A 
HETATM   29  C   UNL     1      -5.455  -3.257 -34.845  1.00  0.00     0.002 A 
HETATM   30  C   UNL     1      -6.490  -2.326 -34.826  1.00  0.00     0.001 A 
HETATM   31  C   UNL     1      -6.445  -1.248 -33.940  1.00  0.00     0.009 A 
ENDBRANCH  24  25
ENDBRANCH  23  24
ENDBRANCH  20  23
ENDBRANCH   2  19
TORSDOF 7
ENDMDL
MODEL 3
REMARK VINA RESULT:      -8.8      1.468      1.796
REMARK  7 active torsions:
REMARK  status: ('A' for Active; 'I' for Inactive)
REMARK    1  A    between atoms: O_2  and  C_3 
REMARK    2  A    between atoms: C_6  and  C_7 
REMARK    3  A    between atoms: C_11  and  C_12 
REMARK       I    between atoms: C_12  and  N_13 
REMARK    4  A    between atoms: N_13  and  N_14 
REMARK       I    between atoms: N_14  and  C_15 
REMARK    5  A    between atoms: C_15  and  C_16 
REMARK    6  A    between atoms: C_16  and  C_17 
REMARK    7  A    between atoms: C_17  and  C_18 
ROOT
HETATM    1  C   UNL     1      -2.741   3.929 -32.308  1.00  0.00     0.288 C 
HETATM    2  N   UNL     1      -2.947   2.789 -31.563  1.00  0.00    -0.262 N 
HETATM    3  O   UNL     1      -3.245   4.085 -33.418  1.00  0.00    -0.264 OA
HETATM    4  H   UNL     1      -2.563   2.646 -30.631  1.00  0.00     0.190 HD
ENDROOT
BRANCH   1   5
HETATM    5  C   UNL     1      -1.894   4.911 -31.690  1.00  0.00     0.121 A 
HETATM    6  N   UNL     1      -0.640   5.191 -32.156  1.00  0.00    -0.272 N 
HETATM    7  N   UNL     1       0.018   6.117 -31.443  1.00  0.00    -0.174 NA
HETATM    8  H   UNL     1      -0.178   4.768 -32.954  1.00  0.00     0.189 HD
HETATM    9  C   UNL     1      -0.845   6.486 -30.483  1.00  0.00     0.089 A 
HETATM   10  C   UNL     1      -2.055   5.748 -30.603  1.00  0.00     0.071 A 
BRANCH   9  11
HETATM   11  C   UNL     1      -0.509   7.497 -29.477  1.00  0.00    -0.005 A 
HETATM   12  C   UNL     1      -1.453   8.445 -29.062  1.00  0.00     0.016 A 
HETATM   13  C   UNL     1      -1.131   9.386 -28.079  1.00  0.00     0.037 A 
HETATM   14  C   UNL     1       0.132   9.394 -27.485  1.00  0.00     0.068 A 
HETATM   15  C   UNL     1       1.084   8.467 -27.904  1.00  0.00     0.037 A 
HETATM   16  C   UNL     1       0.766   7.527 -28.894  1.00  0.00     0.016 A 
BRANCH  14  17
HETATM   17  O   UNL     1       0.307  10.354 -26.527  1.00  0.00    -0.356 OA
HETATM   18  C   UNL     1      -0.535  10.276 -25.385  1.00  0.00     0.210 C 
ENDBRANCH  14  17
ENDBRANCH   9  11
ENDBRANCH   1   5
BRANCH   2  19
HETATM   19  N   UNL     1      -3.789   1.783 -32.039  1.00  0.00    -0.267 N 
HETATM   20  C   UNL     1      -3.512   0.488 -31.653  1.00  0.00     0.236 C 
HETATM   21  O   UNL     1      -2.540   0.209 -30.954  1.00  0.00    -0.272 OA
HETATM   22  H   UNL     1      -4.625   2.069 -32.546  1.00  0.00     0.190 HD
BRANCH  20  23
HETATM   23  C   UNL     1      -4.519  -0.521 -32.151  1.00  0.00     0.109 C 
BRANCH  23  24
HETATM   24  C   UNL     1      -4.285  -0.844 -33.626  1.00  0.00     0.049 C 
BRANCH  24  25
HETATM   25  C   UNL     1      -4.915  -2.156 -34.032  1.00  0.00    -0.036 A 
HETATM   26  C   UNL     1      -6.238  -2.259 -34.488  1.00  0.00     0.040 A 
HETATM   27 CL   UNL     1      -7.268  -0.878 -34.624  1.00  0.00    -0.084 Cl
HETATM   28  C   UNL     1      -6.771  -3.501 -34.850  1.00  0.00     0.024 A 
HETATM   29  C   UNL     1      -5.993  -4.653 -34.757  1.00  0.00     0.002 A 
HETATM   30  C   UNL     1      -4.681  -4.568 -34.299  1.00  0.00     0.001 A 
HETATM   31  C   UNL     1      -4.146  -3.330 -33.936  1.00  0.00     0.009 A 
ENDBRANCH  24  25
ENDBRANCH  23  24
ENDBRANCH  20  23
ENDBRANCH   2  19
TORSDOF 7
ENDMDL
MODEL 4
REMARK VINA RESULT:      -8.8      3.120     11.511
REMARK  7 active torsions:
REMARK  status: ('A' for Active; 'I' for Inactive)
REMARK    1  A    between atoms: O_2  and  C_3 
REMARK    2  A    between atoms: C_6  and  C_7 
REMARK    3  A    between atoms: C_11  and  C_12 
REMARK       I    between atoms: C_12  and  N_13 
REMARK    4  A    between atoms: N_13  and  N_14 
REMARK       I    between atoms: N_14  and  C_15 
REMARK    5  A    between atoms: C_15  and  C_16 
REMARK    6  A    between atoms: C_16  and  C_17 
REMARK    7  A    between atoms: C_17  and  C_18 
ROOT
HETATM    1  C   UNL     1      -3.664   4.265 -31.345  1.00  0.00     0.288 C 
HETATM    2  N   UNL     1      -2.316   4.012 -31.215  1.00  0.00    -0.262 N 
HETATM    3  O   UNL     1      -4.172   5.314 -30.958  1.00  0.00    -0.264 OA
HETATM    4  H   UNL     1      -1.865   3.162 -31.550  1.00  0.00     0.190 HD
ENDROOT
BRANCH   1   5
HETATM    5  C   UNL     1      -4.421   3.210 -31.961  1.00  0.00     0.121 A 
HETATM    6  N   UNL     1      -5.744   3.347 -32.271  1.00  0.00    -0.272 N 
HETATM    7  N   UNL     1      -6.297   2.254 -32.819  1.00  0.00    -0.174 NA
HETATM    8  H   UNL     1      -6.326   4.165 -32.118  1.00  0.00     0.189 HD
HETATM    9  C   UNL     1      -5.292   1.369 -32.902  1.00  0.00     0.089 A 
HETATM   10  C   UNL     1      -4.099   1.931 -32.369  1.00  0.00     0.071 A 
BRANCH   9  11
HETATM   11  C   UNL     1      -5.479   0.024 -33.455  1.00  0.00    -0.005 A 
HETATM   12  C   UNL     1      -6.673  -0.336 -34.092  1.00  0.00     0.016 A 
HETATM   13  C   UNL     1      -6.828  -1.612 -34.643  1.00  0.00     0.037 A 
HETATM   14  C   UNL     1      -5.796  -2.548 -34.576  1.00  0.00     0.068 A 
HETATM   15  C   UNL     1      -4.610  -2.206 -33.929  1.00  0.00     0.037 A 
HETATM   16  C   UNL     1      -4.455  -0.930 -33.371  1.00  0.00     0.016 A 
BRANCH  14  17
HETATM   17  O   UNL     1      -6.074  -3.748 -35.169  1.00  0.00    -0.356 OA
HETATM   18  C   UNL     1      -5.377  -4.883 -34.672  1.00  0.00     0.210 C 
ENDBRANCH  14  17
ENDBRANCH   9  11
ENDBRANCH   1   5
BRANCH   2  19
HETATM   19  N   UNL     1      -1.470   4.980 -30.673  1.00  0.00    -0.267 N 
HETATM   20  C   UNL     1      -0.668   5.684 -31.547  1.00  0.00     0.236 C 
HETATM   21  O   UNL     1      -0.654   5.449 -32.754  1.00  0.00    -0.272 OA
HETATM   22  H   UNL     1      -1.574   5.194 -29.682  1.00  0.00     0.190 HD
BRANCH  20  23
HETATM   23  C   UNL     1       0.154   6.761 -30.880  1.00  0.00     0.109 C 
BRANCH  23  24
HETATM   24  C   UNL     1       0.297   6.492 -29.383  1.00  0.00     0.049 C 
BRANCH  24  25
HETATM   25  C   UNL     1       0.232   7.760 -28.564  1.00  0.00    -0.036 A 
HETATM   26  C   UNL     1      -0.940   8.521 -28.428  1.00  0.00     0.040 A 
HETATM   27 CL   UNL     1      -2.419   8.066 -29.194  1.00  0.00    -0.084 Cl
HETATM   28  C   UNL     1      -0.943   9.689 -27.658  1.00  0.00     0.024 A 
HETATM   29  C   UNL     1       0.221  10.113 -27.019  1.00  0.00     0.002 A 
HETATM   30  C   UNL     1       1.392   9.372 -27.151  1.00  0.00     0.001 A 
HETATM   31  C   UNL     1       1.400   8.206 -27.920  1.00  0.00     0.009 A 
ENDBRANCH  24  25
ENDBRANCH  23  24
ENDBRANCH  20  23
ENDBRANCH   2  19
TORSDOF 7
ENDMDL
MODEL 5
REMARK VINA RESULT:      -8.4      2.567      3.671
REMARK  7 active torsions:
REMARK  status: ('A' for Active; 'I' for Inactive)
REMARK    1  A    between atoms: O_2  and  C_3 
REMARK    2  A    between atoms: C_6  and  C_7 
REMARK    3  A    between atoms: C_11  and  C_12 
REMARK       I    between atoms: C_12  and  N_13 
REMARK    4  A    between atoms: N_13  and  N_14 
REMARK       I    between atoms: N_14  and  C_15 
REMARK    5  A    between atoms: C_15  and  C_16 
REMARK    6  A    between atoms: C_16  and  C_17 
REMARK    7  A    between atoms: C_17  and  C_18 
ROOT
HETATM    1  C   UNL     1      -5.210   3.694 -32.979  1.00  0.00     0.288 C 
HETATM    2  N   UNL     1      -5.597   2.502 -32.408  1.00  0.00    -0.262 N 
HETATM    3  O   UNL     1      -5.437   3.961 -34.156  1.00  0.00    -0.264 OA
HETATM    4  H   UNL     1      -5.444   2.267 -31.430  1.00  0.00     0.190 HD
ENDROOT
BRANCH   1   5
HETATM    5  C   UNL     1      -4.523   4.593 -32.093  1.00  0.00     0.121 A 
HETATM    6  N   UNL     1      -5.187   5.423 -31.235  1.00  0.00    -0.272 N 
HETATM    7  N   UNL     1      -4.387   6.211 -30.500  1.00  0.00    -0.174 NA
HETATM    8  H   UNL     1      -6.193   5.504 -31.120  1.00  0.00     0.189 HD
HETATM    9  C   UNL     1      -3.142   5.866 -30.864  1.00  0.00     0.089 A 
HETATM   10  C   UNL     1      -3.186   4.857 -31.866  1.00  0.00     0.071 A 
BRANCH   9  11
HETATM   11  C   UNL     1      -1.954   6.501 -30.284  1.00  0.00    -0.005 A 
HETATM   12  C   UNL     1      -2.045   7.276 -29.122  1.00  0.00     0.016 A 
HETATM   13  C   UNL     1      -0.900   7.851 -28.560  1.00  0.00     0.037 A 
HETATM   14  C   UNL     1       0.354   7.658 -29.141  1.00  0.00     0.068 A 
HETATM   15  C   UNL     1       0.452   6.903 -30.309  1.00  0.00     0.037 A 
HETATM   16  C   UNL     1      -0.695   6.331 -30.876  1.00  0.00     0.016 A 
BRANCH  14  17
HETATM   17  O   UNL     1       1.388   8.261 -28.481  1.00  0.00    -0.356 OA
HETATM   18  C   UNL     1       1.315   8.278 -27.061  1.00  0.00     0.210 C 
ENDBRANCH  14  17
ENDBRANCH   9  11
ENDBRANCH   1   5
BRANCH   2  19
HETATM   19  N   UNL     1      -6.312   1.566 -33.157  1.00  0.00    -0.267 N 
HETATM   20  C   UNL     1      -6.637   0.375 -32.543  1.00  0.00     0.236 C 
HETATM   21  O   UNL     1      -6.278   0.112 -31.397  1.00  0.00    -0.272 OA
HETATM   22  H   UNL     1      -6.655   1.858 -34.071  1.00  0.00     0.190 HD
BRANCH  20  23
HETATM   23  C   UNL     1      -7.476  -0.541 -33.402  1.00  0.00     0.109 C 
BRANCH  23  24
HETATM   24  C   UNL     1      -6.733  -0.924 -34.681  1.00  0.00     0.049 C 
BRANCH  24  25
HETATM   25  C   UNL     1      -6.071  -2.278 -34.574  1.00  0.00    -0.036 A 
HETATM   26  C   UNL     1      -4.752  -2.449 -34.126  1.00  0.00     0.040 A 
HETATM   27 CL   UNL     1      -3.766  -1.111 -33.653  1.00  0.00    -0.084 Cl
HETATM   28  C   UNL     1      -4.187  -3.727 -34.049  1.00  0.00     0.024 A 
HETATM   29  C   UNL     1      -4.929  -4.846 -34.421  1.00  0.00     0.002 A 
HETATM   30  C   UNL     1      -6.236  -4.691 -34.875  1.00  0.00     0.001 A 
HETATM   31  C   UNL     1      -6.802  -3.418 -34.954  1.00  0.00     0.009 A 
ENDBRANCH  24  25
ENDBRANCH  23  24
ENDBRANCH  20  23
ENDBRANCH   2  19
TORSDOF 7
ENDMDL
MODEL 6
REMARK VINA RESULT:      -8.2      3.521     11.394
REMARK  7 active torsions:
REMARK  status: ('A' for Active; 'I' for Inactive)
REMARK    1  A    between atoms: O_2  and  C_3 
REMARK    2  A    between atoms: C_6  and  C_7 
REMARK    3  A    between atoms: C_11  and  C_12 
REMARK       I    between atoms: C_12  and  N_13 
REMARK    4  A    between atoms: N_13  and  N_14 
REMARK       I    between atoms: N_14  and  C_15 
REMARK    5  A    between atoms: C_15  and  C_16 
REMARK    6  A    between atoms: C_16  and  C_17 
REMARK    7  A    between atoms: C_17  and  C_18 
ROOT
HETATM    1  C   UNL     1      -3.850   4.098 -31.347  1.00  0.00     0.288 C 
HETATM    2  N   UNL     1      -2.539   4.197 -30.938  1.00  0.00    -0.262 N 
HETATM    3  O   UNL     1      -4.572   5.083 -31.476  1.00  0.00    -0.264 OA
HETATM    4  H   UNL     1      -1.912   3.400 -30.848  1.00  0.00     0.190 HD
ENDROOT
BRANCH   1   5
HETATM    5  C   UNL     1      -4.303   2.758 -31.605  1.00  0.00     0.121 A 
HETATM    6  N   UNL     1      -4.799   1.953 -30.619  1.00  0.00    -0.272 N 
HETATM    7  N   UNL     1      -5.152   0.727 -31.036  1.00  0.00    -0.174 NA
HETATM    8  H   UNL     1      -4.907   2.186 -29.637  1.00  0.00     0.189 HD
HETATM    9  C   UNL     1      -4.907   0.731 -32.355  1.00  0.00     0.089 A 
HETATM   10  C   UNL     1      -4.369   1.988 -32.750  1.00  0.00     0.071 A 
BRANCH   9  11
HETATM   11  C   UNL     1      -5.162  -0.439 -33.201  1.00  0.00    -0.005 A 
HETATM   12  C   UNL     1      -4.212  -1.460 -33.327  1.00  0.00     0.016 A 
HETATM   13  C   UNL     1      -4.479  -2.586 -34.112  1.00  0.00     0.037 A 
HETATM   14  C   UNL     1      -5.697  -2.718 -34.779  1.00  0.00     0.068 A 
HETATM   15  C   UNL     1      -6.642  -1.699 -34.676  1.00  0.00     0.037 A 
HETATM   16  C   UNL     1      -6.374  -0.567 -33.894  1.00  0.00     0.016 A 
BRANCH  14  17
HETATM   17  O   UNL     1      -5.833  -3.874 -35.497  1.00  0.00    -0.356 OA
HETATM   18  C   UNL     1      -5.549  -5.087 -34.812  1.00  0.00     0.210 C 
ENDBRANCH  14  17
ENDBRANCH   9  11
ENDBRANCH   1   5
BRANCH   2  19
HETATM   19  N   UNL     1      -1.972   5.450 -30.701  1.00  0.00    -0.267 N 
HETATM   20  C   UNL     1      -0.626   5.599 -30.965  1.00  0.00     0.236 C 
HETATM   21  O   UNL     1       0.071   4.663 -31.351  1.00  0.00    -0.272 OA
HETATM   22  H   UNL     1      -2.602   6.214 -30.459  1.00  0.00     0.190 HD
BRANCH  20  23
HETATM   23  C   UNL     1      -0.120   7.006 -30.753  1.00  0.00     0.109 C 
BRANCH  23  24
HETATM   24  C   UNL     1       0.319   7.217 -29.305  1.00  0.00     0.049 C 
BRANCH  24  25
HETATM   25  C   UNL     1      -0.752   7.883 -28.473  1.00  0.00    -0.036 A 
HETATM   26  C   UNL     1      -1.131   7.419 -27.204  1.00  0.00     0.040 A 
HETATM   27 CL   UNL     1      -0.396   6.033 -26.480  1.00  0.00    -0.084 Cl
HETATM   28  C   UNL     1      -2.131   8.074 -26.477  1.00  0.00     0.024 A 
HETATM   29  C   UNL     1      -2.766   9.195 -27.008  1.00  0.00     0.002 A 
HETATM   30  C   UNL     1      -2.406   9.662 -28.270  1.00  0.00     0.001 A 
HETATM   31  C   UNL     1      -1.409   9.010 -28.998  1.00  0.00     0.009 A 
ENDBRANCH  24  25
ENDBRANCH  23  24
ENDBRANCH  20  23
ENDBRANCH   2  19
TORSDOF 7
ENDMDL
MODEL 7
REMARK VINA RESULT:      -7.8      6.333     12.685
REMARK  7 active torsions:
REMARK  status: ('A' for Active; 'I' for Inactive)
REMARK    1  A    between atoms: O_2  and  C_3 
REMARK    2  A    between atoms: C_6  and  C_7 
REMARK    3  A    between atoms: C_11  and  C_12 
REMARK       I    between atoms: C_12  and  N_13 
REMARK    4  A    between atoms: N_13  and  N_14 
REMARK       I    between atoms: N_14  and  C_15 
REMARK    5  A    between atoms: C_15  and  C_16 
REMARK    6  A    between atoms: C_16  and  C_17 
REMARK    7  A    between atoms: C_17  and  C_18 
ROOT
HETATM    1  C   UNL     1      -7.746   1.628 -34.355  1.00  0.00     0.288 C 
HETATM    2  N   UNL     1      -7.267   2.782 -33.774  1.00  0.00    -0.262 N 
HETATM    3  O   UNL     1      -7.077   0.969 -35.147  1.00  0.00    -0.264 OA
HETATM    4  H   UNL     1      -7.791   3.332 -33.096  1.00  0.00     0.190 HD
ENDROOT
BRANCH   1   5
HETATM    5  C   UNL     1      -9.080   1.263 -33.966  1.00  0.00     0.121 A 
HETATM    6  N   UNL     1      -9.350   0.119 -33.270  1.00  0.00    -0.272 N 
HETATM    7  N   UNL     1     -10.653  -0.075 -33.012  1.00  0.00    -0.174 NA
HETATM    8  H   UNL     1      -8.680  -0.577 -32.956  1.00  0.00     0.189 HD
HETATM    9  C   UNL     1     -11.266   0.999 -33.532  1.00  0.00     0.089 A 
HETATM   10  C   UNL     1     -10.312   1.860 -34.144  1.00  0.00     0.071 A 
BRANCH   9  11
HETATM   11  C   UNL     1     -12.719   1.180 -33.461  1.00  0.00    -0.005 A 
HETATM   12  C   UNL     1     -13.283   2.198 -32.682  1.00  0.00     0.016 A 
HETATM   13  C   UNL     1     -14.669   2.380 -32.646  1.00  0.00     0.037 A 
HETATM   14  C   UNL     1     -15.517   1.559 -33.391  1.00  0.00     0.068 A 
HETATM   15  C   UNL     1     -14.966   0.531 -34.155  1.00  0.00     0.037 A 
HETATM   16  C   UNL     1     -13.578   0.343 -34.187  1.00  0.00     0.016 A 
BRANCH  14  17
HETATM   17  O   UNL     1     -16.846   1.858 -33.278  1.00  0.00    -0.356 OA
HETATM   18  C   UNL     1     -17.208   2.784 -32.263  1.00  0.00     0.210 C 
ENDBRANCH  14  17
ENDBRANCH   9  11
ENDBRANCH   1   5
BRANCH   2  19
HETATM   19  N   UNL     1      -5.967   3.214 -34.040  1.00  0.00    -0.267 N 
HETATM   20  C   UNL     1      -5.758   4.573 -34.140  1.00  0.00     0.236 C 
HETATM   21  O   UNL     1      -6.677   5.384 -34.047  1.00  0.00    -0.272 OA
HETATM   22  H   UNL     1      -5.227   2.513 -34.030  1.00  0.00     0.190 HD
BRANCH  20  23
HETATM   23  C   UNL     1      -4.310   4.949 -34.352  1.00  0.00     0.109 C 
BRANCH  23  24
HETATM   24  C   UNL     1      -3.418   4.302 -33.294  1.00  0.00     0.049 C 
BRANCH  24  25
HETATM   25  C   UNL     1      -2.530   5.308 -32.599  1.00  0.00    -0.036 A 
HETATM   26  C   UNL     1      -1.418   5.900 -33.217  1.00  0.00     0.040 A 
HETATM   27 CL   UNL     1      -0.966   5.521 -34.842  1.00  0.00    -0.084 Cl
HETATM   28  C   UNL     1      -0.629   6.825 -32.526  1.00  0.00     0.024 A 
HETATM   29  C   UNL     1      -0.938   7.168 -31.211  1.00  0.00     0.002 A 
HETATM   30  C   UNL     1      -2.034   6.583 -30.582  1.00  0.00     0.001 A 
HETATM   31  C   UNL     1      -2.823   5.659 -31.269  1.00  0.00     0.009 A 
ENDBRANCH  24  25
ENDBRANCH  23  24
ENDBRANCH  20  23
ENDBRANCH   2  19
TORSDOF 7
ENDMDL
MODEL 8
REMARK VINA RESULT:      -7.7      3.913     11.308
REMARK  7 active torsions:
REMARK  status: ('A' for Active; 'I' for Inactive)
REMARK    1  A    between atoms: O_2  and  C_3 
REMARK    2  A    between atoms: C_6  and  C_7 
REMARK    3  A    between atoms: C_11  and  C_12 
REMARK       I    between atoms: C_12  and  N_13 
REMARK    4  A    between atoms: N_13  and  N_14 
REMARK       I    between atoms: N_14  and  C_15 
REMARK    5  A    between atoms: C_15  and  C_16 
REMARK    6  A    between atoms: C_16  and  C_17 
REMARK    7  A    between atoms: C_17  and  C_18 
ROOT
HETATM    1  C   UNL     1      -5.014   4.260 -31.654  1.00  0.00     0.288 C 
HETATM    2  N   UNL     1      -5.123   5.471 -32.301  1.00  0.00    -0.262 N 
HETATM    3  O   UNL     1      -4.618   4.170 -30.495  1.00  0.00    -0.264 OA
HETATM    4  H   UNL     1      -5.472   5.576 -33.251  1.00  0.00     0.190 HD
ENDROOT
BRANCH   1   5
HETATM    5  C   UNL     1      -5.395   3.119 -32.440  1.00  0.00     0.121 A 
HETATM    6  N   UNL     1      -6.259   3.214 -33.494  1.00  0.00    -0.272 N 
HETATM    7  N   UNL     1      -6.521   2.045 -34.099  1.00  0.00    -0.174 NA
HETATM    8  H   UNL     1      -6.713   4.055 -33.837  1.00  0.00     0.189 HD
HETATM    9  C   UNL     1      -5.777   1.145 -33.437  1.00  0.00     0.089 A 
HETATM   10  C   UNL     1      -5.059   1.780 -32.386  1.00  0.00     0.071 A 
BRANCH   9  11
HETATM   11  C   UNL     1      -5.774  -0.278 -33.791  1.00  0.00    -0.005 A 
HETATM   12  C   UNL     1      -6.914  -0.892 -34.325  1.00  0.00     0.016 A 
HETATM   13  C   UNL     1      -6.889  -2.242 -34.688  1.00  0.00     0.037 A 
HETATM   14  C   UNL     1      -5.729  -3.002 -34.533  1.00  0.00     0.068 A 
HETATM   15  C   UNL     1      -4.595  -2.404 -33.986  1.00  0.00     0.037 A 
HETATM   16  C   UNL     1      -4.619  -1.053 -33.617  1.00  0.00     0.016 A 
BRANCH  14  17
HETATM   17  O   UNL     1      -5.838  -4.302 -34.943  1.00  0.00    -0.356 OA
HETATM   18  C   UNL     1      -4.865  -5.211 -34.447  1.00  0.00     0.210 C 
ENDBRANCH  14  17
ENDBRANCH   9  11
ENDBRANCH   1   5
BRANCH   2  19
HETATM   19  N   UNL     1      -4.824   6.656 -31.625  1.00  0.00    -0.267 N 
HETATM   20  C   UNL     1      -3.632   7.279 -31.933  1.00  0.00     0.236 C 
HETATM   21  O   UNL     1      -2.833   6.800 -32.734  1.00  0.00    -0.272 OA
HETATM   22  H   UNL     1      -5.549   7.055 -31.032  1.00  0.00     0.190 HD
BRANCH  20  23
HETATM   23  C   UNL     1      -3.431   8.590 -31.211  1.00  0.00     0.109 C 
BRANCH  23  24
HETATM   24  C   UNL     1      -1.948   8.853 -30.957  1.00  0.00     0.049 C 
BRANCH  24  25
HETATM   25  C   UNL     1      -1.421   8.067 -29.779  1.00  0.00    -0.036 A 
HETATM   26  C   UNL     1      -0.341   7.176 -29.878  1.00  0.00     0.040 A 
HETATM   27 CL   UNL     1       0.484   6.902 -31.371  1.00  0.00    -0.084 Cl
HETATM   28  C   UNL     1       0.105   6.473 -28.754  1.00  0.00     0.024 A 
HETATM   29  C   UNL     1      -0.522   6.647 -27.521  1.00  0.00     0.002 A 
HETATM   30  C   UNL     1      -1.600   7.521 -27.410  1.00  0.00     0.001 A 
HETATM   31  C   UNL     1      -2.048   8.224 -28.530  1.00  0.00     0.009 A 
ENDBRANCH  24  25
ENDBRANCH  23  24
ENDBRANCH  20  23
ENDBRANCH   2  19
TORSDOF 7
ENDMDL
MODEL 9
REMARK VINA RESULT:      -7.7      3.647     11.451
REMARK  7 active torsions:
REMARK  status: ('A' for Active; 'I' for Inactive)
REMARK    1  A    between atoms: O_2  and  C_3 
REMARK    2  A    between atoms: C_6  and  C_7 
REMARK    3  A    between atoms: C_11  and  C_12 
REMARK       I    between atoms: C_12  and  N_13 
REMARK    4  A    between atoms: N_13  and  N_14 
REMARK       I    between atoms: N_14  and  C_15 
REMARK    5  A    between atoms: C_15  and  C_16 
REMARK    6  A    between atoms: C_16  and  C_17 
REMARK    7  A    between atoms: C_17  and  C_18 
ROOT
HETATM    1  C   UNL     1      -4.757   4.116 -30.964  1.00  0.00     0.288 C 
HETATM    2  N   UNL     1      -3.572   4.685 -30.551  1.00  0.00    -0.262 N 
HETATM    3  O   UNL     1      -5.840   4.676 -30.810  1.00  0.00    -0.264 OA
HETATM    4  H   UNL     1      -2.660   4.254 -30.689  1.00  0.00     0.190 HD
ENDROOT
BRANCH   1   5
HETATM    5  C   UNL     1      -4.625   2.825 -31.581  1.00  0.00     0.121 A 
HETATM    6  N   UNL     1      -3.428   2.172 -31.659  1.00  0.00    -0.272 N 
HETATM    7  N   UNL     1      -3.486   0.989 -32.289  1.00  0.00    -0.174 NA
HETATM    8  H   UNL     1      -2.532   2.496 -31.308  1.00  0.00     0.189 HD
HETATM    9  C   UNL     1      -4.779   0.839 -32.616  1.00  0.00     0.089 A 
HETATM   10  C   UNL     1      -5.526   1.974 -32.192  1.00  0.00     0.071 A 
BRANCH   9  11
HETATM   11  C   UNL     1      -5.274  -0.342 -33.328  1.00  0.00    -0.005 A 
HETATM   12  C   UNL     1      -4.459  -1.465 -33.518  1.00  0.00     0.016 A 
HETATM   13  C   UNL     1      -4.952  -2.598 -34.172  1.00  0.00     0.037 A 
HETATM   14  C   UNL     1      -6.266  -2.637 -34.641  1.00  0.00     0.068 A 
HETATM   15  C   UNL     1      -7.079  -1.518 -34.473  1.00  0.00     0.037 A 
HETATM   16  C   UNL     1      -6.585  -0.379 -33.823  1.00  0.00     0.016 A 
BRANCH  14  17
HETATM   17  O   UNL     1      -6.622  -3.811 -35.245  1.00  0.00    -0.356 OA
HETATM   18  C   UNL     1      -5.792  -4.937 -34.993  1.00  0.00     0.210 C 
ENDBRANCH  14  17
ENDBRANCH   9  11
ENDBRANCH   1   5
BRANCH   2  19
HETATM   19  N   UNL     1      -3.568   5.957 -29.978  1.00  0.00    -0.267 N 
HETATM   20  C   UNL     1      -3.080   6.996 -30.743  1.00  0.00     0.236 C 
HETATM   21  O   UNL     1      -2.621   6.818 -31.869  1.00  0.00    -0.272 OA
HETATM   22  H   UNL     1      -4.030   6.069 -29.077  1.00  0.00     0.190 HD
BRANCH  20  23
HETATM   23  C   UNL     1      -3.187   8.345 -30.071  1.00  0.00     0.109 C 
BRANCH  23  24
HETATM   24  C   UNL     1      -1.809   8.984 -29.906  1.00  0.00     0.049 C 
BRANCH  24  25
HETATM   25  C   UNL     1      -1.012   8.347 -28.791  1.00  0.00    -0.036 A 
HETATM   26  C   UNL     1      -1.298   8.555 -27.433  1.00  0.00     0.040 A 
HETATM   27 CL   UNL     1      -2.600   9.568 -26.918  1.00  0.00    -0.084 Cl
HETATM   28  C   UNL     1      -0.526   7.942 -26.441  1.00  0.00     0.024 A 
HETATM   29  C   UNL     1       0.542   7.117 -26.792  1.00  0.00     0.002 A 
HETATM   30  C   UNL     1       0.843   6.908 -28.135  1.00  0.00     0.001 A 
HETATM   31  C   UNL     1       0.074   7.519 -29.128  1.00  0.00     0.009 A 
ENDBRANCH  24  25
ENDBRANCH  23  24
ENDBRANCH  20  23
ENDBRANCH   2  19
TORSDOF 7
ENDMDL
MODEL 10
REMARK VINA RESULT:      -7.6      2.002      2.494
REMARK  7 active torsions:
REMARK  status: ('A' for Active; 'I' for Inactive)
REMARK    1  A    between atoms: O_2  and  C_3 
REMARK    2  A    between atoms: C_6  and  C_7 
REMARK    3  A    between atoms: C_11  and  C_12 
REMARK       I    between atoms: C_12  and  N_13 
REMARK    4  A    between atoms: N_13  and  N_14 
REMARK       I    between atoms: N_14  and  C_15 
REMARK    5  A    between atoms: C_15  and  C_16 
REMARK    6  A    between atoms: C_16  and  C_17 
REMARK    7  A    between atoms: C_17  and  C_18 
ROOT
HETATM    1  C   UNL     1      -2.574   4.904 -32.275  1.00  0.00     0.288 C 
HETATM    2  N   UNL     1      -3.919   4.912 -32.574  1.00  0.00    -0.262 N 
HETATM    3  O   UNL     1      -1.829   3.996 -32.634  1.00  0.00    -0.264 OA
HETATM    4  H   UNL     1      -4.553   5.664 -32.311  1.00  0.00     0.190 HD
ENDROOT
BRANCH   1   5
HETATM    5  C   UNL     1      -2.117   6.035 -31.514  1.00  0.00     0.121 A 
HETATM    6  N   UNL     1      -2.405   7.321 -31.874  1.00  0.00    -0.272 N 
HETATM    7  N   UNL     1      -1.877   8.250 -31.062  1.00  0.00    -0.174 NA
HETATM    8  H   UNL     1      -2.949   7.623 -32.676  1.00  0.00     0.189 HD
HETATM    9  C   UNL     1      -1.241   7.551 -30.111  1.00  0.00     0.089 A 
HETATM   10  C   UNL     1      -1.365   6.156 -30.363  1.00  0.00     0.071 A 
BRANCH   9  11
HETATM   11  C   UNL     1      -0.522   8.201 -29.011  1.00  0.00    -0.005 A 
HETATM   12  C   UNL     1       0.780   7.814 -28.671  1.00  0.00     0.016 A 
HETATM   13  C   UNL     1       1.468   8.462 -27.641  1.00  0.00     0.037 A 
HETATM   14  C   UNL     1       0.876   9.511 -26.937  1.00  0.00     0.068 A 
HETATM   15  C   UNL     1      -0.427   9.892 -27.256  1.00  0.00     0.037 A 
HETATM   16  C   UNL     1      -1.120   9.239 -28.284  1.00  0.00     0.016 A 
BRANCH  14  17
HETATM   17  O   UNL     1       1.664  10.067 -25.968  1.00  0.00    -0.356 OA
HETATM   18  C   UNL     1       1.736   9.375 -24.728  1.00  0.00     0.210 C 
ENDBRANCH  14  17
ENDBRANCH   9  11
ENDBRANCH   1   5
BRANCH   2  19
HETATM   19  N   UNL     1      -4.471   3.889 -33.347  1.00  0.00    -0.267 N 
HETATM   20  C   UNL     1      -5.788   3.554 -33.110  1.00  0.00     0.236 C 
HETATM   21  O   UNL     1      -6.450   4.093 -32.225  1.00  0.00    -0.272 OA
HETATM   22  H   UNL     1      -3.912   3.528 -34.118  1.00  0.00     0.190 HD
BRANCH  20  23
HETATM   23  C   UNL     1      -6.320   2.494 -34.044  1.00  0.00     0.109 C 
BRANCH  23  24
HETATM   24  C   UNL     1      -6.872   1.303 -33.263  1.00  0.00     0.049 C 
BRANCH  24  25
HETATM   25  C   UNL     1      -6.162   0.014 -33.606  1.00  0.00    -0.036 A 
HETATM   26  C   UNL     1      -4.911  -0.333 -33.074  1.00  0.00     0.040 A 
HETATM   27 CL   UNL     1      -4.069   0.697 -31.972  1.00  0.00    -0.084 Cl
HETATM   28  C   UNL     1      -4.298  -1.540 -33.428  1.00  0.00     0.024 A 
HETATM   29  C   UNL     1      -4.923  -2.411 -34.318  1.00  0.00     0.002 A 
HETATM   30  C   UNL     1      -6.162  -2.077 -34.860  1.00  0.00     0.001 A 
HETATM   31  C   UNL     1      -6.776  -0.873 -34.509  1.00  0.00     0.009 A 
ENDBRANCH  24  25
ENDBRANCH  23  24
ENDBRANCH  20  23
ENDBRANCH   2  19
TORSDOF 7
ENDMDL
