MODEL 1
REMARK VINA RESULT:      -8.1      0.000      0.000
REMARK  9 active torsions:
REMARK  status: ('A' for Active; 'I' for Inactive)
REMARK       I    between atoms: C_2  and  N_3 
REMARK    1  A    between atoms: N_3  and  C_4 
REMARK    2  A    between atoms: C_6  and  O_7 
REMARK    3  A    between atoms: O_7  and  C_8 
REMARK    4  A    between atoms: C_8  and  C_9 
REMARK    5  A    between atoms: C_9  and  C_10 
REMARK    6  A    between atoms: C_10  and  C_11 
REMARK    7  A    between atoms: C_11  and  N_12 
REMARK       I    between atoms: N_12  and  C_13 
REMARK    8  A    between atoms: C_13  and  C_14 
REMARK    9  A    between atoms: C_18  and  C_19 
ROOT
HETATM    1  C   UNL     1      -1.870   4.879 -31.992  1.00  0.00     0.217 C 
ENDROOT
BRANCH   1   2
HETATM    2  C   UNL     1      -2.642   3.592 -31.753  1.00  0.00    -0.085 C 
BRANCH   2   3
HETATM    3  C   UNL     1      -3.305   2.487 -31.548  1.00  0.00    -0.078 C 
BRANCH   3   4
HETATM    4  C   UNL     1      -4.075   1.199 -31.310  1.00  0.00     0.269 C 
BRANCH   4   5
HETATM    5  O   UNL     1      -5.466   1.412 -31.533  1.00  0.00    -0.339 OA
BRANCH   5   6
HETATM    6  C   UNL     1      -5.983   0.836 -32.667  1.00  0.00     0.072 A 
HETATM    7  C   UNL     1      -6.082  -0.539 -32.915  1.00  0.00     0.066 A 
HETATM    8  C   UNL     1      -6.642  -1.016 -34.105  1.00  0.00     0.037 A 
HETATM    9  C   UNL     1      -7.094  -0.094 -35.057  1.00  0.00     0.029 A 
HETATM   10  C   UNL     1      -6.993   1.277 -34.820  1.00  0.00     0.005 A 
HETATM   11  C   UNL     1      -6.441   1.738 -33.627  1.00  0.00     0.037 A 
BRANCH   8  12
HETATM   12  N   UNL     1      -6.785  -2.387 -34.412  1.00  0.00    -0.327 N 
HETATM   13  C   UNL     1      -5.798  -3.270 -34.812  1.00  0.00     0.218 C 
HETATM   14  C   UNL     1      -6.323  -4.666 -35.038  1.00  0.00     0.117 C 
HETATM   15  O   UNL     1      -4.605  -3.025 -34.956  1.00  0.00    -0.274 OA
HETATM   16  H   UNL     1      -7.719  -2.765 -34.309  1.00  0.00     0.169 HD
ENDBRANCH   8  12
ENDBRANCH   5   6
ENDBRANCH   4   5
ENDBRANCH   3   4
ENDBRANCH   2   3
ENDBRANCH   1   2
BRANCH   1  17
HETATM   17  N   UNL     1      -1.492   5.443 -30.723  1.00  0.00    -0.345 N 
HETATM   18  C   UNL     1      -0.187   5.424 -30.307  1.00  0.00     0.270 C 
HETATM   19  O   UNL     1       0.705   4.887 -30.955  1.00  0.00    -0.266 OA
HETATM   20  H   UNL     1      -2.178   5.984 -30.218  1.00  0.00     0.163 HD
BRANCH  18  21
HETATM   21  C   UNL     1       0.070   6.093 -29.061  1.00  0.00     0.120 A 
HETATM   22  N   UNL     1      -0.278   5.530 -27.862  1.00  0.00    -0.272 N 
HETATM   23  H   UNL     1      -0.731   4.632 -27.723  1.00  0.00     0.189 HD
HETATM   24  N   UNL     1       0.043   6.273 -26.791  1.00  0.00    -0.173 NA
HETATM   25  C   UNL     1       0.606   7.369 -27.313  1.00  0.00     0.096 A 
HETATM   26  C   UNL     1       0.642   7.306 -28.727  1.00  0.00     0.071 A 
BRANCH  25  27
HETATM   27  C   UNL     1       1.118   8.488 -26.455  1.00  0.00     0.035 A 
HETATM   28  S   UNL     1       0.456  10.065 -26.425  1.00  0.00    -0.100 SA
HETATM   29  C   UNL     1       1.595  10.591 -25.261  1.00  0.00     0.050 A 
HETATM   30  C   UNL     1       2.465   9.586 -24.901  1.00  0.00     0.008 A 
HETATM   31  C   UNL     1       2.188   8.369 -25.592  1.00  0.00     0.022 A 
ENDBRANCH  25  27
ENDBRANCH  18  21
ENDBRANCH   1  17
TORSDOF 9
ENDMDL
MODEL 2
REMARK VINA RESULT:      -8.0      2.137      2.885
REMARK  9 active torsions:
REMARK  status: ('A' for Active; 'I' for Inactive)
REMARK       I    between atoms: C_2  and  N_3 
REMARK    1  A    between atoms: N_3  and  C_4 
REMARK    2  A    between atoms: C_6  and  O_7 
REMARK    3  A    between atoms: O_7  and  C_8 
REMARK    4  A    between atoms: C_8  and  C_9 
REMARK    5  A    between atoms: C_9  and  C_10 
REMARK    6  A    between atoms: C_10  and  C_11 
REMARK    7  A    between atoms: C_11  and  N_12 
REMARK       I    between atoms: N_12  and  C_13 
REMARK    8  A    between atoms: C_13  and  C_14 
REMARK    9  A    between atoms: C_18  and  C_19 
ROOT
HETATM    1  C   UNL     1      -2.960   5.653 -34.779  1.00  0.00     0.217 C 
ENDROOT
BRANCH   1   2
HETATM    2  C   UNL     1      -4.287   4.970 -34.490  1.00  0.00    -0.085 C 
BRANCH   2   3
HETATM    3  C   UNL     1      -5.426   4.385 -34.241  1.00  0.00    -0.078 C 
BRANCH   3   4
HETATM    4  C   UNL     1      -6.752   3.702 -33.952  1.00  0.00     0.269 C 
BRANCH   4   5
HETATM    5  O   UNL     1      -6.889   2.535 -34.758  1.00  0.00    -0.339 OA
BRANCH   5   6
HETATM    6  C   UNL     1      -6.682   1.340 -34.116  1.00  0.00     0.072 A 
HETATM    7  C   UNL     1      -6.915   0.069 -34.656  1.00  0.00     0.066 A 
HETATM    8  C   UNL     1      -6.653  -1.087 -33.911  1.00  0.00     0.037 A 
HETATM    9  C   UNL     1      -6.162  -0.955 -32.607  1.00  0.00     0.029 A 
HETATM   10  C   UNL     1      -5.933   0.308 -32.060  1.00  0.00     0.005 A 
HETATM   11  C   UNL     1      -6.190   1.451 -32.816  1.00  0.00     0.037 A 
BRANCH   8  12
HETATM   12  N   UNL     1      -6.852  -2.397 -34.400  1.00  0.00    -0.327 N 
HETATM   13  C   UNL     1      -5.901  -3.258 -34.920  1.00  0.00     0.218 C 
HETATM   14  C   UNL     1      -6.483  -4.588 -35.330  1.00  0.00     0.117 C 
HETATM   15  O   UNL     1      -4.699  -3.044 -35.035  1.00  0.00    -0.274 OA
HETATM   16  H   UNL     1      -7.801  -2.747 -34.344  1.00  0.00     0.169 HD
ENDBRANCH   8  12
ENDBRANCH   5   6
ENDBRANCH   4   5
ENDBRANCH   3   4
ENDBRANCH   2   3
ENDBRANCH   1   2
BRANCH   1  17
HETATM   17  N   UNL     1      -2.160   5.651 -33.583  1.00  0.00    -0.345 N 
HETATM   18  C   UNL     1      -1.521   6.788 -33.164  1.00  0.00     0.270 C 
HETATM   19  O   UNL     1      -1.550   7.835 -33.801  1.00  0.00    -0.266 OA
HETATM   20  H   UNL     1      -2.203   4.842 -32.982  1.00  0.00     0.163 HD
BRANCH  18  21
HETATM   21  C   UNL     1      -0.824   6.674 -31.911  1.00  0.00     0.120 A 
HETATM   22  N   UNL     1       0.002   5.614 -31.647  1.00  0.00    -0.272 N 
HETATM   23  H   UNL     1       0.203   4.833 -32.265  1.00  0.00     0.189 HD
HETATM   24  N   UNL     1       0.590   5.661 -30.441  1.00  0.00    -0.173 NA
HETATM   25  C   UNL     1       0.116   6.787 -29.893  1.00  0.00     0.096 A 
HETATM   26  C   UNL     1      -0.774   7.452 -30.771  1.00  0.00     0.071 A 
BRANCH  25  27
HETATM   27  C   UNL     1       0.518   7.235 -28.519  1.00  0.00     0.035 A 
HETATM   28  S   UNL     1      -0.034   6.518 -27.068  1.00  0.00    -0.100 SA
HETATM   29  C   UNL     1       0.876   7.605 -26.109  1.00  0.00     0.050 A 
HETATM   30  C   UNL     1       1.587   8.499 -26.878  1.00  0.00     0.008 A 
HETATM   31  C   UNL     1       1.381   8.284 -28.272  1.00  0.00     0.022 A 
ENDBRANCH  25  27
ENDBRANCH  18  21
ENDBRANCH   1  17
TORSDOF 9
ENDMDL
MODEL 3
REMARK VINA RESULT:      -7.9      2.117      3.031
REMARK  9 active torsions:
REMARK  status: ('A' for Active; 'I' for Inactive)
REMARK       I    between atoms: C_2  and  N_3 
REMARK    1  A    between atoms: N_3  and  C_4 
REMARK    2  A    between atoms: C_6  and  O_7 
REMARK    3  A    between atoms: O_7  and  C_8 
REMARK    4  A    between atoms: C_8  and  C_9 
REMARK    5  A    between atoms: C_9  and  C_10 
REMARK    6  A    between atoms: C_10  and  C_11 
REMARK    7  A    between atoms: C_11  and  N_12 
REMARK       I    between atoms: N_12  and  C_13 
REMARK    8  A    between atoms: C_13  and  C_14 
REMARK    9  A    between atoms: C_18  and  C_19 
ROOT
HETATM    1  C   UNL     1      -3.378   3.685 -32.425  1.00  0.00     0.217 C 
ENDROOT
BRANCH   1   2
HETATM    2  C   UNL     1      -3.431   2.182 -32.203  1.00  0.00    -0.085 C 
BRANCH   2   3
HETATM    3  C   UNL     1      -3.475   0.892 -32.013  1.00  0.00    -0.078 C 
BRANCH   3   4
HETATM    4  C   UNL     1      -3.527  -0.611 -31.791  1.00  0.00     0.269 C 
BRANCH   4   5
HETATM    5  O   UNL     1      -4.861  -1.017 -31.502  1.00  0.00    -0.339 OA
BRANCH   5   6
HETATM    6  C   UNL     1      -5.760  -0.888 -32.532  1.00  0.00     0.072 A 
HETATM    7  C   UNL     1      -6.901  -0.077 -32.526  1.00  0.00     0.066 A 
HETATM    8  C   UNL     1      -7.741  -0.013 -33.643  1.00  0.00     0.037 A 
HETATM    9  C   UNL     1      -7.431  -0.784 -34.769  1.00  0.00     0.029 A 
HETATM   10  C   UNL     1      -6.299  -1.599 -34.780  1.00  0.00     0.005 A 
HETATM   11  C   UNL     1      -5.466  -1.647 -33.664  1.00  0.00     0.037 A 
BRANCH   8  12
HETATM   12  N   UNL     1      -8.899   0.795 -33.709  1.00  0.00    -0.327 N 
HETATM   13  C   UNL     1     -10.177   0.474 -33.287  1.00  0.00     0.218 C 
HETATM   14  C   UNL     1     -11.160   1.597 -33.506  1.00  0.00     0.117 C 
HETATM   15  O   UNL     1     -10.537  -0.571 -32.756  1.00  0.00    -0.274 OA
HETATM   16  H   UNL     1      -8.767   1.721 -34.097  1.00  0.00     0.169 HD
ENDBRANCH   8  12
ENDBRANCH   5   6
ENDBRANCH   4   5
ENDBRANCH   3   4
ENDBRANCH   2   3
ENDBRANCH   1   2
BRANCH   1  17
HETATM   17  N   UNL     1      -2.605   4.288 -31.372  1.00  0.00    -0.345 N 
HETATM   18  C   UNL     1      -1.464   4.993 -31.655  1.00  0.00     0.270 C 
HETATM   19  O   UNL     1      -1.017   5.099 -32.792  1.00  0.00    -0.266 OA
HETATM   20  H   UNL     1      -2.998   4.311 -30.444  1.00  0.00     0.163 HD
BRANCH  18  21
HETATM   21  C   UNL     1      -0.831   5.615 -30.523  1.00  0.00     0.120 A 
HETATM   22  N   UNL     1      -0.047   4.898 -29.659  1.00  0.00    -0.272 N 
HETATM   23  H   UNL     1       0.163   3.905 -29.712  1.00  0.00     0.189 HD
HETATM   24  N   UNL     1       0.484   5.626 -28.664  1.00  0.00    -0.173 NA
HETATM   25  C   UNL     1       0.014   6.861 -28.879  1.00  0.00     0.096 A 
HETATM   26  C   UNL     1      -0.815   6.904 -30.026  1.00  0.00     0.071 A 
BRANCH  25  27
HETATM   27  C   UNL     1       0.361   8.013 -27.983  1.00  0.00     0.035 A 
HETATM   28  S   UNL     1      -0.673   9.338 -27.665  1.00  0.00    -0.100 SA
HETATM   29  C   UNL     1       0.478  10.073 -26.636  1.00  0.00     0.050 A 
HETATM   30  C   UNL     1       1.631   9.326 -26.535  1.00  0.00     0.008 A 
HETATM   31  C   UNL     1       1.562   8.134 -27.314  1.00  0.00     0.022 A 
ENDBRANCH  25  27
ENDBRANCH  18  21
ENDBRANCH   1  17
TORSDOF 9
ENDMDL
MODEL 4
REMARK VINA RESULT:      -7.7      4.174     11.289
REMARK  9 active torsions:
REMARK  status: ('A' for Active; 'I' for Inactive)
REMARK       I    between atoms: C_2  and  N_3 
REMARK    1  A    between atoms: N_3  and  C_4 
REMARK    2  A    between atoms: C_6  and  O_7 
REMARK    3  A    between atoms: O_7  and  C_8 
REMARK    4  A    between atoms: C_8  and  C_9 
REMARK    5  A    between atoms: C_9  and  C_10 
REMARK    6  A    between atoms: C_10  and  C_11 
REMARK    7  A    between atoms: C_11  and  N_12 
REMARK       I    between atoms: N_12  and  C_13 
REMARK    8  A    between atoms: C_13  and  C_14 
REMARK    9  A    between atoms: C_18  and  C_19 
ROOT
HETATM    1  C   UNL     1      -5.403   4.743 -32.845  1.00  0.00     0.217 C 
ENDROOT
BRANCH   1   2
HETATM    2  C   UNL     1      -4.176   5.571 -33.189  1.00  0.00    -0.085 C 
BRANCH   2   3
HETATM    3  C   UNL     1      -3.122   6.281 -33.484  1.00  0.00    -0.078 C 
BRANCH   3   4
HETATM    4  C   UNL     1      -1.895   7.110 -33.829  1.00  0.00     0.269 C 
BRANCH   4   5
HETATM    5  O   UNL     1      -1.578   7.986 -32.751  1.00  0.00    -0.339 OA
BRANCH   5   6
HETATM    6  C   UNL     1      -1.100   7.382 -31.614  1.00  0.00     0.072 A 
HETATM    7  C   UNL     1      -1.714   7.404 -30.355  1.00  0.00     0.066 A 
HETATM    8  C   UNL     1      -1.142   6.739 -29.266  1.00  0.00     0.037 A 
HETATM    9  C   UNL     1       0.066   6.055 -29.448  1.00  0.00     0.029 A 
HETATM   10  C   UNL     1       0.686   6.034 -30.698  1.00  0.00     0.005 A 
HETATM   11  C   UNL     1       0.102   6.694 -31.777  1.00  0.00     0.037 A 
BRANCH   8  12
HETATM   12  N   UNL     1      -1.715   6.709 -27.975  1.00  0.00    -0.327 N 
HETATM   13  C   UNL     1      -1.412   7.523 -26.898  1.00  0.00     0.218 C 
HETATM   14  C   UNL     1      -2.242   7.207 -25.678  1.00  0.00     0.117 C 
HETATM   15  O   UNL     1      -0.596   8.439 -26.873  1.00  0.00    -0.274 OA
HETATM   16  H   UNL     1      -2.444   6.020 -27.833  1.00  0.00     0.169 HD
ENDBRANCH   8  12
ENDBRANCH   5   6
ENDBRANCH   4   5
ENDBRANCH   3   4
ENDBRANCH   2   3
ENDBRANCH   1   2
BRANCH   1  17
HETATM   17  N   UNL     1      -5.152   3.368 -33.186  1.00  0.00    -0.345 N 
HETATM   18  C   UNL     1      -4.793   2.459 -32.225  1.00  0.00     0.270 C 
HETATM   19  O   UNL     1      -4.615   2.773 -31.053  1.00  0.00    -0.266 OA
HETATM   20  H   UNL     1      -5.392   3.055 -34.115  1.00  0.00     0.163 HD
BRANCH  18  21
HETATM   21  C   UNL     1      -4.653   1.103 -32.683  1.00  0.00     0.120 A 
HETATM   22  N   UNL     1      -3.451   0.451 -32.629  1.00  0.00    -0.272 N 
HETATM   23  H   UNL     1      -2.572   0.826 -32.283  1.00  0.00     0.189 HD
HETATM   24  N   UNL     1      -3.489  -0.813 -33.080  1.00  0.00    -0.173 NA
HETATM   25  C   UNL     1      -4.762  -0.984 -33.457  1.00  0.00     0.096 A 
HETATM   26  C   UNL     1      -5.528   0.186 -33.233  1.00  0.00     0.071 A 
BRANCH  25  27
HETATM   27  C   UNL     1      -5.255  -2.278 -34.035  1.00  0.00     0.035 A 
HETATM   28  S   UNL     1      -4.296  -3.681 -34.224  1.00  0.00    -0.100 SA
HETATM   29  C   UNL     1      -5.598  -4.559 -34.904  1.00  0.00     0.050 A 
HETATM   30  C   UNL     1      -6.744  -3.799 -34.987  1.00  0.00     0.008 A 
HETATM   31  C   UNL     1      -6.545  -2.479 -34.483  1.00  0.00     0.022 A 
ENDBRANCH  25  27
ENDBRANCH  18  21
ENDBRANCH   1  17
TORSDOF 9
ENDMDL
MODEL 5
REMARK VINA RESULT:      -7.7      4.441     10.451
REMARK  9 active torsions:
REMARK  status: ('A' for Active; 'I' for Inactive)
REMARK       I    between atoms: C_2  and  N_3 
REMARK    1  A    between atoms: N_3  and  C_4 
REMARK    2  A    between atoms: C_6  and  O_7 
REMARK    3  A    between atoms: O_7  and  C_8 
REMARK    4  A    between atoms: C_8  and  C_9 
REMARK    5  A    between atoms: C_9  and  C_10 
REMARK    6  A    between atoms: C_10  and  C_11 
REMARK    7  A    between atoms: C_11  and  N_12 
REMARK       I    between atoms: N_12  and  C_13 
REMARK    8  A    between atoms: C_13  and  C_14 
REMARK    9  A    between atoms: C_18  and  C_19 
ROOT
HETATM    1  C   UNL     1      -6.692   5.521 -28.613  1.00  0.00     0.217 C 
ENDROOT
BRANCH   1   2
HETATM    2  C   UNL     1      -5.400   6.200 -28.190  1.00  0.00    -0.085 C 
BRANCH   2   3
HETATM    3  C   UNL     1      -4.292   6.784 -27.827  1.00  0.00    -0.078 C 
BRANCH   3   4
HETATM    4  C   UNL     1      -3.001   7.464 -27.402  1.00  0.00     0.269 C 
BRANCH   4   5
HETATM    5  O   UNL     1      -2.524   8.307 -28.448  1.00  0.00    -0.339 OA
BRANCH   5   6
HETATM    6  C   UNL     1      -1.599   7.743 -29.291  1.00  0.00     0.072 A 
HETATM    7  C   UNL     1      -1.882   7.075 -30.489  1.00  0.00     0.066 A 
HETATM    8  C   UNL     1      -0.853   6.552 -31.279  1.00  0.00     0.037 A 
HETATM    9  C   UNL     1       0.471   6.695 -30.849  1.00  0.00     0.029 A 
HETATM   10  C   UNL     1       0.761   7.354 -29.654  1.00  0.00     0.005 A 
HETATM   11  C   UNL     1      -0.273   7.878 -28.880  1.00  0.00     0.037 A 
BRANCH   8  12
HETATM   12  N   UNL     1      -1.067   5.880 -32.504  1.00  0.00    -0.327 N 
HETATM   13  C   UNL     1      -1.331   6.443 -33.740  1.00  0.00     0.218 C 
HETATM   14  C   UNL     1      -1.490   5.409 -34.827  1.00  0.00     0.117 C 
HETATM   15  O   UNL     1      -1.408   7.638 -34.004  1.00  0.00    -0.274 OA
HETATM   16  H   UNL     1      -1.003   4.870 -32.468  1.00  0.00     0.169 HD
ENDBRANCH   8  12
ENDBRANCH   5   6
ENDBRANCH   4   5
ENDBRANCH   3   4
ENDBRANCH   2   3
ENDBRANCH   1   2
BRANCH   1  17
HETATM   17  N   UNL     1      -6.388   4.213 -29.129  1.00  0.00    -0.345 N 
HETATM   18  C   UNL     1      -7.349   3.463 -29.755  1.00  0.00     0.270 C 
HETATM   19  O   UNL     1      -8.514   3.834 -29.858  1.00  0.00    -0.266 OA
HETATM   20  H   UNL     1      -5.422   3.924 -29.157  1.00  0.00     0.163 HD
BRANCH  18  21
HETATM   21  C   UNL     1      -6.895   2.211 -30.298  1.00  0.00     0.120 A 
HETATM   22  N   UNL     1      -6.454   1.199 -29.488  1.00  0.00    -0.272 N 
HETATM   23  H   UNL     1      -6.398   1.214 -28.474  1.00  0.00     0.189 HD
HETATM   24  N   UNL     1      -6.079   0.091 -30.146  1.00  0.00    -0.173 NA
HETATM   25  C   UNL     1      -6.268   0.400 -31.435  1.00  0.00     0.096 A 
HETATM   26  C   UNL     1      -6.772   1.715 -31.581  1.00  0.00     0.071 A 
BRANCH  25  27
HETATM   27  C   UNL     1      -5.967  -0.570 -32.540  1.00  0.00     0.035 A 
HETATM   28  S   UNL     1      -4.430  -1.267 -32.824  1.00  0.00    -0.100 SA
HETATM   29  C   UNL     1      -5.008  -2.152 -34.168  1.00  0.00     0.050 A 
HETATM   30  C   UNL     1      -6.347  -1.922 -34.400  1.00  0.00     0.008 A 
HETATM   31  C   UNL     1      -6.900  -1.007 -33.456  1.00  0.00     0.022 A 
ENDBRANCH  25  27
ENDBRANCH  18  21
ENDBRANCH   1  17
TORSDOF 9
ENDMDL
MODEL 6
REMARK VINA RESULT:      -7.2      4.035     11.630
REMARK  9 active torsions:
REMARK  status: ('A' for Active; 'I' for Inactive)
REMARK       I    between atoms: C_2  and  N_3 
REMARK    1  A    between atoms: N_3  and  C_4 
REMARK    2  A    between atoms: C_6  and  O_7 
REMARK    3  A    between atoms: O_7  and  C_8 
REMARK    4  A    between atoms: C_8  and  C_9 
REMARK    5  A    between atoms: C_9  and  C_10 
REMARK    6  A    between atoms: C_10  and  C_11 
REMARK    7  A    between atoms: C_11  and  N_12 
REMARK       I    between atoms: N_12  and  C_13 
REMARK    8  A    between atoms: C_13  and  C_14 
REMARK    9  A    between atoms: C_18  and  C_19 
ROOT
HETATM    1  C   UNL     1      -7.619   3.612 -30.802  1.00  0.00     0.217 C 
ENDROOT
BRANCH   1   2
HETATM    2  C   UNL     1      -6.486   4.571 -30.476  1.00  0.00    -0.085 C 
BRANCH   2   3
HETATM    3  C   UNL     1      -5.514   5.394 -30.197  1.00  0.00    -0.078 C 
BRANCH   3   4
HETATM    4  C   UNL     1      -4.380   6.353 -29.871  1.00  0.00     0.269 C 
BRANCH   4   5
HETATM    5  O   UNL     1      -3.552   6.540 -31.015  1.00  0.00    -0.339 OA
BRANCH   5   6
HETATM    6  C   UNL     1      -2.204   6.386 -30.806  1.00  0.00     0.072 A 
HETATM    7  C   UNL     1      -1.467   6.957 -29.761  1.00  0.00     0.066 A 
HETATM    8  C   UNL     1      -0.094   6.719 -29.638  1.00  0.00     0.037 A 
HETATM    9  C   UNL     1       0.540   5.907 -30.585  1.00  0.00     0.029 A 
HETATM   10  C   UNL     1      -0.187   5.339 -31.632  1.00  0.00     0.005 A 
HETATM   11  C   UNL     1      -1.556   5.578 -31.739  1.00  0.00     0.037 A 
BRANCH   8  12
HETATM   12  N   UNL     1       0.705   7.251 -28.602  1.00  0.00    -0.327 N 
HETATM   13  C   UNL     1       0.637   6.962 -27.250  1.00  0.00     0.218 C 
HETATM   14  C   UNL     1       1.664   7.716 -26.442  1.00  0.00     0.117 C 
HETATM   15  O   UNL     1      -0.123   6.170 -26.704  1.00  0.00    -0.274 OA
HETATM   16  H   UNL     1       1.420   7.908 -28.891  1.00  0.00     0.169 HD
ENDBRANCH   8  12
ENDBRANCH   5   6
ENDBRANCH   4   5
ENDBRANCH   3   4
ENDBRANCH   2   3
ENDBRANCH   1   2
BRANCH   1  17
HETATM   17  N   UNL     1      -7.066   2.392 -31.326  1.00  0.00    -0.345 N 
HETATM   18  C   UNL     1      -7.240   2.050 -32.642  1.00  0.00     0.270 C 
HETATM   19  O   UNL     1      -7.911   2.724 -33.416  1.00  0.00    -0.266 OA
HETATM   20  H   UNL     1      -6.422   1.872 -30.748  1.00  0.00     0.163 HD
BRANCH  18  21
HETATM   21  C   UNL     1      -6.567   0.849 -33.059  1.00  0.00     0.120 A 
HETATM   22  N   UNL     1      -5.200   0.769 -33.085  1.00  0.00    -0.272 N 
HETATM   23  H   UNL     1      -4.544   1.502 -32.832  1.00  0.00     0.189 HD
HETATM   24  N   UNL     1      -4.726  -0.422 -33.482  1.00  0.00    -0.173 NA
HETATM   25  C   UNL     1      -5.827  -1.140 -33.739  1.00  0.00     0.096 A 
HETATM   26  C   UNL     1      -7.001  -0.388 -33.494  1.00  0.00     0.071 A 
BRANCH  25  27
HETATM   27  C   UNL     1      -5.759  -2.559 -34.222  1.00  0.00     0.035 A 
HETATM   28  S   UNL     1      -4.345  -3.522 -34.200  1.00  0.00    -0.100 SA
HETATM   29  C   UNL     1      -5.166  -4.858 -34.885  1.00  0.00     0.050 A 
HETATM   30  C   UNL     1      -6.493  -4.577 -35.128  1.00  0.00     0.008 A 
HETATM   31  C   UNL     1      -6.835  -3.247 -34.743  1.00  0.00     0.022 A 
ENDBRANCH  25  27
ENDBRANCH  18  21
ENDBRANCH   1  17
TORSDOF 9
ENDMDL
MODEL 7
REMARK VINA RESULT:      -7.1      1.530      2.150
REMARK  9 active torsions:
REMARK  status: ('A' for Active; 'I' for Inactive)
REMARK       I    between atoms: C_2  and  N_3 
REMARK    1  A    between atoms: N_3  and  C_4 
REMARK    2  A    between atoms: C_6  and  O_7 
REMARK    3  A    between atoms: O_7  and  C_8 
REMARK    4  A    between atoms: C_8  and  C_9 
REMARK    5  A    between atoms: C_9  and  C_10 
REMARK    6  A    between atoms: C_10  and  C_11 
REMARK    7  A    between atoms: C_11  and  N_12 
REMARK       I    between atoms: N_12  and  C_13 
REMARK    8  A    between atoms: C_13  and  C_14 
REMARK    9  A    between atoms: C_18  and  C_19 
ROOT
HETATM    1  C   UNL     1      -0.761   5.201 -32.255  1.00  0.00     0.217 C 
ENDROOT
BRANCH   1   2
HETATM    2  C   UNL     1      -2.159   4.732 -32.620  1.00  0.00    -0.085 C 
BRANCH   2   3
HETATM    3  C   UNL     1      -3.359   4.329 -32.934  1.00  0.00    -0.078 C 
BRANCH   3   4
HETATM    4  C   UNL     1      -4.758   3.860 -33.301  1.00  0.00     0.269 C 
BRANCH   4   5
HETATM    5  O   UNL     1      -5.528   3.647 -32.121  1.00  0.00    -0.339 OA
BRANCH   5   6
HETATM    6  C   UNL     1      -5.798   2.337 -31.814  1.00  0.00     0.072 A 
HETATM    7  C   UNL     1      -6.044   1.313 -32.737  1.00  0.00     0.066 A 
HETATM    8  C   UNL     1      -6.294   0.005 -32.308  1.00  0.00     0.037 A 
HETATM    9  C   UNL     1      -6.307  -0.267 -30.935  1.00  0.00     0.029 A 
HETATM   10  C   UNL     1      -6.068   0.749 -30.009  1.00  0.00     0.005 A 
HETATM   11  C   UNL     1      -5.812   2.046 -30.450  1.00  0.00     0.037 A 
BRANCH   8  12
HETATM   12  N   UNL     1      -6.535  -1.076 -33.185  1.00  0.00    -0.327 N 
HETATM   13  C   UNL     1      -5.605  -1.792 -33.919  1.00  0.00     0.218 C 
HETATM   14  C   UNL     1      -6.234  -2.891 -34.739  1.00  0.00     0.117 C 
HETATM   15  O   UNL     1      -4.390  -1.629 -33.926  1.00  0.00    -0.274 OA
HETATM   16  H   UNL     1      -7.502  -1.366 -33.270  1.00  0.00     0.169 HD
ENDBRANCH   8  12
ENDBRANCH   5   6
ENDBRANCH   4   5
ENDBRANCH   3   4
ENDBRANCH   2   3
ENDBRANCH   1   2
BRANCH   1  17
HETATM   17  N   UNL     1      -0.812   5.899 -30.998  1.00  0.00    -0.345 N 
HETATM   18  C   UNL     1      -0.051   5.488 -29.935  1.00  0.00     0.270 C 
HETATM   19  O   UNL     1       0.660   4.490 -29.978  1.00  0.00    -0.266 OA
HETATM   20  H   UNL     1      -1.301   6.781 -30.961  1.00  0.00     0.163 HD
BRANCH  18  21
HETATM   21  C   UNL     1      -0.132   6.319 -28.764  1.00  0.00     0.120 A 
HETATM   22  N   UNL     1      -1.323   6.538 -28.124  1.00  0.00    -0.272 N 
HETATM   23  H   UNL     1      -2.230   6.165 -28.386  1.00  0.00     0.189 HD
HETATM   24  N   UNL     1      -1.228   7.324 -27.040  1.00  0.00    -0.173 NA
HETATM   25  C   UNL     1       0.071   7.641 -26.981  1.00  0.00     0.096 A 
HETATM   26  C   UNL     1       0.796   7.042 -28.039  1.00  0.00     0.071 A 
BRANCH  25  27
HETATM   27  C   UNL     1       0.628   8.525 -25.904  1.00  0.00     0.035 A 
HETATM   28  S   UNL     1       2.285   8.619 -25.490  1.00  0.00    -0.100 SA
HETATM   29  C   UNL     1       1.980   9.776 -24.267  1.00  0.00     0.050 A 
HETATM   30  C   UNL     1       0.641  10.084 -24.172  1.00  0.00     0.008 A 
HETATM   31  C   UNL     1      -0.140   9.361 -25.120  1.00  0.00     0.022 A 
ENDBRANCH  25  27
ENDBRANCH  18  21
ENDBRANCH   1  17
TORSDOF 9
ENDMDL
MODEL 8
REMARK VINA RESULT:      -7.1      4.948      7.559
REMARK  9 active torsions:
REMARK  status: ('A' for Active; 'I' for Inactive)
REMARK       I    between atoms: C_2  and  N_3 
REMARK    1  A    between atoms: N_3  and  C_4 
REMARK    2  A    between atoms: C_6  and  O_7 
REMARK    3  A    between atoms: O_7  and  C_8 
REMARK    4  A    between atoms: C_8  and  C_9 
REMARK    5  A    between atoms: C_9  and  C_10 
REMARK    6  A    between atoms: C_10  and  C_11 
REMARK    7  A    between atoms: C_11  and  N_12 
REMARK       I    between atoms: N_12  and  C_13 
REMARK    8  A    between atoms: C_13  and  C_14 
REMARK    9  A    between atoms: C_18  and  C_19 
ROOT
HETATM    1  C   UNL     1      -8.092   0.366 -34.908  1.00  0.00     0.217 C 
ENDROOT
BRANCH   1   2
HETATM    2  C   UNL     1      -7.469  -1.020 -34.875  1.00  0.00    -0.085 C 
BRANCH   2   3
HETATM    3  C   UNL     1      -6.934  -2.209 -34.847  1.00  0.00    -0.078 C 
BRANCH   3   4
HETATM    4  C   UNL     1      -6.311  -3.595 -34.815  1.00  0.00     0.269 C 
BRANCH   4   5
HETATM    5  O   UNL     1      -4.898  -3.500 -34.971  1.00  0.00    -0.339 OA
BRANCH   5   6
HETATM    6  C   UNL     1      -4.216  -2.967 -33.905  1.00  0.00     0.072 A 
HETATM    7  C   UNL     1      -4.069  -1.603 -33.627  1.00  0.00     0.066 A 
HETATM    8  C   UNL     1      -3.361  -1.172 -32.499  1.00  0.00     0.037 A 
HETATM    9  C   UNL     1      -2.789  -2.130 -31.653  1.00  0.00     0.029 A 
HETATM   10  C   UNL     1      -2.926  -3.491 -31.927  1.00  0.00     0.005 A 
HETATM   11  C   UNL     1      -3.640  -3.906 -33.050  1.00  0.00     0.037 A 
BRANCH   8  12
HETATM   12  N   UNL     1      -3.188   0.186 -32.152  1.00  0.00    -0.327 N 
HETATM   13  C   UNL     1      -4.142   1.062 -31.665  1.00  0.00     0.218 C 
HETATM   14  C   UNL     1      -3.585   2.437 -31.393  1.00  0.00     0.117 C 
HETATM   15  O   UNL     1      -5.319   0.810 -31.427  1.00  0.00    -0.274 OA
HETATM   16  H   UNL     1      -2.249   0.550 -32.259  1.00  0.00     0.169 HD
ENDBRANCH   8  12
ENDBRANCH   5   6
ENDBRANCH   4   5
ENDBRANCH   3   4
ENDBRANCH   2   3
ENDBRANCH   1   2
BRANCH   1  17
HETATM   17  N   UNL     1      -7.637   1.113 -33.766  1.00  0.00    -0.345 N 
HETATM   18  C   UNL     1      -8.348   2.189 -33.301  1.00  0.00     0.270 C 
HETATM   19  O   UNL     1      -9.361   2.601 -33.856  1.00  0.00    -0.266 OA
HETATM   20  H   UNL     1      -6.872   0.739 -33.225  1.00  0.00     0.163 HD
BRANCH  18  21
HETATM   21  C   UNL     1      -7.830   2.796 -32.105  1.00  0.00     0.120 A 
HETATM   22  N   UNL     1      -8.021   2.227 -30.874  1.00  0.00    -0.272 N 
HETATM   23  H   UNL     1      -8.522   1.366 -30.676  1.00  0.00     0.189 HD
HETATM   24  N   UNL     1      -7.463   2.907 -29.860  1.00  0.00    -0.173 NA
HETATM   25  C   UNL     1      -6.901   3.969 -30.452  1.00  0.00     0.096 A 
HETATM   26  C   UNL     1      -7.107   3.946 -31.853  1.00  0.00     0.071 A 
BRANCH  25  27
HETATM   27  C   UNL     1      -6.158   5.015 -29.674  1.00  0.00     0.035 A 
HETATM   28  S   UNL     1      -6.617   5.576 -28.125  1.00  0.00    -0.100 SA
HETATM   29  C   UNL     1      -5.295   6.660 -28.055  1.00  0.00     0.050 A 
HETATM   30  C   UNL     1      -4.518   6.599 -29.191  1.00  0.00     0.008 A 
HETATM   31  C   UNL     1      -5.017   5.645 -30.126  1.00  0.00     0.022 A 
ENDBRANCH  25  27
ENDBRANCH  18  21
ENDBRANCH   1  17
TORSDOF 9
ENDMDL
MODEL 9
REMARK VINA RESULT:      -7.1     18.675     19.673
REMARK  9 active torsions:
REMARK  status: ('A' for Active; 'I' for Inactive)
REMARK       I    between atoms: C_2  and  N_3 
REMARK    1  A    between atoms: N_3  and  C_4 
REMARK    2  A    between atoms: C_6  and  O_7 
REMARK    3  A    between atoms: O_7  and  C_8 
REMARK    4  A    between atoms: C_8  and  C_9 
REMARK    5  A    between atoms: C_9  and  C_10 
REMARK    6  A    between atoms: C_10  and  C_11 
REMARK    7  A    between atoms: C_11  and  N_12 
REMARK       I    between atoms: N_12  and  C_13 
REMARK    8  A    between atoms: C_13  and  C_14 
REMARK    9  A    between atoms: C_18  and  C_19 
ROOT
HETATM    1  C   UNL     1      -6.020 -13.261 -34.184  1.00  0.00     0.217 C 
ENDROOT
BRANCH   1   2
HETATM    2  C   UNL     1      -5.034 -13.199 -35.339  1.00  0.00    -0.085 C 
BRANCH   2   3
HETATM    3  C   UNL     1      -4.189 -13.146 -36.330  1.00  0.00    -0.078 C 
BRANCH   3   4
HETATM    4  C   UNL     1      -3.203 -13.084 -37.485  1.00  0.00     0.269 C 
BRANCH   4   5
HETATM    5  O   UNL     1      -3.596 -12.075 -38.411  1.00  0.00    -0.339 OA
BRANCH   5   6
HETATM    6  C   UNL     1      -4.505 -12.462 -39.364  1.00  0.00     0.072 A 
HETATM    7  C   UNL     1      -5.829 -12.015 -39.462  1.00  0.00     0.066 A 
HETATM    8  C   UNL     1      -6.665 -12.468 -40.487  1.00  0.00     0.037 A 
HETATM    9  C   UNL     1      -6.163 -13.389 -41.414  1.00  0.00     0.029 A 
HETATM   10  C   UNL     1      -4.847 -13.844 -41.319  1.00  0.00     0.005 A 
HETATM   11  C   UNL     1      -4.022 -13.378 -40.297  1.00  0.00     0.037 A 
BRANCH   8  12
HETATM   12  N   UNL     1      -8.004 -12.047 -40.653  1.00  0.00    -0.327 N 
HETATM   13  C   UNL     1      -9.113 -12.462 -39.937  1.00  0.00     0.218 C 
HETATM   14  C   UNL     1     -10.382 -11.781 -40.387  1.00  0.00     0.117 C 
HETATM   15  O   UNL     1      -9.134 -13.263 -39.009  1.00  0.00    -0.274 OA
HETATM   16  H   UNL     1      -8.159 -11.348 -41.369  1.00  0.00     0.169 HD
ENDBRANCH   8  12
ENDBRANCH   5   6
ENDBRANCH   4   5
ENDBRANCH   3   4
ENDBRANCH   2   3
ENDBRANCH   1   2
BRANCH   1  17
HETATM   17  N   UNL     1      -5.367 -13.839 -33.039  1.00  0.00    -0.345 N 
HETATM   18  C   UNL     1      -5.938 -14.881 -32.356  1.00  0.00     0.270 C 
HETATM   19  O   UNL     1      -7.041 -15.334 -32.643  1.00  0.00    -0.266 OA
HETATM   20  H   UNL     1      -4.416 -13.564 -32.843  1.00  0.00     0.163 HD
BRANCH  18  21
HETATM   21  C   UNL     1      -5.145 -15.420 -31.285  1.00  0.00     0.120 A 
HETATM   22  N   UNL     1      -5.694 -15.709 -30.064  1.00  0.00    -0.272 N 
HETATM   23  H   UNL     1      -6.663 -15.580 -29.790  1.00  0.00     0.189 HD
HETATM   24  N   UNL     1      -4.826 -16.219 -29.177  1.00  0.00    -0.173 NA
HETATM   25  C   UNL     1      -3.663 -16.250 -29.840  1.00  0.00     0.096 A 
HETATM   26  C   UNL     1      -3.811 -15.757 -31.159  1.00  0.00     0.071 A 
BRANCH  25  27
HETATM   27  C   UNL     1      -2.399 -16.757 -29.211  1.00  0.00     0.035 A 
HETATM   28  S   UNL     1      -1.708 -18.289 -29.527  1.00  0.00    -0.100 SA
HETATM   29  C   UNL     1      -0.411 -17.998 -28.449  1.00  0.00     0.050 A 
HETATM   30  C   UNL     1      -0.501 -16.758 -27.858  1.00  0.00     0.008 A 
HETATM   31  C   UNL     1      -1.652 -16.040 -28.300  1.00  0.00     0.022 A 
ENDBRANCH  25  27
ENDBRANCH  18  21
ENDBRANCH   1  17
TORSDOF 9
ENDMDL
MODEL 10
REMARK VINA RESULT:      -7.0      2.793      3.359
REMARK  9 active torsions:
REMARK  status: ('A' for Active; 'I' for Inactive)
REMARK       I    between atoms: C_2  and  N_3 
REMARK    1  A    between atoms: N_3  and  C_4 
REMARK    2  A    between atoms: C_6  and  O_7 
REMARK    3  A    between atoms: O_7  and  C_8 
REMARK    4  A    between atoms: C_8  and  C_9 
REMARK    5  A    between atoms: C_9  and  C_10 
REMARK    6  A    between atoms: C_10  and  C_11 
REMARK    7  A    between atoms: C_11  and  N_12 
REMARK       I    between atoms: N_12  and  C_13 
REMARK    8  A    between atoms: C_13  and  C_14 
REMARK    9  A    between atoms: C_18  and  C_19 
ROOT
HETATM    1  C   UNL     1      -1.945   4.923 -32.765  1.00  0.00     0.217 C 
ENDROOT
BRANCH   1   2
HETATM    2  C   UNL     1      -2.812   3.696 -32.534  1.00  0.00    -0.085 C 
BRANCH   2   3
HETATM    3  C   UNL     1      -3.556   2.644 -32.335  1.00  0.00    -0.078 C 
BRANCH   3   4
HETATM    4  C   UNL     1      -4.423   1.417 -32.105  1.00  0.00     0.269 C 
BRANCH   4   5
HETATM    5  O   UNL     1      -5.029   1.481 -30.817  1.00  0.00    -0.339 OA
BRANCH   5   6
HETATM    6  C   UNL     1      -6.322   1.941 -30.790  1.00  0.00     0.072 A 
HETATM    7  C   UNL     1      -7.408   1.373 -31.468  1.00  0.00     0.066 A 
HETATM    8  C   UNL     1      -8.691   1.921 -31.355  1.00  0.00     0.037 A 
HETATM    9  C   UNL     1      -8.874   3.058 -30.561  1.00  0.00     0.029 A 
HETATM   10  C   UNL     1      -7.795   3.633 -29.887  1.00  0.00     0.005 A 
HETATM   11  C   UNL     1      -6.525   3.073 -30.001  1.00  0.00     0.037 A 
BRANCH   8  12
HETATM   12  N   UNL     1      -9.830   1.390 -31.999  1.00  0.00    -0.327 N 
HETATM   13  C   UNL     1     -10.242   1.607 -33.303  1.00  0.00     0.218 C 
HETATM   14  C   UNL     1     -11.506   0.859 -33.646  1.00  0.00     0.117 C 
HETATM   15  O   UNL     1      -9.676   2.292 -34.149  1.00  0.00    -0.274 OA
HETATM   16  H   UNL     1     -10.399   0.765 -31.441  1.00  0.00     0.169 HD
ENDBRANCH   8  12
ENDBRANCH   5   6
ENDBRANCH   4   5
ENDBRANCH   3   4
ENDBRANCH   2   3
ENDBRANCH   1   2
BRANCH   1  17
HETATM   17  N   UNL     1      -1.752   5.604 -31.512  1.00  0.00    -0.345 N 
HETATM   18  C   UNL     1      -0.622   5.393 -30.765  1.00  0.00     0.270 C 
HETATM   19  O   UNL     1       0.243   4.587 -31.089  1.00  0.00    -0.266 OA
HETATM   20  H   UNL     1      -2.387   6.349 -31.270  1.00  0.00     0.163 HD
BRANCH  18  21
HETATM   21  C   UNL     1      -0.513   6.196 -29.577  1.00  0.00     0.120 A 
HETATM   22  N   UNL     1      -1.591   6.419 -28.763  1.00  0.00    -0.272 N 
HETATM   23  H   UNL     1      -2.534   6.068 -28.897  1.00  0.00     0.189 HD
HETATM   24  N   UNL     1      -1.322   7.176 -27.688  1.00  0.00    -0.173 NA
HETATM   25  C   UNL     1      -0.022   7.470 -27.815  1.00  0.00     0.096 A 
HETATM   26  C   UNL     1       0.527   6.885 -28.982  1.00  0.00     0.071 A 
BRANCH  25  27
HETATM   27  C   UNL     1       0.706   8.316 -26.812  1.00  0.00     0.035 A 
HETATM   28  S   UNL     1       0.153   9.831 -26.242  1.00  0.00    -0.100 SA
HETATM   29  C   UNL     1       1.518  10.021 -25.229  1.00  0.00     0.050 A 
HETATM   30  C   UNL     1       2.382   8.952 -25.323  1.00  0.00     0.008 A 
HETATM   31  C   UNL     1       1.910   7.965 -26.238  1.00  0.00     0.022 A 
ENDBRANCH  25  27
ENDBRANCH  18  21
ENDBRANCH   1  17
TORSDOF 9
ENDMDL
