MODEL 1
REMARK VINA RESULT:      -9.8      0.000      0.000
REMARK  7 active torsions:
REMARK  status: ('A' for Active; 'I' for Inactive)
REMARK    1  A    between atoms: C_4  and  C_5 
REMARK    2  A    between atoms: C_5  and  C_6 
REMARK    3  A    between atoms: C_8  and  C_9 
REMARK    4  A    between atoms: C_9  and  C_10 
REMARK       I    between atoms: C_10  and  N_11 
REMARK    5  A    between atoms: N_11  and  N_12 
REMARK       I    between atoms: N_12  and  C_13 
REMARK       I    between atoms: C_13  and  N_14 
REMARK    6  A    between atoms: N_14  and  C_15 
REMARK    7  A    between atoms: C_17  and  C_18 
ROOT
HETATM    1  C   UNL     1      -4.167   4.014 -31.715  1.00  0.00     0.238 C 
HETATM    2  N   UNL     1      -4.851   2.836 -31.919  1.00  0.00    -0.266 N 
HETATM    3  O   UNL     1      -3.029   4.054 -31.252  1.00  0.00    -0.272 OA
HETATM    4  H   UNL     1      -5.824   2.780 -32.226  1.00  0.00     0.190 HD
ENDROOT
BRANCH   1   5
HETATM    5  C   UNL     1      -4.955   5.231 -32.127  1.00  0.00     0.139 C 
BRANCH   5   6
HETATM    6  C   UNL     1      -4.143   6.162 -33.024  1.00  0.00     0.185 C 
HETATM    7  N   UNL     1      -2.865   6.481 -32.393  1.00  0.00    -0.363 N 
HETATM    8  C   UNL     1      -1.748   6.664 -33.176  1.00  0.00     0.125 C 
HETATM    9  H   UNL     1      -2.960   7.117 -31.601  1.00  0.00     0.161 HD
HETATM   10  N   UNL     1      -1.639   6.269 -34.411  1.00  0.00    -0.159 NA
HETATM   11  N   UNL     1      -2.715   5.650 -34.973  1.00  0.00    -0.244 N 
HETATM   12  C   UNL     1      -3.949   5.490 -34.386  1.00  0.00     0.261 C 
HETATM   13  H   UNL     1      -2.579   5.257 -35.898  1.00  0.00     0.192 HD
HETATM   14  O   UNL     1      -4.850   4.884 -34.965  1.00  0.00    -0.269 OA
BRANCH   8  15
HETATM   15  C   UNL     1      -0.552   7.376 -32.554  1.00  0.00     0.118 C 
BRANCH  15  16
HETATM   16  C   UNL     1      -0.130   6.748 -31.248  1.00  0.00    -0.051 A 
HETATM   17  C   UNL     1       0.304   5.418 -31.195  1.00  0.00     0.007 A 
HETATM   18  C   UNL     1       0.695   4.851 -29.981  1.00  0.00     0.001 A 
HETATM   19  C   UNL     1       0.654   5.606 -28.810  1.00  0.00     0.000 A 
HETATM   20  C   UNL     1       0.222   6.929 -28.851  1.00  0.00     0.001 A 
HETATM   21  C   UNL     1      -0.169   7.498 -30.063  1.00  0.00     0.007 A 
ENDBRANCH  15  16
ENDBRANCH   8  15
ENDBRANCH   5   6
ENDBRANCH   1   5
BRANCH   2  22
HETATM   22  N   UNL     1      -4.230   1.623 -31.592  1.00  0.00    -0.249 N 
HETATM   23  C   UNL     1      -4.496   0.546 -32.427  1.00  0.00     0.339 C 
HETATM   24  N   UNL     1      -3.899  -0.608 -31.971  1.00  0.00    -0.308 N 
HETATM   25  O   UNL     1      -5.158   0.685 -33.451  1.00  0.00    -0.245 OA
HETATM   26  H   UNL     1      -3.262  -0.491 -31.195  1.00  0.00     0.170 HD
HETATM   27  H   UNL     1      -4.097   1.468 -30.597  1.00  0.00     0.192 HD
BRANCH  24  28
HETATM   28  C   UNL     1      -3.961  -1.892 -32.545  1.00  0.00     0.037 A 
HETATM   29  C   UNL     1      -4.816  -2.236 -33.596  1.00  0.00     0.045 A 
HETATM   30  C   UNL     1      -4.821  -3.538 -34.129  1.00  0.00     0.050 A 
HETATM   31  C   UNL     1      -3.964  -4.502 -33.580  1.00  0.00     0.016 A 
HETATM   32  C   UNL     1      -3.113  -4.170 -32.528  1.00  0.00     0.003 A 
HETATM   33  C   UNL     1      -3.113  -2.872 -32.014  1.00  0.00     0.029 A 
BRANCH  30  34
HETATM   34  C   UNL     1      -5.759  -3.908 -35.251  1.00  0.00     0.417 C 
HETATM   35  F   UNL     1      -5.688  -5.217 -35.617  1.00  0.00    -0.166 F 
HETATM   36  F   UNL     1      -7.066  -3.682 -34.937  1.00  0.00    -0.166 F 
HETATM   37  F   UNL     1      -5.520  -3.187 -36.382  1.00  0.00    -0.166 F 
ENDBRANCH  30  34
ENDBRANCH  24  28
ENDBRANCH   2  22
TORSDOF 7
ENDMDL
MODEL 2
REMARK VINA RESULT:      -9.7      1.321      2.096
REMARK  7 active torsions:
REMARK  status: ('A' for Active; 'I' for Inactive)
REMARK    1  A    between atoms: C_4  and  C_5 
REMARK    2  A    between atoms: C_5  and  C_6 
REMARK    3  A    between atoms: C_8  and  C_9 
REMARK    4  A    between atoms: C_9  and  C_10 
REMARK       I    between atoms: C_10  and  N_11 
REMARK    5  A    between atoms: N_11  and  N_12 
REMARK       I    between atoms: N_12  and  C_13 
REMARK       I    between atoms: C_13  and  N_14 
REMARK    6  A    between atoms: N_14  and  C_15 
REMARK    7  A    between atoms: C_17  and  C_18 
ROOT
HETATM    1  C   UNL     1      -4.780   4.406 -31.640  1.00  0.00     0.238 C 
HETATM    2  N   UNL     1      -5.819   3.524 -31.836  1.00  0.00    -0.266 N 
HETATM    3  O   UNL     1      -3.678   4.057 -31.220  1.00  0.00    -0.272 OA
HETATM    4  H   UNL     1      -6.765   3.798 -32.106  1.00  0.00     0.190 HD
ENDROOT
BRANCH   1   5
HETATM    5  C   UNL     1      -5.136   5.825 -32.003  1.00  0.00     0.139 C 
BRANCH   5   6
HETATM    6  C   UNL     1      -4.175   6.409 -33.036  1.00  0.00     0.185 C 
HETATM    7  N   UNL     1      -2.865   6.638 -32.432  1.00  0.00    -0.363 N 
HETATM    8  C   UNL     1      -1.729   6.473 -33.192  1.00  0.00     0.125 C 
HETATM    9  H   UNL     1      -2.856   7.428 -31.787  1.00  0.00     0.161 HD
HETATM   10  N   UNL     1      -1.683   5.823 -34.318  1.00  0.00    -0.159 NA
HETATM   11  N   UNL     1      -2.844   5.287 -34.787  1.00  0.00    -0.244 N 
HETATM   12  C   UNL     1      -4.090   5.452 -34.228  1.00  0.00     0.261 C 
HETATM   13  H   UNL     1      -2.771   4.698 -35.609  1.00  0.00     0.192 HD
HETATM   14  O   UNL     1      -5.077   4.897 -34.708  1.00  0.00    -0.269 OA
BRANCH   8  15
HETATM   15  C   UNL     1      -0.434   7.093 -32.679  1.00  0.00     0.118 C 
BRANCH  15  16
HETATM   16  C   UNL     1      -0.074   6.601 -31.299  1.00  0.00    -0.051 A 
HETATM   17  C   UNL     1      -0.180   7.441 -30.184  1.00  0.00     0.007 A 
HETATM   18  C   UNL     1       0.154   6.972 -28.912  1.00  0.00     0.001 A 
HETATM   19  C   UNL     1       0.597   5.661 -28.743  1.00  0.00     0.000 A 
HETATM   20  C   UNL     1       0.708   4.818 -29.846  1.00  0.00     0.001 A 
HETATM   21  C   UNL     1       0.376   5.285 -31.118  1.00  0.00     0.007 A 
ENDBRANCH  15  16
ENDBRANCH   8  15
ENDBRANCH   5   6
ENDBRANCH   1   5
BRANCH   2  22
HETATM   22  N   UNL     1      -5.622   2.166 -31.552  1.00  0.00    -0.249 N 
HETATM   23  C   UNL     1      -5.670   1.293 -32.630  1.00  0.00     0.339 C 
HETATM   24  N   UNL     1      -5.541  -0.017 -32.228  1.00  0.00    -0.308 N 
HETATM   25  O   UNL     1      -5.777   1.710 -33.779  1.00  0.00    -0.245 OA
HETATM   26  H   UNL     1      -5.303  -0.153 -31.255  1.00  0.00     0.170 HD
HETATM   27  H   UNL     1      -5.971   1.866 -30.645  1.00  0.00     0.192 HD
BRANCH  24  28
HETATM   28  C   UNL     1      -5.560  -1.170 -33.037  1.00  0.00     0.037 A 
HETATM   29  C   UNL     1      -4.626  -2.205 -32.942  1.00  0.00     0.045 A 
HETATM   30  C   UNL     1      -4.709  -3.334 -33.778  1.00  0.00     0.050 A 
HETATM   31  C   UNL     1      -5.737  -3.404 -34.728  1.00  0.00     0.016 A 
HETATM   32  C   UNL     1      -6.669  -2.374 -34.834  1.00  0.00     0.003 A 
HETATM   33  C   UNL     1      -6.579  -1.264 -33.993  1.00  0.00     0.029 A 
BRANCH  30  34
HETATM   34  C   UNL     1      -3.687  -4.439 -33.683  1.00  0.00     0.417 C 
HETATM   35  F   UNL     1      -2.897  -4.553 -34.786  1.00  0.00    -0.166 F 
HETATM   36  F   UNL     1      -2.833  -4.276 -32.633  1.00  0.00    -0.166 F 
HETATM   37  F   UNL     1      -4.263  -5.661 -33.505  1.00  0.00    -0.166 F 
ENDBRANCH  30  34
ENDBRANCH  24  28
ENDBRANCH   2  22
TORSDOF 7
ENDMDL
MODEL 3
REMARK VINA RESULT:      -9.7      3.285      6.046
REMARK  7 active torsions:
REMARK  status: ('A' for Active; 'I' for Inactive)
REMARK    1  A    between atoms: C_4  and  C_5 
REMARK    2  A    between atoms: C_5  and  C_6 
REMARK    3  A    between atoms: C_8  and  C_9 
REMARK    4  A    between atoms: C_9  and  C_10 
REMARK       I    between atoms: C_10  and  N_11 
REMARK    5  A    between atoms: N_11  and  N_12 
REMARK       I    between atoms: N_12  and  C_13 
REMARK       I    between atoms: C_13  and  N_14 
REMARK    6  A    between atoms: N_14  and  C_15 
REMARK    7  A    between atoms: C_17  and  C_18 
ROOT
HETATM    1  C   UNL     1      -4.752   4.238 -32.438  1.00  0.00     0.238 C 
HETATM    2  N   UNL     1      -4.028   3.324 -31.703  1.00  0.00    -0.266 N 
HETATM    3  O   UNL     1      -4.862   4.174 -33.661  1.00  0.00    -0.272 OA
HETATM    4  H   UNL     1      -3.855   3.399 -30.700  1.00  0.00     0.190 HD
ENDROOT
BRANCH   1   5
HETATM    5  C   UNL     1      -5.393   5.302 -31.586  1.00  0.00     0.139 C 
BRANCH   5   6
HETATM    6  C   UNL     1      -6.759   4.869 -31.061  1.00  0.00     0.185 C 
HETATM    7  N   UNL     1      -7.398   3.959 -32.009  1.00  0.00    -0.363 N 
HETATM    8  C   UNL     1      -8.197   2.942 -31.540  1.00  0.00     0.125 C 
HETATM    9  H   UNL     1      -7.727   4.429 -32.852  1.00  0.00     0.161 HD
HETATM   10  N   UNL     1      -8.194   2.506 -30.314  1.00  0.00    -0.159 NA
HETATM   11  N   UNL     1      -7.355   3.115 -29.429  1.00  0.00    -0.244 N 
HETATM   12  C   UNL     1      -6.577   4.219 -29.687  1.00  0.00     0.261 C 
HETATM   13  H   UNL     1      -7.290   2.697 -28.507  1.00  0.00     0.192 HD
HETATM   14  O   UNL     1      -5.824   4.676 -28.828  1.00  0.00    -0.269 OA
BRANCH   8  15
HETATM   15  C   UNL     1      -9.152   2.276 -32.524  1.00  0.00     0.118 C 
BRANCH  15  16
HETATM   16  C   UNL     1      -8.466   1.224 -33.361  1.00  0.00    -0.051 A 
HETATM   17  C   UNL     1      -7.832   1.559 -34.564  1.00  0.00     0.007 A 
HETATM   18  C   UNL     1      -7.199   0.576 -35.326  1.00  0.00     0.001 A 
HETATM   19  C   UNL     1      -7.195  -0.750 -34.895  1.00  0.00     0.000 A 
HETATM   20  C   UNL     1      -7.825  -1.094 -33.702  1.00  0.00     0.001 A 
HETATM   21  C   UNL     1      -8.459  -0.114 -32.938  1.00  0.00     0.007 A 
ENDBRANCH  15  16
ENDBRANCH   8  15
ENDBRANCH   5   6
ENDBRANCH   1   5
BRANCH   2  22
HETATM   22  N   UNL     1      -3.390   2.268 -32.368  1.00  0.00    -0.249 N 
HETATM   23  C   UNL     1      -3.937   1.005 -32.195  1.00  0.00     0.339 C 
HETATM   24  N   UNL     1      -3.188   0.037 -32.827  1.00  0.00    -0.308 N 
HETATM   25  O   UNL     1      -4.984   0.847 -31.575  1.00  0.00    -0.245 OA
HETATM   26  H   UNL     1      -2.447   0.380 -33.421  1.00  0.00     0.170 HD
HETATM   27  H   UNL     1      -2.383   2.373 -32.463  1.00  0.00     0.192 HD
BRANCH  24  28
HETATM   28  C   UNL     1      -3.426  -1.351 -32.855  1.00  0.00     0.037 A 
HETATM   29  C   UNL     1      -4.257  -1.981 -33.786  1.00  0.00     0.045 A 
HETATM   30  C   UNL     1      -4.444  -3.375 -33.762  1.00  0.00     0.050 A 
HETATM   31  C   UNL     1      -3.797  -4.133 -32.775  1.00  0.00     0.016 A 
HETATM   32  C   UNL     1      -2.972  -3.511 -31.840  1.00  0.00     0.003 A 
HETATM   33  C   UNL     1      -2.789  -2.129 -31.880  1.00  0.00     0.029 A 
BRANCH  30  34
HETATM   34  C   UNL     1      -5.356  -4.048 -34.757  1.00  0.00     0.417 C 
HETATM   35  F   UNL     1      -6.654  -4.120 -34.351  1.00  0.00    -0.166 F 
HETATM   36  F   UNL     1      -5.381  -3.409 -35.961  1.00  0.00    -0.166 F 
HETATM   37  F   UNL     1      -4.973  -5.327 -35.025  1.00  0.00    -0.166 F 
ENDBRANCH  30  34
ENDBRANCH  24  28
ENDBRANCH   2  22
TORSDOF 7
ENDMDL
MODEL 4
REMARK VINA RESULT:      -9.7      2.001      2.953
REMARK  7 active torsions:
REMARK  status: ('A' for Active; 'I' for Inactive)
REMARK    1  A    between atoms: C_4  and  C_5 
REMARK    2  A    between atoms: C_5  and  C_6 
REMARK    3  A    between atoms: C_8  and  C_9 
REMARK    4  A    between atoms: C_9  and  C_10 
REMARK       I    between atoms: C_10  and  N_11 
REMARK    5  A    between atoms: N_11  and  N_12 
REMARK       I    between atoms: N_12  and  C_13 
REMARK       I    between atoms: C_13  and  N_14 
REMARK    6  A    between atoms: N_14  and  C_15 
REMARK    7  A    between atoms: C_17  and  C_18 
ROOT
HETATM    1  C   UNL     1      -4.193   4.428 -31.309  1.00  0.00     0.238 C 
HETATM    2  N   UNL     1      -4.156   3.157 -30.778  1.00  0.00    -0.266 N 
HETATM    3  O   UNL     1      -3.777   4.693 -32.435  1.00  0.00    -0.272 OA
HETATM    4  H   UNL     1      -4.421   2.925 -29.820  1.00  0.00     0.190 HD
ENDROOT
BRANCH   1   5
HETATM    5  C   UNL     1      -4.801   5.439 -30.371  1.00  0.00     0.139 C 
BRANCH   5   6
HETATM    6  C   UNL     1      -3.818   6.551 -30.013  1.00  0.00     0.185 C 
HETATM    7  N   UNL     1      -2.447   6.047 -30.064  1.00  0.00    -0.363 N 
HETATM    8  C   UNL     1      -1.432   6.881 -30.473  1.00  0.00     0.125 C 
HETATM    9  H   UNL     1      -2.223   5.423 -29.288  1.00  0.00     0.161 HD
HETATM   10  N   UNL     1      -1.608   7.992 -31.127  1.00  0.00    -0.159 NA
HETATM   11  N   UNL     1      -2.888   8.364 -31.408  1.00  0.00    -0.244 N 
HETATM   12  C   UNL     1      -4.025   7.723 -30.976  1.00  0.00     0.261 C 
HETATM   13  H   UNL     1      -3.002   9.176 -32.006  1.00  0.00     0.192 HD
HETATM   14  O   UNL     1      -5.141   8.119 -31.313  1.00  0.00    -0.269 OA
BRANCH   8  15
HETATM   15  C   UNL     1      -0.001   6.476 -30.139  1.00  0.00     0.118 C 
BRANCH  15  16
HETATM   16  C   UNL     1       0.446   7.012 -28.800  1.00  0.00    -0.051 A 
HETATM   17  C   UNL     1       1.188   8.196 -28.709  1.00  0.00     0.007 A 
HETATM   18  C   UNL     1       1.591   8.682 -27.464  1.00  0.00     0.001 A 
HETATM   19  C   UNL     1       1.259   7.989 -26.301  1.00  0.00     0.000 A 
HETATM   20  C   UNL     1       0.524   6.809 -26.381  1.00  0.00     0.001 A 
HETATM   21  C   UNL     1       0.120   6.322 -27.624  1.00  0.00     0.007 A 
ENDBRANCH  15  16
ENDBRANCH   8  15
ENDBRANCH   5   6
ENDBRANCH   1   5
BRANCH   2  22
HETATM   22  N   UNL     1      -3.629   2.112 -31.549  1.00  0.00    -0.249 N 
HETATM   23  C   UNL     1      -4.541   1.205 -32.072  1.00  0.00     0.339 C 
HETATM   24  N   UNL     1      -3.909   0.182 -32.744  1.00  0.00    -0.308 N 
HETATM   25  O   UNL     1      -5.749   1.377 -31.945  1.00  0.00    -0.245 OA
HETATM   26  H   UNL     1      -2.915   0.298 -32.877  1.00  0.00     0.170 HD
HETATM   27  H   UNL     1      -2.710   1.791 -31.258  1.00  0.00     0.192 HD
BRANCH  24  28
HETATM   28  C   UNL     1      -4.506  -0.920 -33.385  1.00  0.00     0.037 A 
HETATM   29  C   UNL     1      -4.000  -2.222 -33.330  1.00  0.00     0.045 A 
HETATM   30  C   UNL     1      -4.652  -3.280 -33.989  1.00  0.00     0.050 A 
HETATM   31  C   UNL     1      -5.817  -3.013 -34.722  1.00  0.00     0.016 A 
HETATM   32  C   UNL     1      -6.324  -1.717 -34.787  1.00  0.00     0.003 A 
HETATM   33  C   UNL     1      -5.671  -0.678 -34.123  1.00  0.00     0.029 A 
BRANCH  30  34
HETATM   34  C   UNL     1      -4.091  -4.680 -33.942  1.00  0.00     0.417 C 
HETATM   35  F   UNL     1      -4.866  -5.604 -34.574  1.00  0.00    -0.166 F 
HETATM   36  F   UNL     1      -2.860  -4.772 -34.521  1.00  0.00    -0.166 F 
HETATM   37  F   UNL     1      -3.934  -5.130 -32.666  1.00  0.00    -0.166 F 
ENDBRANCH  30  34
ENDBRANCH  24  28
ENDBRANCH   2  22
TORSDOF 7
ENDMDL
MODEL 5
REMARK VINA RESULT:      -9.7      2.254      3.396
REMARK  7 active torsions:
REMARK  status: ('A' for Active; 'I' for Inactive)
REMARK    1  A    between atoms: C_4  and  C_5 
REMARK    2  A    between atoms: C_5  and  C_6 
REMARK    3  A    between atoms: C_8  and  C_9 
REMARK    4  A    between atoms: C_9  and  C_10 
REMARK       I    between atoms: C_10  and  N_11 
REMARK    5  A    between atoms: N_11  and  N_12 
REMARK       I    between atoms: N_12  and  C_13 
REMARK       I    between atoms: C_13  and  N_14 
REMARK    6  A    between atoms: N_14  and  C_15 
REMARK    7  A    between atoms: C_17  and  C_18 
ROOT
HETATM    1  C   UNL     1      -4.006   6.369 -30.440  1.00  0.00     0.238 C 
HETATM    2  N   UNL     1      -3.828   5.295 -31.284  1.00  0.00    -0.266 N 
HETATM    3  O   UNL     1      -4.453   6.255 -29.301  1.00  0.00    -0.272 OA
HETATM    4  H   UNL     1      -3.534   5.370 -32.259  1.00  0.00     0.190 HD
ENDROOT
BRANCH   1   5
HETATM    5  C   UNL     1      -3.586   7.678 -31.058  1.00  0.00     0.139 C 
BRANCH   5   6
HETATM    6  C   UNL     1      -2.089   7.931 -30.901  1.00  0.00     0.185 C 
HETATM    7  N   UNL     1      -1.538   7.063 -29.862  1.00  0.00    -0.363 N 
HETATM    8  C   UNL     1      -0.255   6.582 -29.990  1.00  0.00     0.125 C 
HETATM    9  H   UNL     1      -1.814   7.343 -28.921  1.00  0.00     0.161 HD
HETATM   10  N   UNL     1       0.419   6.562 -31.103  1.00  0.00    -0.159 NA
HETATM   11  N   UNL     1      -0.182   7.073 -32.214  1.00  0.00    -0.244 N 
HETATM   12  C   UNL     1      -1.405   7.702 -32.251  1.00  0.00     0.261 C 
HETATM   13  H   UNL     1       0.314   6.955 -33.091  1.00  0.00     0.192 HD
HETATM   14  O   UNL     1      -1.879   8.100 -33.314  1.00  0.00    -0.269 OA
BRANCH   8  15
HETATM   15  C   UNL     1       0.426   6.032 -28.742  1.00  0.00     0.118 C 
BRANCH  15  16
HETATM   16  C   UNL     1       0.859   7.128 -27.799  1.00  0.00    -0.051 A 
HETATM   17  C   UNL     1       1.378   8.335 -28.285  1.00  0.00     0.007 A 
HETATM   18  C   UNL     1       1.771   9.341 -27.400  1.00  0.00     0.001 A 
HETATM   19  C   UNL     1       1.652   9.150 -26.025  1.00  0.00     0.000 A 
HETATM   20  C   UNL     1       1.140   7.952 -25.531  1.00  0.00     0.001 A 
HETATM   21  C   UNL     1       0.747   6.946 -26.413  1.00  0.00     0.007 A 
ENDBRANCH  15  16
ENDBRANCH   8  15
ENDBRANCH   5   6
ENDBRANCH   1   5
BRANCH   2  22
HETATM   22  N   UNL     1      -4.163   4.011 -30.833  1.00  0.00    -0.249 N 
HETATM   23  C   UNL     1      -3.917   2.961 -31.707  1.00  0.00     0.339 C 
HETATM   24  N   UNL     1      -4.354   1.761 -31.194  1.00  0.00    -0.308 N 
HETATM   25  O   UNL     1      -3.341   3.148 -32.775  1.00  0.00    -0.245 OA
HETATM   26  H   UNL     1      -4.660   1.785 -30.231  1.00  0.00     0.170 HD
HETATM   27  H   UNL     1      -4.972   3.975 -30.217  1.00  0.00     0.192 HD
BRANCH  24  28
HETATM   28  C   UNL     1      -4.288   0.492 -31.801  1.00  0.00     0.037 A 
HETATM   29  C   UNL     1      -5.162   0.061 -32.802  1.00  0.00     0.045 A 
HETATM   30  C   UNL     1      -5.034  -1.219 -33.373  1.00  0.00     0.050 A 
HETATM   31  C   UNL     1      -4.022  -2.073 -32.912  1.00  0.00     0.016 A 
HETATM   32  C   UNL     1      -3.150  -1.653 -31.910  1.00  0.00     0.003 A 
HETATM   33  C   UNL     1      -3.284  -0.378 -31.358  1.00  0.00     0.029 A 
BRANCH  30  34
HETATM   34  C   UNL     1      -5.992  -1.686 -34.440  1.00  0.00     0.417 C 
HETATM   35  F   UNL     1      -6.468  -0.684 -35.229  1.00  0.00    -0.166 F 
HETATM   36  F   UNL     1      -5.430  -2.590 -35.291  1.00  0.00    -0.166 F 
HETATM   37  F   UNL     1      -7.087  -2.304 -33.916  1.00  0.00    -0.166 F 
ENDBRANCH  30  34
ENDBRANCH  24  28
ENDBRANCH   2  22
TORSDOF 7
ENDMDL
MODEL 6
REMARK VINA RESULT:      -9.5      4.734      9.737
REMARK  7 active torsions:
REMARK  status: ('A' for Active; 'I' for Inactive)
REMARK    1  A    between atoms: C_4  and  C_5 
REMARK    2  A    between atoms: C_5  and  C_6 
REMARK    3  A    between atoms: C_8  and  C_9 
REMARK    4  A    between atoms: C_9  and  C_10 
REMARK       I    between atoms: C_10  and  N_11 
REMARK    5  A    between atoms: N_11  and  N_12 
REMARK       I    between atoms: N_12  and  C_13 
REMARK       I    between atoms: C_13  and  N_14 
REMARK    6  A    between atoms: N_14  and  C_15 
REMARK    7  A    between atoms: C_17  and  C_18 
ROOT
HETATM    1  C   UNL     1      -6.867   2.613 -32.029  1.00  0.00     0.238 C 
HETATM    2  N   UNL     1      -6.527   3.465 -31.002  1.00  0.00    -0.266 N 
HETATM    3  O   UNL     1      -6.599   2.846 -33.207  1.00  0.00    -0.272 OA
HETATM    4  H   UNL     1      -6.806   3.335 -30.029  1.00  0.00     0.190 HD
ENDROOT
BRANCH   1   5
HETATM    5  C   UNL     1      -7.584   1.376 -31.554  1.00  0.00     0.139 C 
BRANCH   5   6
HETATM    6  C   UNL     1      -6.647   0.176 -31.449  1.00  0.00     0.185 C 
HETATM    7  N   UNL     1      -5.963  -0.042 -32.722  1.00  0.00    -0.363 N 
HETATM    8  C   UNL     1      -4.671  -0.515 -32.725  1.00  0.00     0.125 C 
HETATM    9  H   UNL     1      -6.576  -0.421 -33.443  1.00  0.00     0.161 HD
HETATM   10  N   UNL     1      -3.873  -0.492 -31.697  1.00  0.00    -0.159 NA
HETATM   11  N   UNL     1      -4.360   0.017 -30.531  1.00  0.00    -0.244 N 
HETATM   12  C   UNL     1      -5.655   0.422 -30.309  1.00  0.00     0.261 C 
HETATM   13  H   UNL     1      -3.696   0.123 -29.772  1.00  0.00     0.192 HD
HETATM   14  O   UNL     1      -5.991   0.902 -29.227  1.00  0.00    -0.269 OA
BRANCH   8  15
HETATM   15  C   UNL     1      -4.133  -1.106 -34.024  1.00  0.00     0.118 C 
BRANCH  15  16
HETATM   16  C   UNL     1      -4.622  -2.516 -34.254  1.00  0.00    -0.051 A 
HETATM   17  C   UNL     1      -3.880  -3.618 -33.814  1.00  0.00     0.007 A 
HETATM   18  C   UNL     1      -4.346  -4.916 -34.031  1.00  0.00     0.001 A 
HETATM   19  C   UNL     1      -5.556  -5.123 -34.691  1.00  0.00     0.000 A 
HETATM   20  C   UNL     1      -6.301  -4.034 -35.136  1.00  0.00     0.001 A 
HETATM   21  C   UNL     1      -5.837  -2.737 -34.920  1.00  0.00     0.007 A 
ENDBRANCH  15  16
ENDBRANCH   8  15
ENDBRANCH   5   6
ENDBRANCH   1   5
BRANCH   2  22
HETATM   22  N   UNL     1      -5.840   4.651 -31.299  1.00  0.00    -0.249 N 
HETATM   23  C   UNL     1      -4.458   4.617 -31.169  1.00  0.00     0.339 C 
HETATM   24  N   UNL     1      -3.896   5.850 -31.410  1.00  0.00    -0.308 N 
HETATM   25  O   UNL     1      -3.872   3.571 -30.906  1.00  0.00    -0.245 OA
HETATM   26  H   UNL     1      -4.527   6.554 -31.767  1.00  0.00     0.170 HD
HETATM   27  H   UNL     1      -6.346   5.503 -31.075  1.00  0.00     0.192 HD
BRANCH  24  28
HETATM   28  C   UNL     1      -2.533   6.199 -31.354  1.00  0.00     0.037 A 
HETATM   29  C   UNL     1      -1.830   6.409 -30.165  1.00  0.00     0.045 A 
HETATM   30  C   UNL     1      -0.464   6.747 -30.181  1.00  0.00     0.050 A 
HETATM   31  C   UNL     1       0.188   6.889 -31.414  1.00  0.00     0.016 A 
HETATM   32  C   UNL     1      -0.507   6.687 -32.605  1.00  0.00     0.003 A 
HETATM   33  C   UNL     1      -1.859   6.345 -32.573  1.00  0.00     0.029 A 
BRANCH  30  34
HETATM   34  C   UNL     1       0.285   6.992 -28.895  1.00  0.00     0.417 C 
HETATM   35  F   UNL     1      -0.517   7.327 -27.847  1.00  0.00    -0.166 F 
HETATM   36  F   UNL     1       0.992   5.901 -28.484  1.00  0.00    -0.166 F 
HETATM   37  F   UNL     1       1.194   8.000 -29.011  1.00  0.00    -0.166 F 
ENDBRANCH  30  34
ENDBRANCH  24  28
ENDBRANCH   2  22
TORSDOF 7
ENDMDL
MODEL 7
REMARK VINA RESULT:      -9.5      5.350      9.608
REMARK  7 active torsions:
REMARK  status: ('A' for Active; 'I' for Inactive)
REMARK    1  A    between atoms: C_4  and  C_5 
REMARK    2  A    between atoms: C_5  and  C_6 
REMARK    3  A    between atoms: C_8  and  C_9 
REMARK    4  A    between atoms: C_9  and  C_10 
REMARK       I    between atoms: C_10  and  N_11 
REMARK    5  A    between atoms: N_11  and  N_12 
REMARK       I    between atoms: N_12  and  C_13 
REMARK       I    between atoms: C_13  and  N_14 
REMARK    6  A    between atoms: N_14  and  C_15 
REMARK    7  A    between atoms: C_17  and  C_18 
ROOT
HETATM    1  C   UNL     1      -6.755   3.929 -32.890  1.00  0.00     0.238 C 
HETATM    2  N   UNL     1      -6.291   4.023 -31.597  1.00  0.00    -0.266 N 
HETATM    3  O   UNL     1      -6.029   3.643 -33.841  1.00  0.00    -0.272 OA
HETATM    4  H   UNL     1      -6.853   4.335 -30.803  1.00  0.00     0.190 HD
ENDROOT
BRANCH   1   5
HETATM    5  C   UNL     1      -8.233   4.200 -33.005  1.00  0.00     0.139 C 
BRANCH   5   6
HETATM    6  C   UNL     1      -9.030   2.923 -33.260  1.00  0.00     0.185 C 
HETATM    7  N   UNL     1      -8.258   2.004 -34.094  1.00  0.00    -0.363 N 
HETATM    8  C   UNL     1      -8.379   0.648 -33.900  1.00  0.00     0.125 C 
HETATM    9  H   UNL     1      -8.192   2.309 -35.065  1.00  0.00     0.161 HD
HETATM   10  N   UNL     1      -8.875   0.096 -32.831  1.00  0.00    -0.159 NA
HETATM   11  N   UNL     1      -9.325   0.921 -31.845  1.00  0.00    -0.244 N 
HETATM   12  C   UNL     1      -9.396   2.292 -31.914  1.00  0.00     0.261 C 
HETATM   13  H   UNL     1      -9.611   0.476 -30.979  1.00  0.00     0.192 HD
HETATM   14  O   UNL     1      -9.788   2.954 -30.953  1.00  0.00    -0.269 OA
BRANCH   8  15
HETATM   15  C   UNL     1      -7.896  -0.276 -35.013  1.00  0.00     0.118 C 
BRANCH  15  16
HETATM   16  C   UNL     1      -6.671  -1.060 -34.612  1.00  0.00    -0.051 A 
HETATM   17  C   UNL     1      -6.578  -2.434 -34.868  1.00  0.00     0.007 A 
HETATM   18  C   UNL     1      -5.437  -3.146 -34.494  1.00  0.00     0.001 A 
HETATM   19  C   UNL     1      -4.381  -2.494 -33.860  1.00  0.00     0.000 A 
HETATM   20  C   UNL     1      -4.465  -1.129 -33.597  1.00  0.00     0.001 A 
HETATM   21  C   UNL     1      -5.603  -0.415 -33.970  1.00  0.00     0.007 A 
ENDBRANCH  15  16
ENDBRANCH   8  15
ENDBRANCH   5   6
ENDBRANCH   1   5
BRANCH   2  22
HETATM   22  N   UNL     1      -4.934   3.781 -31.341  1.00  0.00    -0.249 N 
HETATM   23  C   UNL     1      -4.100   4.890 -31.311  1.00  0.00     0.339 C 
HETATM   24  N   UNL     1      -2.784   4.529 -31.129  1.00  0.00    -0.308 N 
HETATM   25  O   UNL     1      -4.553   6.026 -31.403  1.00  0.00    -0.245 OA
HETATM   26  H   UNL     1      -2.625   3.554 -30.915  1.00  0.00     0.170 HD
HETATM   27  H   UNL     1      -4.585   2.897 -31.703  1.00  0.00     0.192 HD
BRANCH  24  28
HETATM   28  C   UNL     1      -1.662   5.378 -31.065  1.00  0.00     0.037 A 
HETATM   29  C   UNL     1      -1.139   5.891 -29.874  1.00  0.00     0.045 A 
HETATM   30  C   UNL     1      -0.009   6.728 -29.882  1.00  0.00     0.050 A 
HETATM   31  C   UNL     1       0.585   7.061 -31.107  1.00  0.00     0.016 A 
HETATM   32  C   UNL     1       0.066   6.560 -32.299  1.00  0.00     0.003 A 
HETATM   33  C   UNL     1      -1.050   5.724 -32.276  1.00  0.00     0.029 A 
BRANCH  30  34
HETATM   34  C   UNL     1       0.539   7.294 -28.595  1.00  0.00     0.417 C 
HETATM   35  F   UNL     1       1.477   8.264 -28.777  1.00  0.00    -0.166 F 
HETATM   36  F   UNL     1      -0.427   7.856 -27.815  1.00  0.00    -0.166 F 
HETATM   37  F   UNL     1       1.130   6.340 -27.823  1.00  0.00    -0.166 F 
ENDBRANCH  30  34
ENDBRANCH  24  28
ENDBRANCH   2  22
TORSDOF 7
ENDMDL
MODEL 8
REMARK VINA RESULT:      -9.5      1.537      2.334
REMARK  7 active torsions:
REMARK  status: ('A' for Active; 'I' for Inactive)
REMARK    1  A    between atoms: C_4  and  C_5 
REMARK    2  A    between atoms: C_5  and  C_6 
REMARK    3  A    between atoms: C_8  and  C_9 
REMARK    4  A    between atoms: C_9  and  C_10 
REMARK       I    between atoms: C_10  and  N_11 
REMARK    5  A    between atoms: N_11  and  N_12 
REMARK       I    between atoms: N_12  and  C_13 
REMARK       I    between atoms: C_13  and  N_14 
REMARK    6  A    between atoms: N_14  and  C_15 
REMARK    7  A    between atoms: C_17  and  C_18 
ROOT
HETATM    1  C   UNL     1      -3.199   3.562 -31.792  1.00  0.00     0.238 C 
HETATM    2  N   UNL     1      -3.716   2.575 -30.983  1.00  0.00    -0.266 N 
HETATM    3  O   UNL     1      -2.256   3.372 -32.558  1.00  0.00    -0.272 OA
HETATM    4  H   UNL     1      -4.444   2.725 -30.283  1.00  0.00     0.190 HD
ENDROOT
BRANCH   1   5
HETATM    5  C   UNL     1      -3.916   4.879 -31.645  1.00  0.00     0.139 C 
BRANCH   5   6
HETATM    6  C   UNL     1      -2.961   6.012 -31.277  1.00  0.00     0.185 C 
HETATM    7  N   UNL     1      -1.854   5.497 -30.474  1.00  0.00    -0.363 N 
HETATM    8  C   UNL     1      -0.604   6.056 -30.605  1.00  0.00     0.125 C 
HETATM    9  H   UNL     1      -2.133   5.250 -29.524  1.00  0.00     0.161 HD
HETATM   10  N   UNL     1      -0.227   6.795 -31.607  1.00  0.00    -0.159 NA
HETATM   11  N   UNL     1      -1.142   7.049 -32.584  1.00  0.00    -0.244 N 
HETATM   12  C   UNL     1      -2.466   6.678 -32.563  1.00  0.00     0.261 C 
HETATM   13  H   UNL     1      -0.803   7.538 -33.406  1.00  0.00     0.192 HD
HETATM   14  O   UNL     1      -3.208   6.926 -33.513  1.00  0.00    -0.269 OA
BRANCH   8  15
HETATM   15  C   UNL     1       0.413   5.791 -29.500  1.00  0.00     0.118 C 
BRANCH  15  16
HETATM   16  C   UNL     1       0.332   6.815 -28.394  1.00  0.00    -0.051 A 
HETATM   17  C   UNL     1      -0.532   6.635 -27.307  1.00  0.00     0.007 A 
HETATM   18  C   UNL     1      -0.593   7.588 -26.289  1.00  0.00     0.001 A 
HETATM   19  C   UNL     1       0.206   8.729 -26.349  1.00  0.00     0.000 A 
HETATM   20  C   UNL     1       1.066   8.918 -27.427  1.00  0.00     0.001 A 
HETATM   21  C   UNL     1       1.130   7.968 -28.445  1.00  0.00     0.007 A 
ENDBRANCH  15  16
ENDBRANCH   8  15
ENDBRANCH   5   6
ENDBRANCH   1   5
BRANCH   2  22
HETATM   22  N   UNL     1      -3.153   1.292 -31.029  1.00  0.00    -0.249 N 
HETATM   23  C   UNL     1      -3.780   0.368 -31.855  1.00  0.00     0.339 C 
HETATM   24  N   UNL     1      -3.192  -0.873 -31.764  1.00  0.00    -0.308 N 
HETATM   25  O   UNL     1      -4.714   0.697 -32.580  1.00  0.00    -0.245 OA
HETATM   26  H   UNL     1      -2.333  -0.911 -31.233  1.00  0.00     0.170 HD
HETATM   27  H   UNL     1      -2.728   0.982 -30.159  1.00  0.00     0.192 HD
BRANCH  24  28
HETATM   28  C   UNL     1      -3.566  -2.052 -32.438  1.00  0.00     0.037 A 
HETATM   29  C   UNL     1      -4.523  -2.098 -33.455  1.00  0.00     0.045 A 
HETATM   30  C   UNL     1      -4.843  -3.310 -34.094  1.00  0.00     0.050 A 
HETATM   31  C   UNL     1      -4.200  -4.487 -33.685  1.00  0.00     0.016 A 
HETATM   32  C   UNL     1      -3.249  -4.451 -32.667  1.00  0.00     0.003 A 
HETATM   33  C   UNL     1      -2.936  -3.240 -32.048  1.00  0.00     0.029 A 
BRANCH  30  34
HETATM   34  C   UNL     1      -5.891  -3.357 -35.178  1.00  0.00     0.417 C 
HETATM   35  F   UNL     1      -6.947  -2.526 -34.958  1.00  0.00    -0.166 F 
HETATM   36  F   UNL     1      -5.397  -3.009 -36.401  1.00  0.00    -0.166 F 
HETATM   37  F   UNL     1      -6.418  -4.603 -35.333  1.00  0.00    -0.166 F 
ENDBRANCH  30  34
ENDBRANCH  24  28
ENDBRANCH   2  22
TORSDOF 7
ENDMDL
MODEL 9
REMARK VINA RESULT:      -9.4      3.202      4.700
REMARK  7 active torsions:
REMARK  status: ('A' for Active; 'I' for Inactive)
REMARK    1  A    between atoms: C_4  and  C_5 
REMARK    2  A    between atoms: C_5  and  C_6 
REMARK    3  A    between atoms: C_8  and  C_9 
REMARK    4  A    between atoms: C_9  and  C_10 
REMARK       I    between atoms: C_10  and  N_11 
REMARK    5  A    between atoms: N_11  and  N_12 
REMARK       I    between atoms: N_12  and  C_13 
REMARK       I    between atoms: C_13  and  N_14 
REMARK    6  A    between atoms: N_14  and  C_15 
REMARK    7  A    between atoms: C_17  and  C_18 
ROOT
HETATM    1  C   UNL     1      -4.147   6.308 -29.437  1.00  0.00     0.238 C 
HETATM    2  N   UNL     1      -4.652   5.043 -29.642  1.00  0.00    -0.266 N 
HETATM    3  O   UNL     1      -3.362   6.848 -30.214  1.00  0.00    -0.272 OA
HETATM    4  H   UNL     1      -5.241   4.542 -28.975  1.00  0.00     0.190 HD
ENDROOT
BRANCH   1   5
HETATM    5  C   UNL     1      -4.667   6.951 -28.177  1.00  0.00     0.139 C 
BRANCH   5   6
HETATM    6  C   UNL     1      -3.716   6.753 -26.999  1.00  0.00     0.185 C 
HETATM    7  N   UNL     1      -2.331   6.743 -27.466  1.00  0.00    -0.363 N 
HETATM    8  C   UNL     1      -1.342   7.267 -26.666  1.00  0.00     0.125 C 
HETATM    9  H   UNL     1      -2.088   5.891 -27.972  1.00  0.00     0.161 HD
HETATM   10  N   UNL     1      -1.551   8.064 -25.659  1.00  0.00    -0.159 NA
HETATM   11  N   UNL     1      -2.842   8.385 -25.366  1.00  0.00    -0.244 N 
HETATM   12  C   UNL     1      -3.959   7.865 -25.975  1.00  0.00     0.261 C 
HETATM   13  H   UNL     1      -2.981   9.087 -24.647  1.00  0.00     0.192 HD
HETATM   14  O   UNL     1      -5.087   8.245 -25.661  1.00  0.00    -0.269 OA
BRANCH   8  15
HETATM   15  C   UNL     1       0.101   6.889 -26.980  1.00  0.00     0.118 C 
BRANCH  15  16
HETATM   16  C   UNL     1       0.291   6.521 -28.432  1.00  0.00    -0.051 A 
HETATM   17  C   UNL     1       0.111   7.470 -29.446  1.00  0.00     0.007 A 
HETATM   18  C   UNL     1       0.293   7.117 -30.784  1.00  0.00     0.001 A 
HETATM   19  C   UNL     1       0.654   5.813 -31.121  1.00  0.00     0.000 A 
HETATM   20  C   UNL     1       0.833   4.861 -30.120  1.00  0.00     0.001 A 
HETATM   21  C   UNL     1       0.652   5.212 -28.783  1.00  0.00     0.007 A 
ENDBRANCH  15  16
ENDBRANCH   8  15
ENDBRANCH   5   6
ENDBRANCH   1   5
BRANCH   2  22
HETATM   22  N   UNL     1      -4.264   4.332 -30.786  1.00  0.00    -0.249 N 
HETATM   23  C   UNL     1      -4.581   2.981 -30.814  1.00  0.00     0.339 C 
HETATM   24  N   UNL     1      -4.087   2.368 -31.944  1.00  0.00    -0.308 N 
HETATM   25  O   UNL     1      -5.255   2.469 -29.926  1.00  0.00    -0.245 OA
HETATM   26  H   UNL     1      -3.693   2.988 -32.638  1.00  0.00     0.170 HD
HETATM   27  H   UNL     1      -3.402   4.657 -31.216  1.00  0.00     0.192 HD
BRANCH  24  28
HETATM   28  C   UNL     1      -4.197   1.011 -32.303  1.00  0.00     0.037 A 
HETATM   29  C   UNL     1      -5.144   0.517 -33.204  1.00  0.00     0.045 A 
HETATM   30  C   UNL     1      -5.193  -0.852 -33.524  1.00  0.00     0.050 A 
HETATM   31  C   UNL     1      -4.286  -1.728 -32.912  1.00  0.00     0.016 A 
HETATM   32  C   UNL     1      -3.343  -1.245 -32.007  1.00  0.00     0.003 A 
HETATM   33  C   UNL     1      -3.300   0.116 -31.705  1.00  0.00     0.029 A 
BRANCH  30  34
HETATM   34  C   UNL     1      -6.230  -1.382 -34.483  1.00  0.00     0.417 C 
HETATM   35  F   UNL     1      -7.338  -1.885 -33.872  1.00  0.00    -0.166 F 
HETATM   36  F   UNL     1      -6.684  -0.429 -35.345  1.00  0.00    -0.166 F 
HETATM   37  F   UNL     1      -5.744  -2.386 -35.265  1.00  0.00    -0.166 F 
ENDBRANCH  30  34
ENDBRANCH  24  28
ENDBRANCH   2  22
TORSDOF 7
ENDMDL
MODEL 10
REMARK VINA RESULT:      -9.3      3.224      4.499
REMARK  7 active torsions:
REMARK  status: ('A' for Active; 'I' for Inactive)
REMARK    1  A    between atoms: C_4  and  C_5 
REMARK    2  A    between atoms: C_5  and  C_6 
REMARK    3  A    between atoms: C_8  and  C_9 
REMARK    4  A    between atoms: C_9  and  C_10 
REMARK       I    between atoms: C_10  and  N_11 
REMARK    5  A    between atoms: N_11  and  N_12 
REMARK       I    between atoms: N_12  and  C_13 
REMARK       I    between atoms: C_13  and  N_14 
REMARK    6  A    between atoms: N_14  and  C_15 
REMARK    7  A    between atoms: C_17  and  C_18 
ROOT
HETATM    1  C   UNL     1      -5.245   5.180 -29.036  1.00  0.00     0.238 C 
HETATM    2  N   UNL     1      -5.249   3.814 -29.213  1.00  0.00    -0.266 N 
HETATM    3  O   UNL     1      -4.854   5.964 -29.899  1.00  0.00    -0.272 OA
HETATM    4  H   UNL     1      -5.492   3.139 -28.487  1.00  0.00     0.190 HD
ENDROOT
BRANCH   1   5
HETATM    5  C   UNL     1      -5.775   5.600 -27.689  1.00  0.00     0.139 C 
BRANCH   5   6
HETATM    6  C   UNL     1      -4.845   6.589 -26.991  1.00  0.00     0.185 C 
HETATM    7  N   UNL     1      -3.478   6.426 -27.481  1.00  0.00    -0.363 N 
HETATM    8  C   UNL     1      -2.659   7.527 -27.584  1.00  0.00     0.125 C 
HETATM    9  H   UNL     1      -3.033   5.573 -27.144  1.00  0.00     0.161 HD
HETATM   10  N   UNL     1      -3.075   8.760 -27.589  1.00  0.00    -0.159 NA
HETATM   11  N   UNL     1      -4.414   8.974 -27.462  1.00  0.00    -0.244 N 
HETATM   12  C   UNL     1      -5.366   8.009 -27.229  1.00  0.00     0.261 C 
HETATM   13  H   UNL     1      -4.731   9.932 -27.572  1.00  0.00     0.192 HD
HETATM   14  O   UNL     1      -6.559   8.300 -27.164  1.00  0.00    -0.269 OA
BRANCH   8  15
HETATM   15  C   UNL     1      -1.158   7.288 -27.702  1.00  0.00     0.118 C 
BRANCH  15  16
HETATM   16  C   UNL     1      -0.753   6.884 -29.099  1.00  0.00    -0.051 A 
HETATM   17  C   UNL     1       0.117   5.808 -29.315  1.00  0.00     0.007 A 
HETATM   18  C   UNL     1       0.479   5.443 -30.613  1.00  0.00     0.001 A 
HETATM   19  C   UNL     1      -0.021   6.151 -31.705  1.00  0.00     0.000 A 
HETATM   20  C   UNL     1      -0.884   7.224 -31.501  1.00  0.00     0.001 A 
HETATM   21  C   UNL     1      -1.248   7.590 -30.205  1.00  0.00     0.007 A 
ENDBRANCH  15  16
ENDBRANCH   8  15
ENDBRANCH   5   6
ENDBRANCH   1   5
BRANCH   2  22
HETATM   22  N   UNL     1      -4.795   3.283 -30.428  1.00  0.00    -0.249 N 
HETATM   23  C   UNL     1      -5.690   2.488 -31.131  1.00  0.00     0.339 C 
HETATM   24  N   UNL     1      -5.116   1.959 -32.265  1.00  0.00    -0.308 N 
HETATM   25  O   UNL     1      -6.848   2.347 -30.750  1.00  0.00    -0.245 OA
HETATM   26  H   UNL     1      -4.199   2.317 -32.496  1.00  0.00     0.170 HD
HETATM   27  H   UNL     1      -3.802   3.067 -30.453  1.00  0.00     0.192 HD
BRANCH  24  28
HETATM   28  C   UNL     1      -5.711   1.098 -33.208  1.00  0.00     0.037 A 
HETATM   29  C   UNL     1      -5.398  -0.258 -33.332  1.00  0.00     0.045 A 
HETATM   30  C   UNL     1      -6.038  -1.064 -34.291  1.00  0.00     0.050 A 
HETATM   31  C   UNL     1      -6.989  -0.484 -35.142  1.00  0.00     0.016 A 
HETATM   32  C   UNL     1      -7.303   0.869 -35.030  1.00  0.00     0.003 A 
HETATM   33  C   UNL     1      -6.666   1.654 -34.068  1.00  0.00     0.029 A 
BRANCH  30  34
HETATM   34  C   UNL     1      -5.682  -2.522 -34.433  1.00  0.00     0.417 C 
HETATM   35  F   UNL     1      -6.735  -3.365 -34.246  1.00  0.00    -0.166 F 
HETATM   36  F   UNL     1      -5.183  -2.824 -35.665  1.00  0.00    -0.166 F 
HETATM   37  F   UNL     1      -4.727  -2.910 -33.543  1.00  0.00    -0.166 F 
ENDBRANCH  30  34
ENDBRANCH  24  28
ENDBRANCH   2  22
TORSDOF 7
ENDMDL
