MODEL 1
REMARK VINA RESULT:      -8.3      0.000      0.000
REMARK  4 active torsions:
REMARK  status: ('A' for Active; 'I' for Inactive)
REMARK    1  A    between atoms: C_9  and  N_10 
REMARK    2  A    between atoms: N_10  and  C_12 
REMARK    3  A    between atoms: C_12  and  C_13 
REMARK    4  A    between atoms: C_14  and  C_15 
ROOT
HETATM    1  C   UNL     1      -7.121   3.429 -32.879  1.00  0.00     0.016 A 
HETATM    2  C   UNL     1      -6.647   4.546 -33.634  1.00  0.00     0.096 A 
HETATM    3  N   UNL     1      -7.659   5.176 -34.242  1.00  0.00    -0.174 NA
HETATM    4  N   UNL     1      -8.739   4.431 -33.986  1.00  0.00    -0.288 N 
HETATM    5  H   UNL     1      -9.625   4.706 -34.403  1.00  0.00     0.188 HD
HETATM    6  C   UNL     1      -8.477   3.389 -33.144  1.00  0.00     0.120 A 
ENDROOT
BRANCH   1   7
HETATM    7  C   UNL     1      -6.354   2.522 -31.983  1.00  0.00     0.277 C 
BRANCH   7   8
HETATM    8  N   UNL     1      -5.602   1.418 -32.705  1.00  0.00    -0.065 N 
HETATM    9  H   UNL     1      -5.481   1.706 -33.685  1.00  0.00     0.280 HD
HETATM   10  C   UNL     1      -4.243   1.169 -32.104  1.00  0.00     0.270 C 
BRANCH   8  11
HETATM   11  C   UNL     1      -6.401   0.155 -32.588  1.00  0.00     0.205 C 
HETATM   12  C   UNL     1      -7.348  -0.224 -33.784  1.00  0.00     0.008 C 
HETATM   13  C   UNL     1      -8.832  -0.135 -33.403  1.00  0.00     0.020 C 
HETATM   14  C   UNL     1      -7.129   0.393 -35.166  1.00  0.00     0.020 C 
HETATM   15  C   UNL     1      -6.808  -1.684 -33.657  1.00  0.00     0.137 C 
HETATM   16  C   UNL     1      -5.618  -1.169 -32.824  1.00  0.00     0.049 C 
HETATM   17  O   UNL     1      -6.303  -2.315 -34.850  1.00  0.00    -0.385 OA
HETATM   18  C   UNL     1      -4.460  -1.351 -33.810  1.00  0.00     0.035 C 
HETATM   19  C   UNL     1      -4.895  -2.515 -34.696  1.00  0.00     0.168 C 
ENDBRANCH   8  11
ENDBRANCH   7   8
ENDBRANCH   1   7
BRANCH   2  20
HETATM   20  C   UNL     1      -5.287   5.061 -33.733  1.00  0.00    -0.002 A 
HETATM   21  C   UNL     1      -4.716   5.760 -32.666  1.00  0.00     0.053 A 
HETATM   22  C   UNL     1      -3.425   6.276 -32.783  1.00  0.00     0.103 A 
HETATM   23  C   UNL     1      -2.702   6.109 -33.966  1.00  0.00     0.102 A 
HETATM   24  O   UNL     1      -2.937   6.953 -31.696  1.00  0.00    -0.346 OA
HETATM   25  O   UNL     1      -1.445   6.616 -34.159  1.00  0.00    -0.346 OA
HETATM   26  C   UNL     1      -3.252   5.380 -35.018  1.00  0.00     0.040 A 
HETATM   27  C   UNL     1      -1.087   7.565 -33.146  1.00  0.00     0.202 C 
HETATM   28  C   UNL     1      -1.509   7.079 -31.768  1.00  0.00     0.202 C 
HETATM   29  C   UNL     1      -4.541   4.854 -34.901  1.00  0.00     0.017 A 
ENDBRANCH   2  20
TORSDOF 4
ENDMDL
MODEL 2
REMARK VINA RESULT:      -8.3      2.120      7.385
REMARK  4 active torsions:
REMARK  status: ('A' for Active; 'I' for Inactive)
REMARK    1  A    between atoms: C_9  and  N_10 
REMARK    2  A    between atoms: N_10  and  C_12 
REMARK    3  A    between atoms: C_12  and  C_13 
REMARK    4  A    between atoms: C_14  and  C_15 
ROOT
HETATM    1  C   UNL     1      -7.872   1.483 -32.842  1.00  0.00     0.016 A 
HETATM    2  C   UNL     1      -7.717   0.535 -33.900  1.00  0.00     0.096 A 
HETATM    3  N   UNL     1      -8.551   0.807 -34.910  1.00  0.00    -0.174 NA
HETATM    4  N   UNL     1      -9.301   1.827 -34.480  1.00  0.00    -0.288 N 
HETATM    5  H   UNL     1     -10.046   2.167 -35.084  1.00  0.00     0.188 HD
HETATM    6  C   UNL     1      -8.912   2.293 -33.258  1.00  0.00     0.120 A 
ENDROOT
BRANCH   1   7
HETATM    7  C   UNL     1      -7.084   1.607 -31.585  1.00  0.00     0.277 C 
BRANCH   7   8
HETATM    8  N   UNL     1      -6.908   3.034 -31.096  1.00  0.00    -0.065 N 
HETATM    9  H   UNL     1      -7.269   3.665 -31.824  1.00  0.00     0.280 HD
HETATM   10  C   UNL     1      -7.660   3.294 -29.817  1.00  0.00     0.270 C 
BRANCH   8  11
HETATM   11  C   UNL     1      -5.450   3.262 -30.834  1.00  0.00     0.205 C 
HETATM   12  C   UNL     1      -4.499   3.420 -32.075  1.00  0.00     0.008 C 
HETATM   13  C   UNL     1      -3.524   2.244 -32.217  1.00  0.00     0.020 C 
HETATM   14  C   UNL     1      -5.074   3.785 -33.445  1.00  0.00     0.020 C 
HETATM   15  C   UNL     1      -3.842   4.625 -31.330  1.00  0.00     0.137 C 
HETATM   16  C   UNL     1      -5.057   4.698 -30.383  1.00  0.00     0.049 C 
HETATM   17  O   UNL     1      -3.734   5.872 -32.044  1.00  0.00    -0.385 OA
HETATM   18  C   UNL     1      -5.729   5.991 -30.854  1.00  0.00     0.035 C 
HETATM   19  C   UNL     1      -4.583   6.833 -31.410  1.00  0.00     0.168 C 
ENDBRANCH   8  11
ENDBRANCH   7   8
ENDBRANCH   1   7
BRANCH   2  20
HETATM   20  C   UNL     1      -6.765  -0.563 -34.001  1.00  0.00    -0.002 A 
HETATM   21  C   UNL     1      -7.196  -1.844 -34.356  1.00  0.00     0.053 A 
HETATM   22  C   UNL     1      -6.282  -2.895 -34.418  1.00  0.00     0.103 A 
HETATM   23  C   UNL     1      -4.936  -2.679 -34.115  1.00  0.00     0.102 A 
HETATM   24  O   UNL     1      -6.783  -4.121 -34.769  1.00  0.00    -0.346 OA
HETATM   25  O   UNL     1      -3.992  -3.672 -34.126  1.00  0.00    -0.346 OA
HETATM   26  C   UNL     1      -4.494  -1.397 -33.798  1.00  0.00     0.040 A 
HETATM   27  C   UNL     1      -4.584  -4.975 -34.190  1.00  0.00     0.202 C 
HETATM   28  C   UNL     1      -5.733  -5.006 -35.187  1.00  0.00     0.202 C 
HETATM   29  C   UNL     1      -5.405  -0.340 -33.743  1.00  0.00     0.017 A 
ENDBRANCH   2  20
TORSDOF 4
ENDMDL
MODEL 3
REMARK VINA RESULT:      -8.2      1.770      7.334
REMARK  4 active torsions:
REMARK  status: ('A' for Active; 'I' for Inactive)
REMARK    1  A    between atoms: C_9  and  N_10 
REMARK    2  A    between atoms: N_10  and  C_12 
REMARK    3  A    between atoms: C_12  and  C_13 
REMARK    4  A    between atoms: C_14  and  C_15 
ROOT
HETATM    1  C   UNL     1      -6.475   2.314 -32.125  1.00  0.00     0.016 A 
HETATM    2  C   UNL     1      -6.976   0.977 -32.067  1.00  0.00     0.096 A 
HETATM    3  N   UNL     1      -8.059   0.907 -31.284  1.00  0.00    -0.174 NA
HETATM    4  N   UNL     1      -8.193   2.131 -30.762  1.00  0.00    -0.288 N 
HETATM    5  H   UNL     1      -8.938   2.289 -30.088  1.00  0.00     0.188 HD
HETATM    6  C   UNL     1      -7.288   3.022 -31.261  1.00  0.00     0.120 A 
ENDROOT
BRANCH   1   7
HETATM    7  C   UNL     1      -5.355   2.850 -32.947  1.00  0.00     0.277 C 
BRANCH   7   8
HETATM    8  N   UNL     1      -4.158   3.323 -32.141  1.00  0.00    -0.065 N 
HETATM    9  H   UNL     1      -4.490   4.020 -31.461  1.00  0.00     0.280 HD
HETATM   10  C   UNL     1      -3.495   2.196 -31.393  1.00  0.00     0.270 C 
BRANCH   8  11
HETATM   11  C   UNL     1      -3.155   3.904 -33.092  1.00  0.00     0.205 C 
HETATM   12  C   UNL     1      -3.464   5.317 -33.706  1.00  0.00     0.008 C 
HETATM   13  C   UNL     1      -3.740   5.250 -35.214  1.00  0.00     0.020 C 
HETATM   14  C   UNL     1      -4.478   6.246 -33.034  1.00  0.00     0.020 C 
HETATM   15  C   UNL     1      -1.978   5.694 -33.410  1.00  0.00     0.137 C 
HETATM   16  C   UNL     1      -1.870   4.496 -32.445  1.00  0.00     0.049 C 
HETATM   17  O   UNL     1      -1.731   6.908 -32.674  1.00  0.00    -0.385 OA
HETATM   18  C   UNL     1      -1.805   5.207 -31.089  1.00  0.00     0.035 C 
HETATM   19  C   UNL     1      -1.176   6.562 -31.401  1.00  0.00     0.168 C 
ENDBRANCH   8  11
ENDBRANCH   7   8
ENDBRANCH   1   7
BRANCH   2  20
HETATM   20  C   UNL     1      -6.499  -0.201 -32.779  1.00  0.00    -0.002 A 
HETATM   21  C   UNL     1      -5.339  -0.859 -32.360  1.00  0.00     0.053 A 
HETATM   22  C   UNL     1      -4.872  -1.968 -33.066  1.00  0.00     0.103 A 
HETATM   23  C   UNL     1      -5.551  -2.418 -34.201  1.00  0.00     0.102 A 
HETATM   24  O   UNL     1      -3.727  -2.555 -32.596  1.00  0.00    -0.346 OA
HETATM   25  O   UNL     1      -5.130  -3.478 -34.959  1.00  0.00    -0.346 OA
HETATM   26  C   UNL     1      -6.728  -1.789 -34.601  1.00  0.00     0.040 A 
HETATM   27  C   UNL     1      -3.791  -3.873 -34.635  1.00  0.00     0.202 C 
HETATM   28  C   UNL     1      -3.571  -3.878 -33.130  1.00  0.00     0.202 C 
HETATM   29  C   UNL     1      -7.203  -0.685 -33.890  1.00  0.00     0.017 A 
ENDBRANCH   2  20
TORSDOF 4
ENDMDL
MODEL 4
REMARK VINA RESULT:      -8.2      4.152      6.863
REMARK  4 active torsions:
REMARK  status: ('A' for Active; 'I' for Inactive)
REMARK    1  A    between atoms: C_9  and  N_10 
REMARK    2  A    between atoms: N_10  and  C_12 
REMARK    3  A    between atoms: C_12  and  C_13 
REMARK    4  A    between atoms: C_14  and  C_15 
ROOT
HETATM    1  C   UNL     1      -6.797   2.431 -31.468  1.00  0.00     0.016 A 
HETATM    2  C   UNL     1      -6.135   1.199 -31.172  1.00  0.00     0.096 A 
HETATM    3  N   UNL     1      -6.037   1.015 -29.851  1.00  0.00    -0.174 NA
HETATM    4  N   UNL     1      -6.516   2.137 -29.305  1.00  0.00    -0.288 N 
HETATM    5  H   UNL     1      -6.489   2.231 -28.292  1.00  0.00     0.188 HD
HETATM    6  C   UNL     1      -7.017   3.005 -30.230  1.00  0.00     0.120 A 
ENDROOT
BRANCH   1   7
HETATM    7  C   UNL     1      -7.196   2.974 -32.794  1.00  0.00     0.277 C 
BRANCH   7   8
HETATM    8  N   UNL     1      -8.627   3.481 -32.858  1.00  0.00    -0.065 N 
HETATM    9  H   UNL     1      -9.093   3.223 -31.978  1.00  0.00     0.280 HD
HETATM   10  C   UNL     1      -8.694   4.977 -33.019  1.00  0.00     0.270 C 
BRANCH   8  11
HETATM   11  C   UNL     1      -9.292   2.854 -34.046  1.00  0.00     0.205 C 
HETATM   12  C   UNL     1      -9.634   1.322 -33.969  1.00  0.00     0.008 C 
HETATM   13  C   UNL     1      -8.791   0.486 -34.940  1.00  0.00     0.020 C 
HETATM   14  C   UNL     1      -9.715   0.617 -32.613  1.00  0.00     0.020 C 
HETATM   15  C   UNL     1     -11.030   1.674 -34.575  1.00  0.00     0.137 C 
HETATM   16  C   UNL     1     -10.809   3.157 -34.213  1.00  0.00     0.049 C 
HETATM   17  O   UNL     1     -12.199   1.196 -33.881  1.00  0.00    -0.385 OA
HETATM   18  C   UNL     1     -11.809   3.340 -33.068  1.00  0.00     0.035 C 
HETATM   19  C   UNL     1     -12.909   2.322 -33.359  1.00  0.00     0.168 C 
ENDBRANCH   8  11
ENDBRANCH   7   8
ENDBRANCH   1   7
BRANCH   2  20
HETATM   20  C   UNL     1      -5.662   0.179 -32.100  1.00  0.00    -0.002 A 
HETATM   21  C   UNL     1      -6.554  -0.749 -32.645  1.00  0.00     0.053 A 
HETATM   22  C   UNL     1      -6.086  -1.741 -33.508  1.00  0.00     0.103 A 
HETATM   23  C   UNL     1      -4.728  -1.820 -33.821  1.00  0.00     0.102 A 
HETATM   24  O   UNL     1      -7.020  -2.615 -33.997  1.00  0.00    -0.346 OA
HETATM   25  O   UNL     1      -4.197  -2.786 -34.634  1.00  0.00    -0.346 OA
HETATM   26  C   UNL     1      -3.841  -0.875 -33.310  1.00  0.00     0.040 A 
HETATM   27  C   UNL     1      -5.125  -3.851 -34.878  1.00  0.00     0.202 C 
HETATM   28  C   UNL     1      -6.520  -3.311 -35.148  1.00  0.00     0.202 C 
HETATM   29  C   UNL     1      -4.307   0.125 -32.454  1.00  0.00     0.017 A 
ENDBRANCH   2  20
TORSDOF 4
ENDMDL
MODEL 5
REMARK VINA RESULT:      -8.1      3.350      5.734
REMARK  4 active torsions:
REMARK  status: ('A' for Active; 'I' for Inactive)
REMARK    1  A    between atoms: C_9  and  N_10 
REMARK    2  A    between atoms: N_10  and  C_12 
REMARK    3  A    between atoms: C_12  and  C_13 
REMARK    4  A    between atoms: C_14  and  C_15 
ROOT
HETATM    1  C   UNL     1      -5.992   3.334 -32.835  1.00  0.00     0.016 A 
HETATM    2  C   UNL     1      -7.124   4.023 -33.369  1.00  0.00     0.096 A 
HETATM    3  N   UNL     1      -6.742   5.006 -34.192  1.00  0.00    -0.174 NA
HETATM    4  N   UNL     1      -5.407   5.030 -34.111  1.00  0.00    -0.288 N 
HETATM    5  H   UNL     1      -4.905   5.747 -34.629  1.00  0.00     0.188 HD
HETATM    6  C   UNL     1      -4.905   4.025 -33.337  1.00  0.00     0.120 A 
ENDROOT
BRANCH   1   7
HETATM    7  C   UNL     1      -5.966   2.128 -31.964  1.00  0.00     0.277 C 
BRANCH   7   8
HETATM    8  N   UNL     1      -5.306   0.914 -32.596  1.00  0.00    -0.065 N 
HETATM    9  H   UNL     1      -5.037   1.165 -33.557  1.00  0.00     0.280 HD
HETATM   10  C   UNL     1      -4.074   0.481 -31.846  1.00  0.00     0.270 C 
BRANCH   8  11
HETATM   11  C   UNL     1      -6.289  -0.218 -32.571  1.00  0.00     0.205 C 
HETATM   12  C   UNL     1      -7.344  -0.297 -33.733  1.00  0.00     0.008 C 
HETATM   13  C   UNL     1      -8.773  -0.032 -33.243  1.00  0.00     0.020 C 
HETATM   14  C   UNL     1      -7.100   0.447 -35.047  1.00  0.00     0.020 C 
HETATM   15  C   UNL     1      -7.038  -1.826 -33.813  1.00  0.00     0.137 C 
HETATM   16  C   UNL     1      -5.739  -1.605 -33.011  1.00  0.00     0.049 C 
HETATM   17  O   UNL     1      -6.700  -2.372 -35.103  1.00  0.00    -0.385 OA
HETATM   18  C   UNL     1      -4.677  -1.836 -34.090  1.00  0.00     0.035 C 
HETATM   19  C   UNL     1      -5.336  -2.802 -35.071  1.00  0.00     0.168 C 
ENDBRANCH   8  11
ENDBRANCH   7   8
ENDBRANCH   1   7
BRANCH   2  20
HETATM   20  C   UNL     1      -8.538   3.731 -33.171  1.00  0.00    -0.002 A 
HETATM   21  C   UNL     1      -9.359   3.430 -34.262  1.00  0.00     0.053 A 
HETATM   22  C   UNL     1     -10.717   3.183 -34.065  1.00  0.00     0.103 A 
HETATM   23  C   UNL     1     -11.268   3.247 -32.783  1.00  0.00     0.102 A 
HETATM   24  O   UNL     1     -11.455   2.899 -35.184  1.00  0.00    -0.346 OA
HETATM   25  O   UNL     1     -12.598   3.047 -32.524  1.00  0.00    -0.346 OA
HETATM   26  C   UNL     1     -10.448   3.510 -31.688  1.00  0.00     0.040 A 
HETATM   27  C   UNL     1     -13.386   3.060 -33.721  1.00  0.00     0.202 C 
HETATM   28  C   UNL     1     -12.703   2.282 -34.835  1.00  0.00     0.202 C 
HETATM   29  C   UNL     1      -9.085   3.748 -31.880  1.00  0.00     0.017 A 
ENDBRANCH   2  20
TORSDOF 4
ENDMDL
MODEL 6
REMARK VINA RESULT:      -8.1      3.870      6.880
REMARK  4 active torsions:
REMARK  status: ('A' for Active; 'I' for Inactive)
REMARK    1  A    between atoms: C_9  and  N_10 
REMARK    2  A    between atoms: N_10  and  C_12 
REMARK    3  A    between atoms: C_12  and  C_13 
REMARK    4  A    between atoms: C_14  and  C_15 
ROOT
HETATM    1  C   UNL     1      -8.633   4.233 -32.658  1.00  0.00     0.016 A 
HETATM    2  C   UNL     1      -9.617   4.483 -33.664  1.00  0.00     0.096 A 
HETATM    3  N   UNL     1      -9.274   5.534 -34.416  1.00  0.00    -0.174 NA
HETATM    4  N   UNL     1      -8.164   6.020 -33.852  1.00  0.00    -0.288 N 
HETATM    5  H   UNL     1      -7.754   6.866 -34.243  1.00  0.00     0.188 HD
HETATM    6  C   UNL     1      -7.718   5.256 -32.814  1.00  0.00     0.120 A 
ENDROOT
BRANCH   1   7
HETATM    7  C   UNL     1      -8.572   3.114 -31.678  1.00  0.00     0.277 C 
BRANCH   7   8
HETATM    8  N   UNL     1      -7.332   2.244 -31.798  1.00  0.00    -0.065 N 
HETATM    9  H   UNL     1      -6.815   2.545 -32.635  1.00  0.00     0.280 HD
HETATM   10  C   UNL     1      -6.429   2.373 -30.599  1.00  0.00     0.270 C 
BRANCH   8  11
HETATM   11  C   UNL     1      -7.772   0.815 -31.899  1.00  0.00     0.205 C 
HETATM   12  C   UNL     1      -8.425   0.344 -33.248  1.00  0.00     0.008 C 
HETATM   13  C   UNL     1      -9.914   0.010 -33.091  1.00  0.00     0.020 C 
HETATM   14  C   UNL     1      -8.206   1.147 -34.532  1.00  0.00     0.020 C 
HETATM   15  C   UNL     1      -7.535  -0.936 -33.151  1.00  0.00     0.137 C 
HETATM   16  C   UNL     1      -6.640  -0.231 -32.111  1.00  0.00     0.049 C 
HETATM   17  O   UNL     1      -6.732  -1.280 -34.297  1.00  0.00    -0.385 OA
HETATM   18  C   UNL     1      -5.361  -0.001 -32.921  1.00  0.00     0.035 C 
HETATM   19  C   UNL     1      -5.353  -1.131 -33.947  1.00  0.00     0.168 C 
ENDBRANCH   8  11
ENDBRANCH   7   8
ENDBRANCH   1   7
BRANCH   2  20
HETATM   20  C   UNL     1     -10.821   3.718 -33.963  1.00  0.00    -0.002 A 
HETATM   21  C   UNL     1     -11.774   3.480 -32.969  1.00  0.00     0.053 A 
HETATM   22  C   UNL     1     -12.907   2.720 -33.257  1.00  0.00     0.103 A 
HETATM   23  C   UNL     1     -13.091   2.183 -34.534  1.00  0.00     0.102 A 
HETATM   24  O   UNL     1     -13.792   2.527 -32.229  1.00  0.00    -0.346 OA
HETATM   25  O   UNL     1     -14.163   1.403 -34.875  1.00  0.00    -0.346 OA
HETATM   26  C   UNL     1     -12.164   2.450 -35.538  1.00  0.00     0.040 A 
HETATM   27  C   UNL     1     -14.899   0.967 -33.725  1.00  0.00     0.202 C 
HETATM   28  C   UNL     1     -15.069   2.098 -32.723  1.00  0.00     0.202 C 
HETATM   29  C   UNL     1     -11.032   3.218 -35.256  1.00  0.00     0.017 A 
ENDBRANCH   2  20
TORSDOF 4
ENDMDL
MODEL 7
REMARK VINA RESULT:      -8.0      4.796      8.518
REMARK  4 active torsions:
REMARK  status: ('A' for Active; 'I' for Inactive)
REMARK    1  A    between atoms: C_9  and  N_10 
REMARK    2  A    between atoms: N_10  and  C_12 
REMARK    3  A    between atoms: C_12  and  C_13 
REMARK    4  A    between atoms: C_14  and  C_15 
ROOT
HETATM    1  C   UNL     1      -0.030   6.265 -29.182  1.00  0.00     0.016 A 
HETATM    2  C   UNL     1      -0.166   5.412 -30.321  1.00  0.00     0.096 A 
HETATM    3  N   UNL     1       0.542   4.288 -30.163  1.00  0.00    -0.174 NA
HETATM    4  N   UNL     1       1.204   4.451 -29.013  1.00  0.00    -0.288 N 
HETATM    5  H   UNL     1       1.852   3.723 -28.722  1.00  0.00     0.188 HD
HETATM    6  C   UNL     1       0.871   5.606 -28.368  1.00  0.00     0.120 A 
ENDROOT
BRANCH   1   7
HETATM    7  C   UNL     1      -0.717   7.556 -28.902  1.00  0.00     0.277 C 
BRANCH   7   8
HETATM    8  N   UNL     1      -2.075   7.410 -28.237  1.00  0.00    -0.065 N 
HETATM    9  H   UNL     1      -2.583   6.656 -28.717  1.00  0.00     0.280 HD
HETATM   10  C   UNL     1      -1.957   7.060 -26.776  1.00  0.00     0.270 C 
BRANCH   8  11
HETATM   11  C   UNL     1      -2.791   8.723 -28.345  1.00  0.00     0.205 C 
HETATM   12  C   UNL     1      -3.452   9.083 -29.725  1.00  0.00     0.008 C 
HETATM   13  C   UNL     1      -2.751  10.259 -30.417  1.00  0.00     0.020 C 
HETATM   14  C   UNL     1      -3.753   7.985 -30.746  1.00  0.00     0.020 C 
HETATM   15  C   UNL     1      -4.706   9.553 -28.921  1.00  0.00     0.137 C 
HETATM   16  C   UNL     1      -4.198   8.785 -27.685  1.00  0.00     0.049 C 
HETATM   17  O   UNL     1      -5.986   9.016 -29.309  1.00  0.00    -0.385 OA
HETATM   18  C   UNL     1      -5.199   7.627 -27.617  1.00  0.00     0.035 C 
HETATM   19  C   UNL     1      -6.471   8.188 -28.247  1.00  0.00     0.168 C 
ENDBRANCH   8  11
ENDBRANCH   7   8
ENDBRANCH   1   7
BRANCH   2  20
HETATM   20  C   UNL     1      -0.993   5.607 -31.505  1.00  0.00    -0.002 A 
HETATM   21  C   UNL     1      -2.085   4.771 -31.752  1.00  0.00     0.053 A 
HETATM   22  C   UNL     1      -2.851   4.946 -32.904  1.00  0.00     0.103 A 
HETATM   23  C   UNL     1      -2.525   5.946 -33.823  1.00  0.00     0.102 A 
HETATM   24  O   UNL     1      -3.902   4.084 -33.076  1.00  0.00    -0.346 OA
HETATM   25  O   UNL     1      -3.214   6.151 -34.988  1.00  0.00    -0.346 OA
HETATM   26  C   UNL     1      -1.461   6.806 -33.564  1.00  0.00     0.040 A 
HETATM   27  C   UNL     1      -4.097   5.063 -35.290  1.00  0.00     0.202 C 
HETATM   28  C   UNL     1      -4.831   4.593 -34.044  1.00  0.00     0.202 C 
HETATM   29  C   UNL     1      -0.697   6.640 -32.406  1.00  0.00     0.017 A 
ENDBRANCH   2  20
TORSDOF 4
ENDMDL
MODEL 8
REMARK VINA RESULT:      -7.9      2.407      3.510
REMARK  4 active torsions:
REMARK  status: ('A' for Active; 'I' for Inactive)
REMARK    1  A    between atoms: C_9  and  N_10 
REMARK    2  A    between atoms: N_10  and  C_12 
REMARK    3  A    between atoms: C_12  and  C_13 
REMARK    4  A    between atoms: C_14  and  C_15 
ROOT
HETATM    1  C   UNL     1      -4.074   4.650 -33.400  1.00  0.00     0.016 A 
HETATM    2  C   UNL     1      -2.883   5.435 -33.308  1.00  0.00     0.096 A 
HETATM    3  N   UNL     1      -2.638   6.068 -34.461  1.00  0.00    -0.174 NA
HETATM    4  N   UNL     1      -3.572   5.625 -35.308  1.00  0.00    -0.288 N 
HETATM    5  H   UNL     1      -3.540   5.947 -36.273  1.00  0.00     0.188 HD
HETATM    6  C   UNL     1      -4.479   4.798 -34.713  1.00  0.00     0.120 A 
ENDROOT
BRANCH   1   7
HETATM    7  C   UNL     1      -4.756   3.871 -32.331  1.00  0.00     0.277 C 
BRANCH   7   8
HETATM    8  N   UNL     1      -4.429   2.388 -32.332  1.00  0.00    -0.065 N 
HETATM    9  H   UNL     1      -4.150   2.126 -33.287  1.00  0.00     0.280 HD
HETATM   10  C   UNL     1      -3.301   2.054 -31.391  1.00  0.00     0.270 C 
BRANCH   8  11
HETATM   11  C   UNL     1      -5.648   1.640 -31.883  1.00  0.00     0.205 C 
HETATM   12  C   UNL     1      -6.873   1.581 -32.865  1.00  0.00     0.008 C 
HETATM   13  C   UNL     1      -8.080   2.370 -32.341  1.00  0.00     0.020 C 
HETATM   14  C   UNL     1      -6.679   1.860 -34.357  1.00  0.00     0.020 C 
HETATM   15  C   UNL     1      -6.986   0.062 -32.521  1.00  0.00     0.137 C 
HETATM   16  C   UNL     1      -5.555   0.089 -31.947  1.00  0.00     0.049 C 
HETATM   17  O   UNL     1      -7.028  -0.869 -33.621  1.00  0.00    -0.385 OA
HETATM   18  C   UNL     1      -4.790  -0.711 -33.006  1.00  0.00     0.035 C 
HETATM   19  C   UNL     1      -5.834  -1.657 -33.594  1.00  0.00     0.168 C 
ENDBRANCH   8  11
ENDBRANCH   7   8
ENDBRANCH   1   7
BRANCH   2  20
HETATM   20  C   UNL     1      -2.024   5.646 -32.149  1.00  0.00    -0.002 A 
HETATM   21  C   UNL     1      -2.489   6.370 -31.047  1.00  0.00     0.053 A 
HETATM   22  C   UNL     1      -1.649   6.593 -29.956  1.00  0.00     0.103 A 
HETATM   23  C   UNL     1      -0.339   6.109 -29.963  1.00  0.00     0.102 A 
HETATM   24  O   UNL     1      -2.176   7.315 -28.917  1.00  0.00    -0.346 OA
HETATM   25  O   UNL     1       0.547   6.320 -28.940  1.00  0.00    -0.346 OA
HETATM   26  C   UNL     1       0.117   5.355 -31.042  1.00  0.00     0.040 A 
HETATM   27  C   UNL     1       0.083   7.319 -28.024  1.00  0.00     0.202 C 
HETATM   28  C   UNL     1      -1.397   7.141 -27.724  1.00  0.00     0.202 C 
HETATM   29  C   UNL     1      -0.725   5.121 -32.132  1.00  0.00     0.017 A 
ENDBRANCH   2  20
TORSDOF 4
ENDMDL
MODEL 9
REMARK VINA RESULT:      -7.9      1.740      2.946
REMARK  4 active torsions:
REMARK  status: ('A' for Active; 'I' for Inactive)
REMARK    1  A    between atoms: C_9  and  N_10 
REMARK    2  A    between atoms: N_10  and  C_12 
REMARK    3  A    between atoms: C_12  and  C_13 
REMARK    4  A    between atoms: C_14  and  C_15 
ROOT
HETATM    1  C   UNL     1      -7.059   3.096 -31.512  1.00  0.00     0.016 A 
HETATM    2  C   UNL     1      -6.065   3.930 -30.914  1.00  0.00     0.096 A 
HETATM    3  N   UNL     1      -6.058   3.786 -29.584  1.00  0.00    -0.174 NA
HETATM    4  N   UNL     1      -7.084   2.973 -29.315  1.00  0.00    -0.288 N 
HETATM    5  H   UNL     1      -7.295   2.767 -28.341  1.00  0.00     0.188 HD
HETATM    6  C   UNL     1      -7.698   2.503 -30.439  1.00  0.00     0.120 A 
ENDROOT
BRANCH   1   7
HETATM    7  C   UNL     1      -7.339   2.876 -32.957  1.00  0.00     0.277 C 
BRANCH   7   8
HETATM    8  N   UNL     1      -7.532   1.420 -33.343  1.00  0.00    -0.065 N 
HETATM    9  H   UNL     1      -7.855   0.912 -32.508  1.00  0.00     0.280 HD
HETATM   10  C   UNL     1      -8.554   1.252 -34.436  1.00  0.00     0.270 C 
BRANCH   8  11
HETATM   11  C   UNL     1      -6.222   0.892 -33.845  1.00  0.00     0.205 C 
HETATM   12  C   UNL     1      -5.326   0.081 -32.839  1.00  0.00     0.008 C 
HETATM   13  C   UNL     1      -4.035   0.825 -32.477  1.00  0.00     0.020 C 
HETATM   14  C   UNL     1      -5.942  -0.532 -31.580  1.00  0.00     0.020 C 
HETATM   15  C   UNL     1      -5.093  -0.951 -33.989  1.00  0.00     0.137 C 
HETATM   16  C   UNL     1      -6.301  -0.371 -34.751  1.00  0.00     0.049 C 
HETATM   17  O   UNL     1      -5.349  -2.340 -33.700  1.00  0.00    -0.385 OA
HETATM   18  C   UNL     1      -7.321  -1.504 -34.607  1.00  0.00     0.035 C 
HETATM   19  C   UNL     1      -6.471  -2.765 -34.479  1.00  0.00     0.168 C 
ENDBRANCH   8  11
ENDBRANCH   7   8
ENDBRANCH   1   7
BRANCH   2  20
HETATM   20  C   UNL     1      -5.093   4.794 -31.571  1.00  0.00    -0.002 A 
HETATM   21  C   UNL     1      -4.094   4.248 -32.382  1.00  0.00     0.053 A 
HETATM   22  C   UNL     1      -3.149   5.081 -32.981  1.00  0.00     0.103 A 
HETATM   23  C   UNL     1      -3.186   6.460 -32.765  1.00  0.00     0.102 A 
HETATM   24  O   UNL     1      -2.200   4.469 -33.758  1.00  0.00    -0.346 OA
HETATM   25  O   UNL     1      -2.272   7.330 -33.296  1.00  0.00    -0.346 OA
HETATM   26  C   UNL     1      -4.202   7.013 -31.988  1.00  0.00     0.040 A 
HETATM   27  C   UNL     1      -1.133   6.649 -33.837  1.00  0.00     0.202 C 
HETATM   28  C   UNL     1      -1.554   5.417 -34.621  1.00  0.00     0.202 C 
HETATM   29  C   UNL     1      -5.155   6.183 -31.394  1.00  0.00     0.017 A 
ENDBRANCH   2  20
TORSDOF 4
ENDMDL
MODEL 10
REMARK VINA RESULT:      -7.9      3.933      6.910
REMARK  4 active torsions:
REMARK  status: ('A' for Active; 'I' for Inactive)
REMARK    1  A    between atoms: C_9  and  N_10 
REMARK    2  A    between atoms: N_10  and  C_12 
REMARK    3  A    between atoms: C_12  and  C_13 
REMARK    4  A    between atoms: C_14  and  C_15 
ROOT
HETATM    1  C   UNL     1      -6.755   2.139 -32.035  1.00  0.00     0.016 A 
HETATM    2  C   UNL     1      -5.609   1.566 -32.668  1.00  0.00     0.096 A 
HETATM    3  N   UNL     1      -4.624   2.464 -32.776  1.00  0.00    -0.174 NA
HETATM    4  N   UNL     1      -5.147   3.612 -32.332  1.00  0.00    -0.288 N 
HETATM    5  H   UNL     1      -4.574   4.452 -32.374  1.00  0.00     0.188 HD
HETATM    6  C   UNL     1      -6.412   3.464 -31.844  1.00  0.00     0.120 A 
ENDROOT
BRANCH   1   7
HETATM    7  C   UNL     1      -8.024   1.472 -31.634  1.00  0.00     0.277 C 
BRANCH   7   8
HETATM    8  N   UNL     1      -9.059   1.381 -32.742  1.00  0.00    -0.065 N 
HETATM    9  H   UNL     1      -8.597   1.623 -33.628  1.00  0.00     0.280 HD
HETATM   10  C   UNL     1      -9.640  -0.004 -32.864  1.00  0.00     0.270 C 
BRANCH   8  11
HETATM   11  C   UNL     1     -10.175   2.327 -32.417  1.00  0.00     0.205 C 
HETATM   12  C   UNL     1     -10.058   3.804 -32.943  1.00  0.00     0.008 C 
HETATM   13  C   UNL     1      -9.870   4.815 -31.805  1.00  0.00     0.020 C 
HETATM   14  C   UNL     1      -9.109   4.139 -34.096  1.00  0.00     0.020 C 
HETATM   15  C   UNL     1     -11.555   3.695 -33.375  1.00  0.00     0.137 C 
HETATM   16  C   UNL     1     -11.474   2.160 -33.258  1.00  0.00     0.049 C 
HETATM   17  O   UNL     1     -11.884   4.041 -34.735  1.00  0.00    -0.385 OA
HETATM   18  C   UNL     1     -11.530   1.742 -34.730  1.00  0.00     0.035 C 
HETATM   19  C   UNL     1     -12.319   2.858 -35.411  1.00  0.00     0.168 C 
ENDBRANCH   8  11
ENDBRANCH   7   8
ENDBRANCH   1   7
BRANCH   2  20
HETATM   20  C   UNL     1      -5.408   0.190 -33.103  1.00  0.00    -0.002 A 
HETATM   21  C   UNL     1      -4.436  -0.610 -32.495  1.00  0.00     0.053 A 
HETATM   22  C   UNL     1      -4.231  -1.916 -32.940  1.00  0.00     0.103 A 
HETATM   23  C   UNL     1      -4.982  -2.427 -34.001  1.00  0.00     0.102 A 
HETATM   24  O   UNL     1      -3.257  -2.635 -32.297  1.00  0.00    -0.346 OA
HETATM   25  O   UNL     1      -4.809  -3.687 -34.508  1.00  0.00    -0.346 OA
HETATM   26  C   UNL     1      -5.977  -1.647 -34.585  1.00  0.00     0.040 A 
HETATM   27  C   UNL     1      -3.601  -4.296 -34.035  1.00  0.00     0.202 C 
HETATM   28  C   UNL     1      -3.405  -4.040 -32.549  1.00  0.00     0.202 C 
HETATM   29  C   UNL     1      -6.193  -0.342 -34.136  1.00  0.00     0.017 A 
ENDBRANCH   2  20
TORSDOF 4
ENDMDL
