MODEL 1
REMARK VINA RESULT:      -8.7      0.000      0.000
REMARK  7 active torsions:
REMARK  status: ('A' for Active; 'I' for Inactive)
REMARK    1  A    between atoms: C_2  and  N_3 
REMARK    2  A    between atoms: C_2  and  C_19 
REMARK       I    between atoms: N_3  and  C_4 
REMARK       I    between atoms: C_4  and  N_5 
REMARK    3  A    between atoms: N_5  and  C_6 
REMARK    4  A    between atoms: N_8  and  C_9 
REMARK    5  A    between atoms: C_9  and  C_10 
REMARK    6  A    between atoms: C_19  and  C_20 
REMARK    7  A    between atoms: C_23  and  O_24 
ROOT
HETATM    1  N   UNL     1      -4.655   1.485 -32.533  1.00  0.00    -0.338 N 
HETATM    2  C   UNL     1      -5.774   2.236 -32.368  1.00  0.00     0.322 C 
HETATM    3  N   UNL     1      -5.704   3.542 -32.754  1.00  0.00    -0.292 N 
HETATM    4  O   UNL     1      -6.819   1.810 -31.879  1.00  0.00    -0.247 OA
HETATM    5  H   UNL     1      -3.895   1.962 -33.016  1.00  0.00     0.164 HD
HETATM    6  H   UNL     1      -6.541   4.070 -32.558  1.00  0.00     0.172 HD
ENDROOT
BRANCH   1   7
HETATM    7  C   UNL     1      -4.526   0.061 -32.256  1.00  0.00     0.086 C 
HETATM    8  C   UNL     1      -3.816  -0.167 -30.920  1.00  0.00     0.032 C 
BRANCH   7   9
HETATM    9  C   UNL     1      -3.845  -0.749 -33.379  1.00  0.00     0.063 C 
BRANCH   9  10
HETATM   10  C   UNL     1      -4.683  -1.895 -33.899  1.00  0.00    -0.056 A 
HETATM   11  C   UNL     1      -4.125  -3.176 -34.029  1.00  0.00     0.010 A 
HETATM   12  C   UNL     1      -4.891  -4.241 -34.507  1.00  0.00     0.037 A 
HETATM   13  C   UNL     1      -6.220  -4.023 -34.855  1.00  0.00     0.065 A 
HETATM   14  C   UNL     1      -6.790  -2.761 -34.737  1.00  0.00     0.037 A 
HETATM   15  C   UNL     1      -6.023  -1.697 -34.261  1.00  0.00     0.010 A 
BRANCH  13  16
HETATM   16  O   UNL     1      -7.006  -5.036 -35.321  1.00  0.00    -0.361 OA
HETATM   17  H   UNL     1      -6.428  -5.762 -35.605  1.00  0.00     0.217 HD
ENDBRANCH  13  16
ENDBRANCH   9  10
ENDBRANCH   7   9
ENDBRANCH   1   7
BRANCH   3  18
HETATM   18  C   UNL     1      -4.677   4.197 -33.393  1.00  0.00     0.153 A 
HETATM   19  N   UNL     1      -3.420   4.274 -32.938  1.00  0.00    -0.154 NA
HETATM   20  N   UNL     1      -2.765   4.982 -33.882  1.00  0.00    -0.275 N 
HETATM   21  C   UNL     1      -3.562   5.351 -34.927  1.00  0.00     0.116 A 
HETATM   22  C   UNL     1      -4.813   4.859 -34.636  1.00  0.00     0.071 A 
BRANCH  20  23
HETATM   23  C   UNL     1      -1.328   5.200 -33.765  1.00  0.00     0.189 C 
BRANCH  23  24
HETATM   24  C   UNL     1      -0.967   5.903 -32.482  1.00  0.00    -0.038 A 
HETATM   25  C   UNL     1      -1.514   7.159 -32.180  1.00  0.00     0.009 A 
HETATM   26  C   UNL     1      -1.191   7.805 -30.986  1.00  0.00     0.001 A 
HETATM   27  C   UNL     1      -0.320   7.203 -30.081  1.00  0.00     0.000 A 
HETATM   28  C   UNL     1       0.232   5.956 -30.369  1.00  0.00     0.001 A 
HETATM   29  C   UNL     1      -0.089   5.309 -31.564  1.00  0.00     0.009 A 
ENDBRANCH  23  24
ENDBRANCH  20  23
ENDBRANCH   3  18
TORSDOF 7
ENDMDL
MODEL 2
REMARK VINA RESULT:      -8.6      1.542      1.912
REMARK  7 active torsions:
REMARK  status: ('A' for Active; 'I' for Inactive)
REMARK    1  A    between atoms: C_2  and  N_3 
REMARK    2  A    between atoms: C_2  and  C_19 
REMARK       I    between atoms: N_3  and  C_4 
REMARK       I    between atoms: C_4  and  N_5 
REMARK    3  A    between atoms: N_5  and  C_6 
REMARK    4  A    between atoms: N_8  and  C_9 
REMARK    5  A    between atoms: C_9  and  C_10 
REMARK    6  A    between atoms: C_19  and  C_20 
REMARK    7  A    between atoms: C_23  and  O_24 
ROOT
HETATM    1  N   UNL     1      -6.600   1.563 -32.739  1.00  0.00    -0.338 N 
HETATM    2  C   UNL     1      -7.710   2.026 -33.370  1.00  0.00     0.322 C 
HETATM    3  N   UNL     1      -7.690   3.326 -33.780  1.00  0.00    -0.292 N 
HETATM    4  O   UNL     1      -8.718   1.350 -33.567  1.00  0.00    -0.247 OA
HETATM    5  H   UNL     1      -5.823   2.222 -32.714  1.00  0.00     0.164 HD
HETATM    6  H   UNL     1      -8.557   3.637 -34.191  1.00  0.00     0.172 HD
ENDROOT
BRANCH   1   7
HETATM    7  C   UNL     1      -6.377   0.198 -32.281  1.00  0.00     0.086 C 
HETATM    8  C   UNL     1      -6.346   0.140 -30.753  1.00  0.00     0.032 C 
BRANCH   7   9
HETATM    9  C   UNL     1      -5.123  -0.478 -32.875  1.00  0.00     0.063 C 
BRANCH   9  10
HETATM   10  C   UNL     1      -5.413  -1.777 -33.593  1.00  0.00    -0.056 A 
HETATM   11  C   UNL     1      -4.388  -2.711 -33.803  1.00  0.00     0.010 A 
HETATM   12  C   UNL     1      -4.646  -3.914 -34.463  1.00  0.00     0.037 A 
HETATM   13  C   UNL     1      -5.935  -4.183 -34.912  1.00  0.00     0.065 A 
HETATM   14  C   UNL     1      -6.963  -3.269 -34.716  1.00  0.00     0.037 A 
HETATM   15  C   UNL     1      -6.703  -2.066 -34.058  1.00  0.00     0.010 A 
BRANCH  13  16
HETATM   16  O   UNL     1      -6.232  -5.348 -35.557  1.00  0.00    -0.361 OA
HETATM   17  H   UNL     1      -6.343  -5.152 -36.501  1.00  0.00     0.217 HD
ENDBRANCH  13  16
ENDBRANCH   9  10
ENDBRANCH   7   9
ENDBRANCH   1   7
BRANCH   3  18
HETATM   18  C   UNL     1      -6.650   4.227 -33.738  1.00  0.00     0.153 A 
HETATM   19  N   UNL     1      -5.540   4.146 -34.482  1.00  0.00    -0.154 NA
HETATM   20  N   UNL     1      -4.821   5.233 -34.130  1.00  0.00    -0.275 N 
HETATM   21  C   UNL     1      -5.442   6.006 -33.192  1.00  0.00     0.116 A 
HETATM   22  C   UNL     1      -6.632   5.376 -32.914  1.00  0.00     0.071 A 
BRANCH  20  23
HETATM   23  C   UNL     1      -3.563   5.526 -34.806  1.00  0.00     0.189 C 
BRANCH  23  24
HETATM   24  C   UNL     1      -2.459   5.842 -33.831  1.00  0.00    -0.038 A 
HETATM   25  C   UNL     1      -1.977   7.154 -33.702  1.00  0.00     0.009 A 
HETATM   26  C   UNL     1      -0.965   7.450 -32.788  1.00  0.00     0.001 A 
HETATM   27  C   UNL     1      -0.424   6.441 -31.995  1.00  0.00     0.000 A 
HETATM   28  C   UNL     1      -0.892   5.134 -32.114  1.00  0.00     0.001 A 
HETATM   29  C   UNL     1      -1.904   4.835 -33.028  1.00  0.00     0.009 A 
ENDBRANCH  23  24
ENDBRANCH  20  23
ENDBRANCH   3  18
TORSDOF 7
ENDMDL
MODEL 3
REMARK VINA RESULT:      -8.5      4.403      7.080
REMARK  7 active torsions:
REMARK  status: ('A' for Active; 'I' for Inactive)
REMARK    1  A    between atoms: C_2  and  N_3 
REMARK    2  A    between atoms: C_2  and  C_19 
REMARK       I    between atoms: N_3  and  C_4 
REMARK       I    between atoms: C_4  and  N_5 
REMARK    3  A    between atoms: N_5  and  C_6 
REMARK    4  A    between atoms: N_8  and  C_9 
REMARK    5  A    between atoms: C_9  and  C_10 
REMARK    6  A    between atoms: C_19  and  C_20 
REMARK    7  A    between atoms: C_23  and  O_24 
ROOT
HETATM    1  N   UNL     1      -5.530   0.520 -31.363  1.00  0.00    -0.338 N 
HETATM    2  C   UNL     1      -6.030   0.707 -30.114  1.00  0.00     0.322 C 
HETATM    3  N   UNL     1      -7.134   1.500 -30.003  1.00  0.00    -0.292 N 
HETATM    4  O   UNL     1      -5.534   0.224 -29.098  1.00  0.00    -0.247 OA
HETATM    5  H   UNL     1      -6.093   0.928 -32.108  1.00  0.00     0.164 HD
HETATM    6  H   UNL     1      -7.431   1.654 -29.052  1.00  0.00     0.172 HD
ENDROOT
BRANCH   1   7
HETATM    7  C   UNL     1      -4.408  -0.337 -31.721  1.00  0.00     0.086 C 
HETATM    8  C   UNL     1      -3.120   0.157 -31.060  1.00  0.00     0.032 C 
BRANCH   7   9
HETATM    9  C   UNL     1      -4.204  -0.521 -33.240  1.00  0.00     0.063 C 
BRANCH   9  10
HETATM   10  C   UNL     1      -4.910  -1.730 -33.808  1.00  0.00    -0.056 A 
HETATM   11  C   UNL     1      -4.230  -2.951 -33.933  1.00  0.00     0.010 A 
HETATM   12  C   UNL     1      -4.875  -4.075 -34.455  1.00  0.00     0.037 A 
HETATM   13  C   UNL     1      -6.204  -3.975 -34.853  1.00  0.00     0.065 A 
HETATM   14  C   UNL     1      -6.893  -2.774 -34.742  1.00  0.00     0.037 A 
HETATM   15  C   UNL     1      -6.248  -1.651 -34.221  1.00  0.00     0.010 A 
BRANCH  13  16
HETATM   16  O   UNL     1      -6.872  -5.048 -35.365  1.00  0.00    -0.361 OA
HETATM   17  H   UNL     1      -6.564  -5.846 -34.905  1.00  0.00     0.217 HD
ENDBRANCH  13  16
ENDBRANCH   9  10
ENDBRANCH   7   9
ENDBRANCH   1   7
BRANCH   3  18
HETATM   18  C   UNL     1      -7.892   2.066 -31.003  1.00  0.00     0.153 A 
HETATM   19  N   UNL     1      -8.033   1.559 -32.234  1.00  0.00    -0.154 NA
HETATM   20  N   UNL     1      -8.865   2.420 -32.857  1.00  0.00    -0.275 N 
HETATM   21  C   UNL     1      -9.264   3.454 -32.060  1.00  0.00     0.116 A 
HETATM   22  C   UNL     1      -8.644   3.254 -30.849  1.00  0.00     0.071 A 
BRANCH  20  23
HETATM   23  C   UNL     1      -9.318   2.143 -34.215  1.00  0.00     0.189 C 
BRANCH  23  24
HETATM   24  C   UNL     1     -10.792   1.838 -34.267  1.00  0.00    -0.038 A 
HETATM   25  C   UNL     1     -11.663   2.653 -35.006  1.00  0.00     0.009 A 
HETATM   26  C   UNL     1     -13.027   2.363 -35.067  1.00  0.00     0.001 A 
HETATM   27  C   UNL     1     -13.535   1.255 -34.391  1.00  0.00     0.000 A 
HETATM   28  C   UNL     1     -12.682   0.438 -33.653  1.00  0.00     0.001 A 
HETATM   29  C   UNL     1     -11.317   0.727 -33.589  1.00  0.00     0.009 A 
ENDBRANCH  23  24
ENDBRANCH  20  23
ENDBRANCH   3  18
TORSDOF 7
ENDMDL
MODEL 4
REMARK VINA RESULT:      -8.3      1.160      2.009
REMARK  7 active torsions:
REMARK  status: ('A' for Active; 'I' for Inactive)
REMARK    1  A    between atoms: C_2  and  N_3 
REMARK    2  A    between atoms: C_2  and  C_19 
REMARK       I    between atoms: N_3  and  C_4 
REMARK       I    between atoms: C_4  and  N_5 
REMARK    3  A    between atoms: N_5  and  C_6 
REMARK    4  A    between atoms: N_8  and  C_9 
REMARK    5  A    between atoms: C_9  and  C_10 
REMARK    6  A    between atoms: C_19  and  C_20 
REMARK    7  A    between atoms: C_23  and  O_24 
ROOT
HETATM    1  N   UNL     1      -4.976   1.838 -32.521  1.00  0.00    -0.338 N 
HETATM    2  C   UNL     1      -5.593   2.612 -33.451  1.00  0.00     0.322 C 
HETATM    3  N   UNL     1      -5.218   3.921 -33.513  1.00  0.00    -0.292 N 
HETATM    4  O   UNL     1      -6.471   2.203 -34.208  1.00  0.00    -0.247 OA
HETATM    5  H   UNL     1      -4.222   2.305 -32.018  1.00  0.00     0.164 HD
HETATM    6  H   UNL     1      -5.745   4.465 -34.178  1.00  0.00     0.172 HD
ENDROOT
BRANCH   1   7
HETATM    7  C   UNL     1      -5.169   0.408 -32.326  1.00  0.00     0.086 C 
HETATM    8  C   UNL     1      -5.021   0.040 -30.848  1.00  0.00     0.032 C 
BRANCH   7   9
HETATM    9  C   UNL     1      -4.264  -0.485 -33.201  1.00  0.00     0.063 C 
BRANCH   9  10
HETATM   10  C   UNL     1      -4.971  -1.691 -33.777  1.00  0.00    -0.056 A 
HETATM   11  C   UNL     1      -6.347  -1.642 -34.045  1.00  0.00     0.010 A 
HETATM   12  C   UNL     1      -7.008  -2.751 -34.578  1.00  0.00     0.037 A 
HETATM   13  C   UNL     1      -6.288  -3.911 -34.844  1.00  0.00     0.065 A 
HETATM   14  C   UNL     1      -4.925  -3.981 -34.582  1.00  0.00     0.037 A 
HETATM   15  C   UNL     1      -4.266  -2.873 -34.047  1.00  0.00     0.010 A 
BRANCH  13  16
HETATM   16  O   UNL     1      -6.893  -5.015 -35.369  1.00  0.00    -0.361 OA
HETATM   17  H   UNL     1      -6.282  -5.764 -35.287  1.00  0.00     0.217 HD
ENDBRANCH  13  16
ENDBRANCH   9  10
ENDBRANCH   7   9
ENDBRANCH   1   7
BRANCH   3  18
HETATM   18  C   UNL     1      -4.211   4.562 -32.828  1.00  0.00     0.153 A 
HETATM   19  N   UNL     1      -2.908   4.470 -33.123  1.00  0.00    -0.154 NA
HETATM   20  N   UNL     1      -2.302   5.266 -32.217  1.00  0.00    -0.275 N 
HETATM   21  C   UNL     1      -3.178   5.868 -31.360  1.00  0.00     0.116 A 
HETATM   22  C   UNL     1      -4.427   5.427 -31.729  1.00  0.00     0.071 A 
BRANCH  20  23
HETATM   23  C   UNL     1      -0.862   5.481 -32.282  1.00  0.00     0.189 C 
BRANCH  23  24
HETATM   24  C   UNL     1      -0.293   5.898 -30.951  1.00  0.00    -0.038 A 
HETATM   25  C   UNL     1       0.123   4.933 -30.021  1.00  0.00     0.009 A 
HETATM   26  C   UNL     1       0.664   5.318 -28.793  1.00  0.00     0.001 A 
HETATM   27  C   UNL     1       0.795   6.670 -28.482  1.00  0.00     0.000 A 
HETATM   28  C   UNL     1       0.385   7.638 -29.395  1.00  0.00     0.001 A 
HETATM   29  C   UNL     1      -0.158   7.255 -30.624  1.00  0.00     0.009 A 
ENDBRANCH  23  24
ENDBRANCH  20  23
ENDBRANCH   3  18
TORSDOF 7
ENDMDL
MODEL 5
REMARK VINA RESULT:      -8.2      3.208      8.334
REMARK  7 active torsions:
REMARK  status: ('A' for Active; 'I' for Inactive)
REMARK    1  A    between atoms: C_2  and  N_3 
REMARK    2  A    between atoms: C_2  and  C_19 
REMARK       I    between atoms: N_3  and  C_4 
REMARK       I    between atoms: C_4  and  N_5 
REMARK    3  A    between atoms: N_5  and  C_6 
REMARK    4  A    between atoms: N_8  and  C_9 
REMARK    5  A    between atoms: C_9  and  C_10 
REMARK    6  A    between atoms: C_19  and  C_20 
REMARK    7  A    between atoms: C_23  and  O_24 
ROOT
HETATM    1  N   UNL     1      -6.059   4.272 -30.890  1.00  0.00    -0.338 N 
HETATM    2  C   UNL     1      -6.813   3.819 -29.855  1.00  0.00     0.322 C 
HETATM    3  N   UNL     1      -7.076   2.483 -29.820  1.00  0.00    -0.292 N 
HETATM    4  O   UNL     1      -7.278   4.546 -28.978  1.00  0.00    -0.247 OA
HETATM    5  H   UNL     1      -5.690   3.538 -31.494  1.00  0.00     0.164 HD
HETATM    6  H   UNL     1      -7.686   2.207 -29.066  1.00  0.00     0.172 HD
ENDROOT
BRANCH   1   7
HETATM    7  C   UNL     1      -5.601   5.640 -31.088  1.00  0.00     0.086 C 
HETATM    8  C   UNL     1      -6.007   6.150 -32.472  1.00  0.00     0.032 C 
BRANCH   7   9
HETATM    9  C   UNL     1      -4.090   5.848 -30.854  1.00  0.00     0.063 C 
BRANCH   9  10
HETATM   10  C   UNL     1      -3.251   5.687 -32.101  1.00  0.00    -0.056 A 
HETATM   11  C   UNL     1      -2.719   6.814 -32.745  1.00  0.00     0.010 A 
HETATM   12  C   UNL     1      -1.942   6.676 -33.897  1.00  0.00     0.037 A 
HETATM   13  C   UNL     1      -1.697   5.404 -34.405  1.00  0.00     0.065 A 
HETATM   14  C   UNL     1      -2.217   4.275 -33.784  1.00  0.00     0.037 A 
HETATM   15  C   UNL     1      -2.995   4.416 -32.634  1.00  0.00     0.010 A 
BRANCH  13  16
HETATM   16  O   UNL     1      -0.939   5.223 -35.525  1.00  0.00    -0.361 OA
HETATM   17  H   UNL     1      -1.213   4.392 -35.946  1.00  0.00     0.217 HD
ENDBRANCH  13  16
ENDBRANCH   9  10
ENDBRANCH   7   9
ENDBRANCH   1   7
BRANCH   3  18
HETATM   18  C   UNL     1      -6.593   1.488 -30.640  1.00  0.00     0.153 A 
HETATM   19  N   UNL     1      -6.541   1.558 -31.975  1.00  0.00    -0.154 NA
HETATM   20  N   UNL     1      -5.987   0.386 -32.351  1.00  0.00    -0.275 N 
HETATM   21  C   UNL     1      -5.678  -0.424 -31.297  1.00  0.00     0.116 A 
HETATM   22  C   UNL     1      -6.064   0.263 -30.170  1.00  0.00     0.071 A 
BRANCH  20  23
HETATM   23  C   UNL     1      -5.694   0.135 -33.757  1.00  0.00     0.189 C 
BRANCH  23  24
HETATM   24  C   UNL     1      -5.689  -1.337 -34.078  1.00  0.00    -0.038 A 
HETATM   25  C   UNL     1      -6.888  -2.010 -34.356  1.00  0.00     0.009 A 
HETATM   26  C   UNL     1      -6.883  -3.371 -34.668  1.00  0.00     0.001 A 
HETATM   27  C   UNL     1      -5.680  -4.072 -34.706  1.00  0.00     0.000 A 
HETATM   28  C   UNL     1      -4.482  -3.417 -34.430  1.00  0.00     0.001 A 
HETATM   29  C   UNL     1      -4.485  -2.056 -34.117  1.00  0.00     0.009 A 
ENDBRANCH  23  24
ENDBRANCH  20  23
ENDBRANCH   3  18
TORSDOF 7
ENDMDL
MODEL 6
REMARK VINA RESULT:      -8.1      2.589      9.120
REMARK  7 active torsions:
REMARK  status: ('A' for Active; 'I' for Inactive)
REMARK    1  A    between atoms: C_2  and  N_3 
REMARK    2  A    between atoms: C_2  and  C_19 
REMARK       I    between atoms: N_3  and  C_4 
REMARK       I    between atoms: C_4  and  N_5 
REMARK    3  A    between atoms: N_5  and  C_6 
REMARK    4  A    between atoms: N_8  and  C_9 
REMARK    5  A    between atoms: C_9  and  C_10 
REMARK    6  A    between atoms: C_19  and  C_20 
REMARK    7  A    between atoms: C_23  and  O_24 
ROOT
HETATM    1  N   UNL     1      -4.616   3.702 -32.401  1.00  0.00    -0.338 N 
HETATM    2  C   UNL     1      -5.410   3.743 -31.300  1.00  0.00     0.322 C 
HETATM    3  N   UNL     1      -6.151   2.631 -31.031  1.00  0.00    -0.292 N 
HETATM    4  O   UNL     1      -5.506   4.722 -30.562  1.00  0.00    -0.247 OA
HETATM    5  H   UNL     1      -4.592   2.797 -32.870  1.00  0.00     0.164 HD
HETATM    6  H   UNL     1      -6.765   2.733 -30.237  1.00  0.00     0.172 HD
ENDROOT
BRANCH   1   7
HETATM    7  C   UNL     1      -3.695   4.743 -32.838  1.00  0.00     0.086 C 
HETATM    8  C   UNL     1      -3.994   5.158 -34.279  1.00  0.00     0.032 C 
BRANCH   7   9
HETATM    9  C   UNL     1      -2.203   4.384 -32.674  1.00  0.00     0.063 C 
BRANCH   9  10
HETATM   10  C   UNL     1      -1.462   5.284 -31.710  1.00  0.00    -0.056 A 
HETATM   11  C   UNL     1      -0.061   5.348 -31.740  1.00  0.00     0.010 A 
HETATM   12  C   UNL     1       0.633   6.177 -30.855  1.00  0.00     0.037 A 
HETATM   13  C   UNL     1      -0.080   6.943 -29.939  1.00  0.00     0.065 A 
HETATM   14  C   UNL     1      -1.467   6.891 -29.891  1.00  0.00     0.037 A 
HETATM   15  C   UNL     1      -2.159   6.061 -30.775  1.00  0.00     0.010 A 
BRANCH  13  16
HETATM   16  O   UNL     1       0.557   7.770 -29.060  1.00  0.00    -0.361 OA
HETATM   17  H   UNL     1       1.383   8.071 -29.471  1.00  0.00     0.217 HD
ENDBRANCH  13  16
ENDBRANCH   9  10
ENDBRANCH   7   9
ENDBRANCH   1   7
BRANCH   3  18
HETATM   18  C   UNL     1      -6.134   1.410 -31.666  1.00  0.00     0.153 A 
HETATM   19  N   UNL     1      -6.292   1.234 -32.984  1.00  0.00    -0.154 NA
HETATM   20  N   UNL     1      -6.186  -0.100 -33.158  1.00  0.00    -0.275 N 
HETATM   21  C   UNL     1      -5.958  -0.777 -31.994  1.00  0.00     0.116 A 
HETATM   22  C   UNL     1      -5.923   0.177 -31.006  1.00  0.00     0.071 A 
BRANCH  20  23
HETATM   23  C   UNL     1      -6.225  -0.667 -34.501  1.00  0.00     0.189 C 
BRANCH  23  24
HETATM   24  C   UNL     1      -5.848  -2.125 -34.509  1.00  0.00    -0.038 A 
HETATM   25  C   UNL     1      -4.519  -2.519 -34.293  1.00  0.00     0.009 A 
HETATM   26  C   UNL     1      -4.171  -3.870 -34.286  1.00  0.00     0.001 A 
HETATM   27  C   UNL     1      -5.147  -4.842 -34.495  1.00  0.00     0.000 A 
HETATM   28  C   UNL     1      -6.471  -4.466 -34.712  1.00  0.00     0.001 A 
HETATM   29  C   UNL     1      -6.821  -3.114 -34.720  1.00  0.00     0.009 A 
ENDBRANCH  23  24
ENDBRANCH  20  23
ENDBRANCH   3  18
TORSDOF 7
ENDMDL
MODEL 7
REMARK VINA RESULT:      -8.1      1.815      2.491
REMARK  7 active torsions:
REMARK  status: ('A' for Active; 'I' for Inactive)
REMARK    1  A    between atoms: C_2  and  N_3 
REMARK    2  A    between atoms: C_2  and  C_19 
REMARK       I    between atoms: N_3  and  C_4 
REMARK       I    between atoms: C_4  and  N_5 
REMARK    3  A    between atoms: N_5  and  C_6 
REMARK    4  A    between atoms: N_8  and  C_9 
REMARK    5  A    between atoms: C_9  and  C_10 
REMARK    6  A    between atoms: C_19  and  C_20 
REMARK    7  A    between atoms: C_23  and  O_24 
ROOT
HETATM    1  N   UNL     1      -5.596   1.271 -31.562  1.00  0.00    -0.338 N 
HETATM    2  C   UNL     1      -6.915   1.480 -31.317  1.00  0.00     0.322 C 
HETATM    3  N   UNL     1      -7.311   2.769 -31.119  1.00  0.00    -0.292 N 
HETATM    4  O   UNL     1      -7.749   0.579 -31.244  1.00  0.00    -0.247 OA
HETATM    5  H   UNL     1      -5.045   2.124 -31.660  1.00  0.00     0.164 HD
HETATM    6  H   UNL     1      -8.286   2.865 -30.884  1.00  0.00     0.172 HD
ENDROOT
BRANCH   1   7
HETATM    7  C   UNL     1      -4.968  -0.007 -31.868  1.00  0.00     0.086 C 
HETATM    8  C   UNL     1      -3.693  -0.193 -31.044  1.00  0.00     0.032 C 
BRANCH   7   9
HETATM    9  C   UNL     1      -4.686  -0.237 -33.368  1.00  0.00     0.063 C 
BRANCH   9  10
HETATM   10  C   UNL     1      -5.174  -1.572 -33.882  1.00  0.00    -0.056 A 
HETATM   11  C   UNL     1      -4.274  -2.636 -34.051  1.00  0.00     0.010 A 
HETATM   12  C   UNL     1      -4.716  -3.873 -34.524  1.00  0.00     0.037 A 
HETATM   13  C   UNL     1      -6.062  -4.046 -34.829  1.00  0.00     0.065 A 
HETATM   14  C   UNL     1      -6.968  -3.004 -34.672  1.00  0.00     0.037 A 
HETATM   15  C   UNL     1      -6.525  -1.767 -34.201  1.00  0.00     0.010 A 
BRANCH  13  16
HETATM   16  O   UNL     1      -6.536  -5.239 -35.290  1.00  0.00    -0.361 OA
HETATM   17  H   UNL     1      -7.153  -5.596 -34.630  1.00  0.00     0.217 HD
ENDBRANCH  13  16
ENDBRANCH   9  10
ENDBRANCH   7   9
ENDBRANCH   1   7
BRANCH   3  18
HETATM   18  C   UNL     1      -6.572   3.925 -31.236  1.00  0.00     0.153 A 
HETATM   19  N   UNL     1      -5.332   4.090 -30.758  1.00  0.00    -0.154 NA
HETATM   20  N   UNL     1      -5.000   5.348 -31.115  1.00  0.00    -0.275 N 
HETATM   21  C   UNL     1      -5.986   5.986 -31.812  1.00  0.00     0.116 A 
HETATM   22  C   UNL     1      -7.022   5.088 -31.903  1.00  0.00     0.071 A 
BRANCH  20  23
HETATM   23  C   UNL     1      -3.665   5.860 -30.830  1.00  0.00     0.189 C 
BRANCH  23  24
HETATM   24  C   UNL     1      -2.804   5.911 -32.065  1.00  0.00    -0.038 A 
HETATM   25  C   UNL     1      -2.676   4.783 -32.891  1.00  0.00     0.009 A 
HETATM   26  C   UNL     1      -1.890   4.834 -34.043  1.00  0.00     0.001 A 
HETATM   27  C   UNL     1      -1.225   6.010 -34.383  1.00  0.00     0.000 A 
HETATM   28  C   UNL     1      -1.343   7.137 -33.571  1.00  0.00     0.001 A 
HETATM   29  C   UNL     1      -2.128   7.088 -32.417  1.00  0.00     0.009 A 
ENDBRANCH  23  24
ENDBRANCH  20  23
ENDBRANCH   3  18
TORSDOF 7
ENDMDL
MODEL 8
REMARK VINA RESULT:      -8.0      2.508      3.556
REMARK  7 active torsions:
REMARK  status: ('A' for Active; 'I' for Inactive)
REMARK    1  A    between atoms: C_2  and  N_3 
REMARK    2  A    between atoms: C_2  and  C_19 
REMARK       I    between atoms: N_3  and  C_4 
REMARK       I    between atoms: C_4  and  N_5 
REMARK    3  A    between atoms: N_5  and  C_6 
REMARK    4  A    between atoms: N_8  and  C_9 
REMARK    5  A    between atoms: C_9  and  C_10 
REMARK    6  A    between atoms: C_19  and  C_20 
REMARK    7  A    between atoms: C_23  and  O_24 
ROOT
HETATM    1  N   UNL     1      -7.620   1.152 -32.442  1.00  0.00    -0.338 N 
HETATM    2  C   UNL     1      -8.882   1.445 -32.848  1.00  0.00     0.322 C 
HETATM    3  N   UNL     1      -9.285   2.742 -32.726  1.00  0.00    -0.292 N 
HETATM    4  O   UNL     1      -9.670   0.611 -33.291  1.00  0.00    -0.247 OA
HETATM    5  H   UNL     1      -7.067   1.963 -32.164  1.00  0.00     0.164 HD
HETATM    6  H   UNL     1     -10.247   2.896 -32.987  1.00  0.00     0.172 HD
ENDROOT
BRANCH   1   7
HETATM    7  C   UNL     1      -6.962  -0.143 -32.543  1.00  0.00     0.086 C 
HETATM    8  C   UNL     1      -6.039  -0.375 -31.345  1.00  0.00     0.032 C 
BRANCH   7   9
HETATM    9  C   UNL     1      -6.202  -0.371 -33.867  1.00  0.00     0.063 C 
BRANCH   9  10
HETATM   10  C   UNL     1      -5.863  -1.820 -34.134  1.00  0.00    -0.056 A 
HETATM   11  C   UNL     1      -6.866  -2.719 -34.527  1.00  0.00     0.010 A 
HETATM   12  C   UNL     1      -6.562  -4.059 -34.778  1.00  0.00     0.037 A 
HETATM   13  C   UNL     1      -5.251  -4.499 -34.635  1.00  0.00     0.065 A 
HETATM   14  C   UNL     1      -4.244  -3.626 -34.243  1.00  0.00     0.037 A 
HETATM   15  C   UNL     1      -4.549  -2.287 -33.991  1.00  0.00     0.010 A 
BRANCH  13  16
HETATM   16  O   UNL     1      -4.910  -5.798 -34.874  1.00  0.00    -0.361 OA
HETATM   17  H   UNL     1      -4.340  -5.823 -35.659  1.00  0.00     0.217 HD
ENDBRANCH  13  16
ENDBRANCH   9  10
ENDBRANCH   7   9
ENDBRANCH   1   7
BRANCH   3  18
HETATM   18  C   UNL     1      -8.550   3.840 -32.340  1.00  0.00     0.153 A 
HETATM   19  N   UNL     1      -7.516   4.345 -33.023  1.00  0.00    -0.154 NA
HETATM   20  N   UNL     1      -7.121   5.410 -32.295  1.00  0.00    -0.275 N 
HETATM   21  C   UNL     1      -7.876   5.603 -31.174  1.00  0.00     0.116 A 
HETATM   22  C   UNL     1      -8.811   4.595 -31.172  1.00  0.00     0.071 A 
BRANCH  20  23
HETATM   23  C   UNL     1      -6.050   6.271 -32.781  1.00  0.00     0.189 C 
BRANCH  23  24
HETATM   24  C   UNL     1      -4.723   5.558 -32.810  1.00  0.00    -0.038 A 
HETATM   25  C   UNL     1      -3.964   5.513 -33.989  1.00  0.00     0.009 A 
HETATM   26  C   UNL     1      -2.728   4.866 -34.013  1.00  0.00     0.001 A 
HETATM   27  C   UNL     1      -2.236   4.259 -32.860  1.00  0.00     0.000 A 
HETATM   28  C   UNL     1      -2.980   4.295 -31.682  1.00  0.00     0.001 A 
HETATM   29  C   UNL     1      -4.218   4.941 -31.656  1.00  0.00     0.009 A 
ENDBRANCH  23  24
ENDBRANCH  20  23
ENDBRANCH   3  18
TORSDOF 7
ENDMDL
MODEL 9
REMARK VINA RESULT:      -8.0      4.527      7.898
REMARK  7 active torsions:
REMARK  status: ('A' for Active; 'I' for Inactive)
REMARK    1  A    between atoms: C_2  and  N_3 
REMARK    2  A    between atoms: C_2  and  C_19 
REMARK       I    between atoms: N_3  and  C_4 
REMARK       I    between atoms: C_4  and  N_5 
REMARK    3  A    between atoms: N_5  and  C_6 
REMARK    4  A    between atoms: N_8  and  C_9 
REMARK    5  A    between atoms: C_9  and  C_10 
REMARK    6  A    between atoms: C_19  and  C_20 
REMARK    7  A    between atoms: C_23  and  O_24 
ROOT
HETATM    1  N   UNL     1      -7.642   1.466 -33.345  1.00  0.00    -0.338 N 
HETATM    2  C   UNL     1      -6.960   2.637 -33.262  1.00  0.00     0.322 C 
HETATM    3  N   UNL     1      -7.686   3.785 -33.381  1.00  0.00    -0.292 N 
HETATM    4  O   UNL     1      -5.742   2.711 -33.111  1.00  0.00    -0.247 OA
HETATM    5  H   UNL     1      -8.655   1.571 -33.400  1.00  0.00     0.164 HD
HETATM    6  H   UNL     1      -7.127   4.624 -33.371  1.00  0.00     0.172 HD
ENDROOT
BRANCH   1   7
HETATM    7  C   UNL     1      -7.084   0.131 -33.178  1.00  0.00     0.086 C 
HETATM    8  C   UNL     1      -6.621  -0.085 -31.736  1.00  0.00     0.032 C 
BRANCH   7   9
HETATM    9  C   UNL     1      -5.954  -0.217 -34.170  1.00  0.00     0.063 C 
BRANCH   9  10
HETATM   10  C   UNL     1      -5.704  -1.701 -34.314  1.00  0.00    -0.056 A 
HETATM   11  C   UNL     1      -6.738  -2.555 -34.726  1.00  0.00     0.010 A 
HETATM   12  C   UNL     1      -6.517  -3.927 -34.863  1.00  0.00     0.037 A 
HETATM   13  C   UNL     1      -5.255  -4.445 -34.588  1.00  0.00     0.065 A 
HETATM   14  C   UNL     1      -4.219  -3.617 -34.175  1.00  0.00     0.037 A 
HETATM   15  C   UNL     1      -4.442  -2.246 -34.037  1.00  0.00     0.010 A 
BRANCH  13  16
HETATM   16  O   UNL     1      -4.994  -5.778 -34.713  1.00  0.00    -0.361 OA
HETATM   17  H   UNL     1      -4.887  -6.151 -33.824  1.00  0.00     0.217 HD
ENDBRANCH  13  16
ENDBRANCH   9  10
ENDBRANCH   7   9
ENDBRANCH   1   7
BRANCH   3  18
HETATM   18  C   UNL     1      -9.051   3.935 -33.470  1.00  0.00     0.153 A 
HETATM   19  N   UNL     1      -9.819   3.386 -34.420  1.00  0.00    -0.154 NA
HETATM   20  N   UNL     1     -11.072   3.778 -34.106  1.00  0.00    -0.275 N 
HETATM   21  C   UNL     1     -11.127   4.552 -32.983  1.00  0.00     0.116 A 
HETATM   22  C   UNL     1      -9.828   4.676 -32.549  1.00  0.00     0.071 A 
BRANCH  20  23
HETATM   23  C   UNL     1     -12.204   3.296 -34.887  1.00  0.00     0.189 C 
BRANCH  23  24
HETATM   24  C   UNL     1     -12.688   1.951 -34.409  1.00  0.00    -0.038 A 
HETATM   25  C   UNL     1     -14.043   1.601 -34.520  1.00  0.00     0.009 A 
HETATM   26  C   UNL     1     -14.490   0.351 -34.091  1.00  0.00     0.001 A 
HETATM   27  C   UNL     1     -13.589  -0.563 -33.547  1.00  0.00     0.000 A 
HETATM   28  C   UNL     1     -12.242  -0.228 -33.430  1.00  0.00     0.001 A 
HETATM   29  C   UNL     1     -11.792   1.024 -33.858  1.00  0.00     0.009 A 
ENDBRANCH  23  24
ENDBRANCH  20  23
ENDBRANCH   3  18
TORSDOF 7
ENDMDL
MODEL 10
REMARK VINA RESULT:      -8.0      1.450      2.267
REMARK  7 active torsions:
REMARK  status: ('A' for Active; 'I' for Inactive)
REMARK    1  A    between atoms: C_2  and  N_3 
REMARK    2  A    between atoms: C_2  and  C_19 
REMARK       I    between atoms: N_3  and  C_4 
REMARK       I    between atoms: C_4  and  N_5 
REMARK    3  A    between atoms: N_5  and  C_6 
REMARK    4  A    between atoms: N_8  and  C_9 
REMARK    5  A    between atoms: C_9  and  C_10 
REMARK    6  A    between atoms: C_19  and  C_20 
REMARK    7  A    between atoms: C_23  and  O_24 
ROOT
HETATM    1  N   UNL     1      -4.849   3.528 -32.602  1.00  0.00    -0.338 N 
HETATM    2  C   UNL     1      -5.441   3.806 -33.792  1.00  0.00     0.322 C 
HETATM    3  N   UNL     1      -4.849   4.755 -34.570  1.00  0.00    -0.292 N 
HETATM    4  O   UNL     1      -6.477   3.270 -34.182  1.00  0.00    -0.247 OA
HETATM    5  H   UNL     1      -3.960   4.004 -32.452  1.00  0.00     0.164 HD
HETATM    6  H   UNL     1      -5.358   4.965 -35.414  1.00  0.00     0.172 HD
ENDROOT
BRANCH   1   7
HETATM    7  C   UNL     1      -5.267   2.509 -31.649  1.00  0.00     0.086 C 
HETATM    8  C   UNL     1      -5.302   3.079 -30.230  1.00  0.00     0.032 C 
BRANCH   7   9
HETATM    9  C   UNL     1      -4.433   1.211 -31.693  1.00  0.00     0.063 C 
BRANCH   9  10
HETATM   10  C   UNL     1      -5.047   0.120 -32.540  1.00  0.00    -0.056 A 
HETATM   11  C   UNL     1      -4.227  -0.813 -33.192  1.00  0.00     0.010 A 
HETATM   12  C   UNL     1      -4.785  -1.826 -33.975  1.00  0.00     0.037 A 
HETATM   13  C   UNL     1      -6.167  -1.905 -34.104  1.00  0.00     0.065 A 
HETATM   14  C   UNL     1      -6.996  -0.989 -33.469  1.00  0.00     0.037 A 
HETATM   15  C   UNL     1      -6.438   0.024 -32.688  1.00  0.00     0.010 A 
BRANCH  13  16
HETATM   16  O   UNL     1      -6.754  -2.881 -34.856  1.00  0.00    -0.361 OA
HETATM   17  H   UNL     1      -6.194  -3.672 -34.817  1.00  0.00     0.217 HD
ENDBRANCH  13  16
ENDBRANCH   9  10
ENDBRANCH   7   9
ENDBRANCH   1   7
BRANCH   3  18
HETATM   18  C   UNL     1      -3.656   5.412 -34.369  1.00  0.00     0.153 A 
HETATM   19  N   UNL     1      -3.500   6.488 -33.588  1.00  0.00    -0.154 NA
HETATM   20  N   UNL     1      -2.185   6.776 -33.674  1.00  0.00    -0.275 N 
HETATM   21  C   UNL     1      -1.498   5.914 -34.479  1.00  0.00     0.116 A 
HETATM   22  C   UNL     1      -2.428   5.018 -34.950  1.00  0.00     0.071 A 
BRANCH  20  23
HETATM   23  C   UNL     1      -1.621   7.859 -32.876  1.00  0.00     0.189 C 
BRANCH  23  24
HETATM   24  C   UNL     1      -1.135   7.377 -31.534  1.00  0.00    -0.038 A 
HETATM   25  C   UNL     1      -1.944   7.509 -30.395  1.00  0.00     0.009 A 
HETATM   26  C   UNL     1      -1.501   7.050 -29.153  1.00  0.00     0.001 A 
HETATM   27  C   UNL     1      -0.247   6.454 -29.038  1.00  0.00     0.000 A 
HETATM   28  C   UNL     1       0.567   6.318 -30.160  1.00  0.00     0.001 A 
HETATM   29  C   UNL     1       0.126   6.777 -31.403  1.00  0.00     0.009 A 
ENDBRANCH  23  24
ENDBRANCH  20  23
ENDBRANCH   3  18
TORSDOF 7
ENDMDL
