MODEL 1
REMARK VINA RESULT:      -9.3      0.000      0.000
REMARK  4 active torsions:
REMARK  status: ('A' for Active; 'I' for Inactive)
REMARK    1  A    between atoms: C_3  and  C_4 
REMARK       I    between atoms: C_4  and  N_5 
REMARK    2  A    between atoms: N_5  and  N_6 
REMARK    3  A    between atoms: C_21  and  C_22 
REMARK    4  A    between atoms: C_25  and  O_26 
ROOT
HETATM    1  C   UNL     1      -7.031   1.906 -32.939  1.00  0.00     0.290 C 
HETATM    2  N   UNL     1      -6.756   1.142 -31.815  1.00  0.00    -0.241 N 
HETATM    3  O   UNL     1      -6.171   2.438 -33.634  1.00  0.00    -0.264 OA
HETATM    4  H   UNL     1      -7.510   0.736 -31.288  1.00  0.00     0.192 HD
ENDROOT
BRANCH   1   5
HETATM    5  C   UNL     1      -8.435   2.116 -33.213  1.00  0.00     0.127 A 
HETATM    6  C   UNL     1      -9.610   1.402 -32.997  1.00  0.00     0.003 A 
HETATM    7  C   UNL     1      -9.775   0.035 -32.436  1.00  0.00     0.053 C 
HETATM    8  C   UNL     1     -10.655   2.256 -33.495  1.00  0.00     0.095 A 
HETATM    9  N   UNL     1     -10.143   3.370 -34.035  1.00  0.00    -0.173 NA
HETATM   10  N   UNL     1      -8.823   3.241 -33.888  1.00  0.00    -0.272 N 
HETATM   11  H   UNL     1      -8.211   3.966 -34.253  1.00  0.00     0.189 HD
BRANCH   8  12
HETATM   12  C   UNL     1     -12.102   2.035 -33.497  1.00  0.00    -0.005 A 
HETATM   13  C   UNL     1     -12.928   2.793 -32.658  1.00  0.00     0.016 A 
HETATM   14  C   UNL     1     -14.312   2.600 -32.662  1.00  0.00     0.037 A 
HETATM   15  C   UNL     1     -14.895   1.649 -33.501  1.00  0.00     0.068 A 
HETATM   16  C   UNL     1     -14.076   0.871 -34.321  1.00  0.00     0.037 A 
HETATM   17  C   UNL     1     -12.687   1.062 -34.315  1.00  0.00     0.016 A 
BRANCH  15  18
HETATM   18  O   UNL     1     -16.257   1.568 -33.417  1.00  0.00    -0.356 OA
HETATM   19  C   UNL     1     -16.892   2.416 -32.468  1.00  0.00     0.210 C 
ENDBRANCH  15  18
ENDBRANCH   8  12
ENDBRANCH   1   5
BRANCH   2  20
HETATM   20  N   UNL     1      -5.478   0.768 -31.536  1.00  0.00    -0.165 NA
HETATM   21  C   UNL     1      -4.935  -0.212 -32.185  1.00  0.00     0.157 A 
HETATM   22  C   UNL     1      -3.433  -0.531 -32.017  1.00  0.00     0.277 A 
HETATM   23  C   UNL     1      -5.442  -1.195 -33.155  1.00  0.00     0.027 A 
HETATM   24  O   UNL     1      -2.650   0.022 -31.276  1.00  0.00    -0.266 OA
HETATM   25  N   UNL     1      -3.177  -1.556 -32.898  1.00  0.00    -0.321 N 
HETATM   26  C   UNL     1      -4.336  -1.950 -33.554  1.00  0.00     0.048 A 
HETATM   27  H   UNL     1      -2.263  -1.971 -32.995  1.00  0.00     0.169 HD
HETATM   28  C   UNL     1      -4.438  -2.981 -34.467  1.00  0.00     0.030 A 
HETATM   29  C   UNL     1      -5.706  -3.264 -34.978  1.00  0.00     0.002 A 
HETATM   30  C   UNL     1      -6.832  -2.533 -34.555  1.00  0.00     0.001 A 
HETATM   31  C   UNL     1      -6.708  -1.493 -33.626  1.00  0.00     0.016 A 
ENDBRANCH   2  20
TORSDOF 4
ENDMDL
MODEL 2
REMARK VINA RESULT:      -9.2      5.213      8.246
REMARK  4 active torsions:
REMARK  status: ('A' for Active; 'I' for Inactive)
REMARK    1  A    between atoms: C_3  and  C_4 
REMARK       I    between atoms: C_4  and  N_5 
REMARK    2  A    between atoms: N_5  and  N_6 
REMARK    3  A    between atoms: C_21  and  C_22 
REMARK    4  A    between atoms: C_25  and  O_26 
ROOT
HETATM    1  C   UNL     1      -5.988   3.803 -29.906  1.00  0.00     0.290 C 
HETATM    2  N   UNL     1      -4.769   4.458 -30.006  1.00  0.00    -0.241 N 
HETATM    3  O   UNL     1      -6.966   4.259 -29.320  1.00  0.00    -0.264 OA
HETATM    4  H   UNL     1      -4.007   4.026 -30.499  1.00  0.00     0.192 HD
ENDROOT
BRANCH   1   5
HETATM    5  C   UNL     1      -6.022   2.475 -30.476  1.00  0.00     0.127 A 
HETATM    6  C   UNL     1      -5.776   1.922 -31.729  1.00  0.00     0.003 A 
HETATM    7  C   UNL     1      -5.451   2.617 -33.002  1.00  0.00     0.053 C 
HETATM    8  C   UNL     1      -5.963   0.508 -31.549  1.00  0.00     0.095 A 
HETATM    9  N   UNL     1      -6.361   0.234 -30.299  1.00  0.00    -0.173 NA
HETATM   10  N   UNL     1      -6.425   1.425 -29.697  1.00  0.00    -0.272 N 
HETATM   11  H   UNL     1      -6.735   1.474 -28.731  1.00  0.00     0.189 HD
BRANCH   8  12
HETATM   12  C   UNL     1      -5.804  -0.574 -32.523  1.00  0.00    -0.005 A 
HETATM   13  C   UNL     1      -6.895  -0.984 -33.298  1.00  0.00     0.016 A 
HETATM   14  C   UNL     1      -6.751  -2.006 -34.241  1.00  0.00     0.037 A 
HETATM   15  C   UNL     1      -5.519  -2.636 -34.424  1.00  0.00     0.068 A 
HETATM   16  C   UNL     1      -4.434  -2.252 -33.636  1.00  0.00     0.037 A 
HETATM   17  C   UNL     1      -4.578  -1.228 -32.688  1.00  0.00     0.016 A 
BRANCH  15  18
HETATM   18  O   UNL     1      -5.510  -3.610 -35.384  1.00  0.00    -0.356 OA
HETATM   19  C   UNL     1      -6.608  -4.513 -35.390  1.00  0.00     0.210 C 
ENDBRANCH  15  18
ENDBRANCH   8  12
ENDBRANCH   1   5
BRANCH   2  20
HETATM   20  N   UNL     1      -4.658   5.760 -29.626  1.00  0.00    -0.165 NA
HETATM   21  C   UNL     1      -3.915   6.572 -30.308  1.00  0.00     0.157 A 
HETATM   22  C   UNL     1      -3.921   8.087 -30.005  1.00  0.00     0.277 A 
HETATM   23  C   UNL     1      -2.975   6.395 -31.425  1.00  0.00     0.027 A 
HETATM   24  O   UNL     1      -4.535   8.651 -29.129  1.00  0.00    -0.266 OA
HETATM   25  N   UNL     1      -3.099   8.650 -30.954  1.00  0.00    -0.321 N 
HETATM   26  C   UNL     1      -2.542   7.678 -31.774  1.00  0.00     0.048 A 
HETATM   27  H   UNL     1      -2.914   9.642 -30.990  1.00  0.00     0.169 HD
HETATM   28  C   UNL     1      -1.640   7.899 -32.795  1.00  0.00     0.030 A 
HETATM   29  C   UNL     1      -1.147   6.781 -33.472  1.00  0.00     0.002 A 
HETATM   30  C   UNL     1      -1.549   5.484 -33.105  1.00  0.00     0.001 A 
HETATM   31  C   UNL     1      -2.464   5.279 -32.065  1.00  0.00     0.016 A 
ENDBRANCH   2  20
TORSDOF 4
ENDMDL
MODEL 3
REMARK VINA RESULT:      -9.0      2.149      8.528
REMARK  4 active torsions:
REMARK  status: ('A' for Active; 'I' for Inactive)
REMARK    1  A    between atoms: C_3  and  C_4 
REMARK       I    between atoms: C_4  and  N_5 
REMARK    2  A    between atoms: N_5  and  N_6 
REMARK    3  A    between atoms: C_21  and  C_22 
REMARK    4  A    between atoms: C_25  and  O_26 
ROOT
HETATM    1  C   UNL     1      -9.183   3.387 -32.858  1.00  0.00     0.290 C 
HETATM    2  N   UNL     1     -10.001   3.695 -33.934  1.00  0.00    -0.241 N 
HETATM    3  O   UNL     1      -9.280   3.908 -31.750  1.00  0.00    -0.264 OA
HETATM    4  H   UNL     1      -9.866   3.232 -34.816  1.00  0.00     0.192 HD
ENDROOT
BRANCH   1   5
HETATM    5  C   UNL     1      -8.120   2.448 -33.141  1.00  0.00     0.127 A 
HETATM    6  C   UNL     1      -7.982   1.064 -33.119  1.00  0.00     0.003 A 
HETATM    7  C   UNL     1      -8.964   0.041 -32.673  1.00  0.00     0.053 C 
HETATM    8  C   UNL     1      -6.639   0.822 -33.572  1.00  0.00     0.095 A 
HETATM    9  N   UNL     1      -5.992   1.976 -33.784  1.00  0.00    -0.173 NA
HETATM   10  N   UNL     1      -6.883   2.923 -33.482  1.00  0.00    -0.272 N 
HETATM   11  H   UNL     1      -6.608   3.899 -33.543  1.00  0.00     0.189 HD
BRANCH   8  12
HETATM   12  C   UNL     1      -5.952  -0.454 -33.780  1.00  0.00    -0.005 A 
HETATM   13  C   UNL     1      -4.763  -0.730 -33.095  1.00  0.00     0.016 A 
HETATM   14  C   UNL     1      -4.107  -1.951 -33.276  1.00  0.00     0.037 A 
HETATM   15  C   UNL     1      -4.625  -2.915 -34.143  1.00  0.00     0.068 A 
HETATM   16  C   UNL     1      -5.795  -2.637 -34.850  1.00  0.00     0.037 A 
HETATM   17  C   UNL     1      -6.452  -1.411 -34.671  1.00  0.00     0.016 A 
BRANCH  15  18
HETATM   18  O   UNL     1      -3.895  -4.068 -34.220  1.00  0.00    -0.356 OA
HETATM   19  C   UNL     1      -4.624  -5.288 -34.236  1.00  0.00     0.210 C 
ENDBRANCH  15  18
ENDBRANCH   8  12
ENDBRANCH   1   5
BRANCH   2  20
HETATM   20  N   UNL     1     -11.112   4.460 -33.753  1.00  0.00    -0.165 NA
HETATM   21  C   UNL     1     -12.260   3.898 -33.550  1.00  0.00     0.157 A 
HETATM   22  C   UNL     1     -13.493   4.743 -33.159  1.00  0.00     0.277 A 
HETATM   23  C   UNL     1     -12.731   2.505 -33.590  1.00  0.00     0.027 A 
HETATM   24  O   UNL     1     -13.545   5.947 -33.054  1.00  0.00    -0.266 OA
HETATM   25  N   UNL     1     -14.502   3.834 -32.941  1.00  0.00    -0.321 N 
HETATM   26  C   UNL     1     -14.072   2.538 -33.196  1.00  0.00     0.048 A 
HETATM   27  H   UNL     1     -15.434   4.113 -32.675  1.00  0.00     0.169 HD
HETATM   28  C   UNL     1     -14.846   1.398 -33.119  1.00  0.00     0.030 A 
HETATM   29  C   UNL     1     -14.245   0.187 -33.470  1.00  0.00     0.002 A 
HETATM   30  C   UNL     1     -12.907   0.148 -33.903  1.00  0.00     0.001 A 
HETATM   31  C   UNL     1     -12.138   1.316 -33.977  1.00  0.00     0.016 A 
ENDBRANCH   2  20
TORSDOF 4
ENDMDL
MODEL 4
REMARK VINA RESULT:      -8.7      4.844      8.168
REMARK  4 active torsions:
REMARK  status: ('A' for Active; 'I' for Inactive)
REMARK    1  A    between atoms: C_3  and  C_4 
REMARK       I    between atoms: C_4  and  N_5 
REMARK    2  A    between atoms: N_5  and  N_6 
REMARK    3  A    between atoms: C_21  and  C_22 
REMARK    4  A    between atoms: C_25  and  O_26 
ROOT
HETATM    1  C   UNL     1      -6.662   3.612 -32.148  1.00  0.00     0.290 C 
HETATM    2  N   UNL     1      -5.486   4.156 -31.653  1.00  0.00    -0.241 N 
HETATM    3  O   UNL     1      -7.777   4.081 -31.939  1.00  0.00    -0.264 OA
HETATM    4  H   UNL     1      -4.605   3.719 -31.860  1.00  0.00     0.192 HD
ENDROOT
BRANCH   1   5
HETATM    5  C   UNL     1      -6.508   2.373 -32.879  1.00  0.00     0.127 A 
HETATM    6  C   UNL     1      -6.140   1.069 -32.563  1.00  0.00     0.003 A 
HETATM    7  C   UNL     1      -5.669   0.527 -31.261  1.00  0.00     0.053 C 
HETATM    8  C   UNL     1      -6.254   0.346 -33.801  1.00  0.00     0.095 A 
HETATM    9  N   UNL     1      -6.597   1.167 -34.803  1.00  0.00    -0.173 NA
HETATM   10  N   UNL     1      -6.702   2.369 -34.233  1.00  0.00    -0.272 N 
HETATM   11  H   UNL     1      -6.932   3.172 -34.812  1.00  0.00     0.189 HD
BRANCH   8  12
HETATM   12  C   UNL     1      -6.024  -1.076 -34.061  1.00  0.00    -0.005 A 
HETATM   13  C   UNL     1      -4.740  -1.616 -33.914  1.00  0.00     0.016 A 
HETATM   14  C   UNL     1      -4.512  -2.976 -34.147  1.00  0.00     0.037 A 
HETATM   15  C   UNL     1      -5.558  -3.817 -34.531  1.00  0.00     0.068 A 
HETATM   16  C   UNL     1      -6.834  -3.281 -34.706  1.00  0.00     0.037 A 
HETATM   17  C   UNL     1      -7.063  -1.917 -34.476  1.00  0.00     0.016 A 
BRANCH  15  18
HETATM   18  O   UNL     1      -5.204  -5.124 -34.715  1.00  0.00    -0.356 OA
HETATM   19  C   UNL     1      -4.040  -5.575 -34.034  1.00  0.00     0.210 C 
ENDBRANCH  15  18
ENDBRANCH   8  12
ENDBRANCH   1   5
BRANCH   2  20
HETATM   20  N   UNL     1      -5.493   5.384 -31.067  1.00  0.00    -0.165 NA
HETATM   21  C   UNL     1      -4.573   6.246 -31.360  1.00  0.00     0.157 A 
HETATM   22  C   UNL     1      -4.667   7.702 -30.851  1.00  0.00     0.277 A 
HETATM   23  C   UNL     1      -3.334   6.182 -32.151  1.00  0.00     0.027 A 
HETATM   24  O   UNL     1      -5.520   8.166 -30.129  1.00  0.00    -0.266 OA
HETATM   25  N   UNL     1      -3.591   8.352 -31.409  1.00  0.00    -0.321 N 
HETATM   26  C   UNL     1      -2.811   7.478 -32.155  1.00  0.00     0.048 A 
HETATM   27  H   UNL     1      -3.400   9.328 -31.238  1.00  0.00     0.169 HD
HETATM   28  C   UNL     1      -1.636   7.797 -32.807  1.00  0.00     0.030 A 
HETATM   29  C   UNL     1      -0.962   6.763 -33.461  1.00  0.00     0.002 A 
HETATM   30  C   UNL     1      -1.462   5.448 -33.432  1.00  0.00     0.001 A 
HETATM   31  C   UNL     1      -2.654   5.144 -32.763  1.00  0.00     0.016 A 
ENDBRANCH   2  20
TORSDOF 4
ENDMDL
MODEL 5
REMARK VINA RESULT:      -8.4      5.548      9.804
REMARK  4 active torsions:
REMARK  status: ('A' for Active; 'I' for Inactive)
REMARK    1  A    between atoms: C_3  and  C_4 
REMARK       I    between atoms: C_4  and  N_5 
REMARK    2  A    between atoms: N_5  and  N_6 
REMARK    3  A    between atoms: C_21  and  C_22 
REMARK    4  A    between atoms: C_25  and  O_26 
ROOT
HETATM    1  C   UNL     1      -4.665   4.411 -33.712  1.00  0.00     0.290 C 
HETATM    2  N   UNL     1      -5.452   3.453 -33.091  1.00  0.00    -0.241 N 
HETATM    3  O   UNL     1      -4.884   4.857 -34.835  1.00  0.00    -0.264 OA
HETATM    4  H   UNL     1      -5.214   3.129 -32.170  1.00  0.00     0.192 HD
ENDROOT
BRANCH   1   5
HETATM    5  C   UNL     1      -3.487   4.812 -32.976  1.00  0.00     0.127 A 
HETATM    6  C   UNL     1      -3.238   5.449 -31.764  1.00  0.00     0.003 A 
HETATM    7  C   UNL     1      -4.213   6.039 -30.809  1.00  0.00     0.053 C 
HETATM    8  C   UNL     1      -1.805   5.474 -31.649  1.00  0.00     0.095 A 
HETATM    9  N   UNL     1      -1.230   4.954 -32.742  1.00  0.00    -0.173 NA
HETATM   10  N   UNL     1      -2.252   4.607 -33.528  1.00  0.00    -0.272 N 
HETATM   11  H   UNL     1      -2.059   4.207 -34.442  1.00  0.00     0.189 HD
BRANCH   8  12
HETATM   12  C   UNL     1      -0.977   5.994 -30.559  1.00  0.00    -0.005 A 
HETATM   13  C   UNL     1      -0.085   5.146 -29.892  1.00  0.00     0.016 A 
HETATM   14  C   UNL     1       0.720   5.635 -28.859  1.00  0.00     0.037 A 
HETATM   15  C   UNL     1       0.649   6.975 -28.476  1.00  0.00     0.068 A 
HETATM   16  C   UNL     1      -0.257   7.820 -29.118  1.00  0.00     0.037 A 
HETATM   17  C   UNL     1      -1.067   7.330 -30.152  1.00  0.00     0.016 A 
BRANCH  15  18
HETATM   18  O   UNL     1       1.497   7.327 -27.463  1.00  0.00    -0.356 OA
HETATM   19  C   UNL     1       0.915   7.531 -26.181  1.00  0.00     0.210 C 
ENDBRANCH  15  18
ENDBRANCH   8  12
ENDBRANCH   1   5
BRANCH   2  20
HETATM   20  N   UNL     1      -6.651   3.100 -33.627  1.00  0.00    -0.165 NA
HETATM   21  C   UNL     1      -6.923   1.851 -33.838  1.00  0.00     0.157 A 
HETATM   22  C   UNL     1      -8.341   1.416 -34.270  1.00  0.00     0.277 A 
HETATM   23  C   UNL     1      -6.139   0.610 -33.748  1.00  0.00     0.027 A 
HETATM   24  O   UNL     1      -9.286   2.138 -34.497  1.00  0.00    -0.266 OA
HETATM   25  N   UNL     1      -8.301   0.042 -34.321  1.00  0.00    -0.321 N 
HETATM   26  C   UNL     1      -7.028  -0.431 -34.027  1.00  0.00     0.048 A 
HETATM   27  H   UNL     1      -9.100  -0.514 -34.584  1.00  0.00     0.169 HD
HETATM   28  C   UNL     1      -6.635  -1.755 -34.036  1.00  0.00     0.030 A 
HETATM   29  C   UNL     1      -5.292  -2.028 -33.768  1.00  0.00     0.002 A 
HETATM   30  C   UNL     1      -4.381  -0.985 -33.521  1.00  0.00     0.001 A 
HETATM   31  C   UNL     1      -4.799   0.352 -33.519  1.00  0.00     0.016 A 
ENDBRANCH   2  20
TORSDOF 4
ENDMDL
MODEL 6
REMARK VINA RESULT:      -8.3      1.144      1.620
REMARK  4 active torsions:
REMARK  status: ('A' for Active; 'I' for Inactive)
REMARK    1  A    between atoms: C_3  and  C_4 
REMARK       I    between atoms: C_4  and  N_5 
REMARK    2  A    between atoms: N_5  and  N_6 
REMARK    3  A    between atoms: C_21  and  C_22 
REMARK    4  A    between atoms: C_25  and  O_26 
ROOT
HETATM    1  C   UNL     1      -7.117   2.348 -32.399  1.00  0.00     0.290 C 
HETATM    2  N   UNL     1      -6.815   1.284 -31.563  1.00  0.00    -0.241 N 
HETATM    3  O   UNL     1      -6.285   3.144 -32.826  1.00  0.00    -0.264 OA
HETATM    4  H   UNL     1      -7.546   0.671 -31.248  1.00  0.00     0.192 HD
ENDROOT
BRANCH   1   5
HETATM    5  C   UNL     1      -8.523   2.526 -32.687  1.00  0.00     0.127 A 
HETATM    6  C   UNL     1      -9.659   2.843 -31.949  1.00  0.00     0.003 A 
HETATM    7  C   UNL     1      -9.787   3.033 -30.480  1.00  0.00     0.053 C 
HETATM    8  C   UNL     1     -10.722   2.893 -32.915  1.00  0.00     0.095 A 
HETATM    9  N   UNL     1     -10.276   2.562 -34.134  1.00  0.00    -0.173 NA
HETATM   10  N   UNL     1      -8.976   2.311 -33.960  1.00  0.00    -0.272 N 
HETATM   11  H   UNL     1      -8.420   2.009 -34.755  1.00  0.00     0.189 HD
BRANCH   8  12
HETATM   12  C   UNL     1     -12.136   3.216 -32.712  1.00  0.00    -0.005 A 
HETATM   13  C   UNL     1     -13.114   2.234 -32.914  1.00  0.00     0.016 A 
HETATM   14  C   UNL     1     -14.466   2.527 -32.710  1.00  0.00     0.037 A 
HETATM   15  C   UNL     1     -14.863   3.802 -32.304  1.00  0.00     0.068 A 
HETATM   16  C   UNL     1     -13.897   4.793 -32.127  1.00  0.00     0.037 A 
HETATM   17  C   UNL     1     -12.542   4.501 -32.334  1.00  0.00     0.016 A 
BRANCH  15  18
HETATM   18  O   UNL     1     -16.211   3.954 -32.129  1.00  0.00    -0.356 OA
HETATM   19  C   UNL     1     -16.999   2.771 -32.172  1.00  0.00     0.210 C 
ENDBRANCH  15  18
ENDBRANCH   8  12
ENDBRANCH   1   5
BRANCH   2  20
HETATM   20  N   UNL     1      -5.519   0.941 -31.333  1.00  0.00    -0.165 NA
HETATM   21  C   UNL     1      -4.967  -0.004 -32.024  1.00  0.00     0.157 A 
HETATM   22  C   UNL     1      -3.451  -0.283 -31.908  1.00  0.00     0.277 A 
HETATM   23  C   UNL     1      -5.473  -0.975 -33.006  1.00  0.00     0.027 A 
HETATM   24  O   UNL     1      -2.664   0.272 -31.175  1.00  0.00    -0.266 OA
HETATM   25  N   UNL     1      -3.193  -1.275 -32.826  1.00  0.00    -0.321 N 
HETATM   26  C   UNL     1      -4.358  -1.686 -33.459  1.00  0.00     0.048 A 
HETATM   27  H   UNL     1      -2.270  -1.660 -32.961  1.00  0.00     0.169 HD
HETATM   28  C   UNL     1      -4.457  -2.693 -34.398  1.00  0.00     0.030 A 
HETATM   29  C   UNL     1      -5.731  -3.000 -34.880  1.00  0.00     0.002 A 
HETATM   30  C   UNL     1      -6.865  -2.315 -34.404  1.00  0.00     0.001 A 
HETATM   31  C   UNL     1      -6.744  -1.297 -33.450  1.00  0.00     0.016 A 
ENDBRANCH   2  20
TORSDOF 4
ENDMDL
MODEL 7
REMARK VINA RESULT:      -8.2     14.880     18.445
REMARK  4 active torsions:
REMARK  status: ('A' for Active; 'I' for Inactive)
REMARK    1  A    between atoms: C_3  and  C_4 
REMARK       I    between atoms: C_4  and  N_5 
REMARK    2  A    between atoms: N_5  and  N_6 
REMARK    3  A    between atoms: C_21  and  C_22 
REMARK    4  A    between atoms: C_25  and  O_26 
ROOT
HETATM    1  C   UNL     1      -6.112 -12.304 -39.762  1.00  0.00     0.290 C 
HETATM    2  N   UNL     1      -7.265 -12.545 -39.030  1.00  0.00    -0.241 N 
HETATM    3  O   UNL     1      -6.105 -11.868 -40.909  1.00  0.00    -0.264 OA
HETATM    4  H   UNL     1      -7.199 -12.906 -38.094  1.00  0.00     0.192 HD
ENDROOT
BRANCH   1   5
HETATM    5  C   UNL     1      -4.878 -12.684 -39.110  1.00  0.00     0.127 A 
HETATM    6  C   UNL     1      -3.831 -13.557 -39.389  1.00  0.00     0.003 A 
HETATM    7  C   UNL     1      -3.699 -14.516 -40.517  1.00  0.00     0.053 C 
HETATM    8  C   UNL     1      -2.906 -13.379 -38.302  1.00  0.00     0.095 A 
HETATM    9  N   UNL     1      -3.390 -12.516 -37.399  1.00  0.00    -0.173 NA
HETATM   10  N   UNL     1      -4.579 -12.151 -37.886  1.00  0.00    -0.272 N 
HETATM   11  H   UNL     1      -5.156 -11.508 -37.350  1.00  0.00     0.189 HD
BRANCH   8  12
HETATM   12  C   UNL     1      -1.606 -14.017 -38.086  1.00  0.00    -0.005 A 
HETATM   13  C   UNL     1      -1.444 -14.946 -37.051  1.00  0.00     0.016 A 
HETATM   14  C   UNL     1      -0.211 -15.570 -36.844  1.00  0.00     0.037 A 
HETATM   15  C   UNL     1       0.880 -15.279 -37.665  1.00  0.00     0.068 A 
HETATM   16  C   UNL     1       0.734 -14.335 -38.682  1.00  0.00     0.037 A 
HETATM   17  C   UNL     1      -0.501 -13.705 -38.888  1.00  0.00     0.016 A 
BRANCH  15  18
HETATM   18  O   UNL     1       2.023 -15.967 -37.365  1.00  0.00    -0.356 OA
HETATM   19  C   UNL     1       1.918 -16.984 -36.376  1.00  0.00     0.210 C 
ENDBRANCH  15  18
ENDBRANCH   8  12
ENDBRANCH   1   5
BRANCH   2  20
HETATM   20  N   UNL     1      -8.469 -12.106 -39.486  1.00  0.00    -0.165 NA
HETATM   21  C   UNL     1      -9.298 -12.940 -40.030  1.00  0.00     0.157 A 
HETATM   22  C   UNL     1     -10.736 -12.502 -40.384  1.00  0.00     0.277 A 
HETATM   23  C   UNL     1      -9.205 -14.353 -40.427  1.00  0.00     0.027 A 
HETATM   24  O   UNL     1     -11.213 -11.397 -40.253  1.00  0.00    -0.266 OA
HETATM   25  N   UNL     1     -11.356 -13.635 -40.856  1.00  0.00    -0.321 N 
HETATM   26  C   UNL     1     -10.474 -14.708 -40.892  1.00  0.00     0.048 A 
HETATM   27  H   UNL     1     -12.315 -13.638 -41.170  1.00  0.00     0.169 HD
HETATM   28  C   UNL     1     -10.761 -15.977 -41.356  1.00  0.00     0.030 A 
HETATM   29  C   UNL     1      -9.722 -16.909 -41.364  1.00  0.00     0.002 A 
HETATM   30  C   UNL     1      -8.431 -16.551 -40.932  1.00  0.00     0.001 A 
HETATM   31  C   UNL     1      -8.159 -15.258 -40.467  1.00  0.00     0.016 A 
ENDBRANCH   2  20
TORSDOF 4
ENDMDL
MODEL 8
REMARK VINA RESULT:      -8.1      4.955      6.819
REMARK  4 active torsions:
REMARK  status: ('A' for Active; 'I' for Inactive)
REMARK    1  A    between atoms: C_3  and  C_4 
REMARK       I    between atoms: C_4  and  N_5 
REMARK    2  A    between atoms: N_5  and  N_6 
REMARK    3  A    between atoms: C_21  and  C_22 
REMARK    4  A    between atoms: C_25  and  O_26 
ROOT
HETATM    1  C   UNL     1      -3.511   2.663 -31.556  1.00  0.00     0.290 C 
HETATM    2  N   UNL     1      -2.930   3.885 -31.857  1.00  0.00    -0.241 N 
HETATM    3  O   UNL     1      -2.878   1.662 -31.234  1.00  0.00    -0.264 OA
HETATM    4  H   UNL     1      -3.508   4.666 -32.116  1.00  0.00     0.192 HD
ENDROOT
BRANCH   1   5
HETATM    5  C   UNL     1      -4.947   2.606 -31.724  1.00  0.00     0.127 A 
HETATM    6  C   UNL     1      -5.835   1.806 -32.436  1.00  0.00     0.003 A 
HETATM    7  C   UNL     1      -5.534   0.714 -33.399  1.00  0.00     0.053 C 
HETATM    8  C   UNL     1      -7.138   2.305 -32.087  1.00  0.00     0.095 A 
HETATM    9  N   UNL     1      -7.041   3.370 -31.280  1.00  0.00    -0.173 NA
HETATM   10  N   UNL     1      -5.728   3.549 -31.114  1.00  0.00    -0.272 N 
HETATM   11  H   UNL     1      -5.403   4.329 -30.550  1.00  0.00     0.189 HD
BRANCH   8  12
HETATM   12  C   UNL     1      -8.453   1.823 -32.514  1.00  0.00    -0.005 A 
HETATM   13  C   UNL     1      -9.361   2.704 -33.114  1.00  0.00     0.016 A 
HETATM   14  C   UNL     1     -10.614   2.252 -33.537  1.00  0.00     0.037 A 
HETATM   15  C   UNL     1     -10.982   0.916 -33.368  1.00  0.00     0.068 A 
HETATM   16  C   UNL     1     -10.094   0.038 -32.746  1.00  0.00     0.037 A 
HETATM   17  C   UNL     1      -8.838   0.492 -32.319  1.00  0.00     0.016 A 
BRANCH  15  18
HETATM   18  O   UNL     1     -12.228   0.601 -33.835  1.00  0.00    -0.356 OA
HETATM   19  C   UNL     1     -12.728   1.390 -34.908  1.00  0.00     0.210 C 
ENDBRANCH  15  18
ENDBRANCH   8  12
ENDBRANCH   1   5
BRANCH   2  20
HETATM   20  N   UNL     1      -1.609   4.095 -31.609  1.00  0.00    -0.165 NA
HETATM   21  C   UNL     1      -1.230   5.161 -30.979  1.00  0.00     0.157 A 
HETATM   22  C   UNL     1       0.237   5.328 -30.525  1.00  0.00     0.277 A 
HETATM   23  C   UNL     1      -1.925   6.378 -30.530  1.00  0.00     0.027 A 
HETATM   24  O   UNL     1       1.153   4.565 -30.731  1.00  0.00    -0.266 OA
HETATM   25  N   UNL     1       0.269   6.513 -29.826  1.00  0.00    -0.321 N 
HETATM   26  C   UNL     1      -0.976   7.129 -29.831  1.00  0.00     0.048 A 
HETATM   27  H   UNL     1       1.116   6.876 -29.415  1.00  0.00     0.169 HD
HETATM   28  C   UNL     1      -1.276   8.351 -29.262  1.00  0.00     0.030 A 
HETATM   29  C   UNL     1      -2.577   8.833 -29.423  1.00  0.00     0.002 A 
HETATM   30  C   UNL     1      -3.530   8.100 -30.155  1.00  0.00     0.001 A 
HETATM   31  C   UNL     1      -3.205   6.864 -30.727  1.00  0.00     0.016 A 
ENDBRANCH   2  20
TORSDOF 4
ENDMDL
MODEL 9
REMARK VINA RESULT:      -8.1     14.882     17.031
REMARK  4 active torsions:
REMARK  status: ('A' for Active; 'I' for Inactive)
REMARK    1  A    between atoms: C_3  and  C_4 
REMARK       I    between atoms: C_4  and  N_5 
REMARK    2  A    between atoms: N_5  and  N_6 
REMARK    3  A    between atoms: C_21  and  C_22 
REMARK    4  A    between atoms: C_25  and  O_26 
ROOT
HETATM    1  C   UNL     1      -4.490 -13.417 -36.686  1.00  0.00     0.290 C 
HETATM    2  N   UNL     1      -4.804 -14.365 -37.648  1.00  0.00    -0.241 N 
HETATM    3  O   UNL     1      -3.913 -12.360 -36.926  1.00  0.00    -0.264 OA
HETATM    4  H   UNL     1      -5.276 -15.211 -37.383  1.00  0.00     0.192 HD
ENDROOT
BRANCH   1   5
HETATM    5  C   UNL     1      -4.816 -13.787 -35.327  1.00  0.00     0.127 A 
HETATM    6  C   UNL     1      -4.933 -14.980 -34.620  1.00  0.00     0.003 A 
HETATM    7  C   UNL     1      -4.825 -16.373 -35.127  1.00  0.00     0.053 C 
HETATM    8  C   UNL     1      -5.247 -14.581 -33.275  1.00  0.00     0.095 A 
HETATM    9  N   UNL     1      -5.379 -13.250 -33.191  1.00  0.00    -0.173 NA
HETATM   10  N   UNL     1      -5.157 -12.810 -34.432  1.00  0.00    -0.272 N 
HETATM   11  H   UNL     1      -5.229 -11.815 -34.624  1.00  0.00     0.189 HD
BRANCH   8  12
HETATM   12  C   UNL     1      -5.448 -15.415 -32.089  1.00  0.00    -0.005 A 
HETATM   13  C   UNL     1      -6.597 -16.208 -31.978  1.00  0.00     0.016 A 
HETATM   14  C   UNL     1      -6.793 -17.019 -30.856  1.00  0.00     0.037 A 
HETATM   15  C   UNL     1      -5.848 -17.052 -29.829  1.00  0.00     0.068 A 
HETATM   16  C   UNL     1      -4.715 -16.245 -29.920  1.00  0.00     0.037 A 
HETATM   17  C   UNL     1      -4.519 -15.428 -31.043  1.00  0.00     0.016 A 
BRANCH  15  18
HETATM   18  O   UNL     1      -6.154 -17.895 -28.796  1.00  0.00    -0.356 OA
HETATM   19  C   UNL     1      -7.447 -17.759 -28.220  1.00  0.00     0.210 C 
ENDBRANCH  15  18
ENDBRANCH   8  12
ENDBRANCH   1   5
BRANCH   2  20
HETATM   20  N   UNL     1      -4.666 -14.071 -38.969  1.00  0.00    -0.165 NA
HETATM   21  C   UNL     1      -5.671 -13.600 -39.636  1.00  0.00     0.157 A 
HETATM   22  C   UNL     1      -5.486 -13.088 -41.082  1.00  0.00     0.277 A 
HETATM   23  C   UNL     1      -7.094 -13.399 -39.324  1.00  0.00     0.027 A 
HETATM   24  O   UNL     1      -4.468 -13.109 -41.737  1.00  0.00    -0.266 OA
HETATM   25  N   UNL     1      -6.714 -12.590 -41.451  1.00  0.00    -0.321 N 
HETATM   26  C   UNL     1      -7.651 -12.773 -40.443  1.00  0.00     0.048 A 
HETATM   27  H   UNL     1      -6.885 -12.191 -42.362  1.00  0.00     0.169 HD
HETATM   28  C   UNL     1      -8.987 -12.430 -40.507  1.00  0.00     0.030 A 
HETATM   29  C   UNL     1      -9.786 -12.747 -39.407  1.00  0.00     0.002 A 
HETATM   30  C   UNL     1      -9.243 -13.410 -38.290  1.00  0.00     0.001 A 
HETATM   31  C   UNL     1      -7.885 -13.752 -38.245  1.00  0.00     0.016 A 
ENDBRANCH   2  20
TORSDOF 4
ENDMDL
MODEL 10
REMARK VINA RESULT:      -8.0      4.317      5.512
REMARK  4 active torsions:
REMARK  status: ('A' for Active; 'I' for Inactive)
REMARK    1  A    between atoms: C_3  and  C_4 
REMARK       I    between atoms: C_4  and  N_5 
REMARK    2  A    between atoms: N_5  and  N_6 
REMARK    3  A    between atoms: C_21  and  C_22 
REMARK    4  A    between atoms: C_25  and  O_26 
ROOT
HETATM    1  C   UNL     1      -6.013   3.447 -31.265  1.00  0.00     0.290 C 
HETATM    2  N   UNL     1      -5.710   4.791 -31.423  1.00  0.00    -0.241 N 
HETATM    3  O   UNL     1      -5.399   2.687 -30.522  1.00  0.00    -0.264 OA
HETATM    4  H   UNL     1      -6.253   5.358 -32.051  1.00  0.00     0.192 HD
ENDROOT
BRANCH   1   5
HETATM    5  C   UNL     1      -7.077   2.953 -32.110  1.00  0.00     0.127 A 
HETATM    6  C   UNL     1      -8.456   2.806 -31.993  1.00  0.00     0.003 A 
HETATM    7  C   UNL     1      -9.320   3.066 -30.811  1.00  0.00     0.053 C 
HETATM    8  C   UNL     1      -8.879   2.282 -33.264  1.00  0.00     0.095 A 
HETATM    9  N   UNL     1      -7.826   2.062 -34.063  1.00  0.00    -0.173 NA
HETATM   10  N   UNL     1      -6.768   2.433 -33.337  1.00  0.00    -0.272 N 
HETATM   11  H   UNL     1      -5.837   2.331 -33.732  1.00  0.00     0.189 HD
BRANCH   8  12
HETATM   12  C   UNL     1     -10.231   1.962 -33.725  1.00  0.00    -0.005 A 
HETATM   13  C   UNL     1     -10.858   0.786 -33.295  1.00  0.00     0.016 A 
HETATM   14  C   UNL     1     -12.154   0.478 -33.718  1.00  0.00     0.037 A 
HETATM   15  C   UNL     1     -12.844   1.336 -34.576  1.00  0.00     0.068 A 
HETATM   16  C   UNL     1     -12.217   2.496 -35.030  1.00  0.00     0.037 A 
HETATM   17  C   UNL     1     -10.915   2.805 -34.608  1.00  0.00     0.016 A 
BRANCH  15  18
HETATM   18  O   UNL     1     -14.107   0.925 -34.904  1.00  0.00    -0.356 OA
HETATM   19  C   UNL     1     -15.101   1.043 -33.894  1.00  0.00     0.210 C 
ENDBRANCH  15  18
ENDBRANCH   8  12
ENDBRANCH   1   5
BRANCH   2  20
HETATM   20  N   UNL     1      -4.821   5.395 -30.589  1.00  0.00    -0.165 NA
HETATM   21  C   UNL     1      -3.696   5.838 -31.052  1.00  0.00     0.157 A 
HETATM   22  C   UNL     1      -2.758   6.687 -30.165  1.00  0.00     0.277 A 
HETATM   23  C   UNL     1      -3.021   5.733 -32.355  1.00  0.00     0.027 A 
HETATM   24  O   UNL     1      -2.924   6.978 -29.002  1.00  0.00    -0.266 OA
HETATM   25  N   UNL     1      -1.715   7.053 -30.985  1.00  0.00    -0.321 N 
HETATM   26  C   UNL     1      -1.856   6.498 -32.250  1.00  0.00     0.048 A 
HETATM   27  H   UNL     1      -0.943   7.616 -30.660  1.00  0.00     0.169 HD
HETATM   28  C   UNL     1      -0.963   6.629 -33.295  1.00  0.00     0.030 A 
HETATM   29  C   UNL     1      -1.253   5.946 -34.478  1.00  0.00     0.002 A 
HETATM   30  C   UNL     1      -2.404   5.144 -34.582  1.00  0.00     0.001 A 
HETATM   31  C   UNL     1      -3.297   5.022 -33.509  1.00  0.00     0.016 A 
ENDBRANCH   2  20
TORSDOF 4
ENDMDL
