MODEL 1
REMARK VINA RESULT:      -8.0      0.000      0.000
REMARK  8 active torsions:
REMARK  status: ('A' for Active; 'I' for Inactive)
REMARK    1  A    between atoms: C_2  and  C_3 
REMARK    2  A    between atoms: C_3  and  N_4 
REMARK    3  A    between atoms: N_4  and  C_5 
REMARK    4  A    between atoms: C_7  and  N_8 
REMARK    5  A    between atoms: N_8  and  C_9 
REMARK    6  A    between atoms: C_9  and  C_10 
REMARK    7  A    between atoms: C_10  and  C_11 
REMARK    8  A    between atoms: C_14  and  O_15 
ROOT
HETATM    1  C   UNL     1      -6.481  -1.300 -33.609  1.00  0.00     0.119 A 
HETATM    2  N   UNL     1      -7.703  -0.807 -33.335  1.00  0.00    -0.207 NA
HETATM    3  C   UNL     1      -7.825  -0.003 -32.273  1.00  0.00     0.181 A 
HETATM    4  N   UNL     1      -6.814   0.306 -31.468  1.00  0.00    -0.330 N 
HETATM    5  H   UNL     1      -7.028   0.862 -30.651  1.00  0.00     0.168 HD
HETATM    6  C   UNL     1      -5.576  -0.133 -31.711  1.00  0.00     0.048 A 
HETATM    7  C   UNL     1      -5.352  -0.963 -32.827  1.00  0.00     0.031 A 
HETATM    8  C   UNL     1      -4.519   0.241 -30.868  1.00  0.00     0.030 A 
HETATM    9  C   UNL     1      -3.223  -0.197 -31.136  1.00  0.00     0.002 A 
HETATM   10  C   UNL     1      -2.977  -1.004 -32.242  1.00  0.00     0.001 A 
HETATM   11  C   UNL     1      -4.027  -1.385 -33.080  1.00  0.00     0.017 A 
ENDROOT
BRANCH   3  12
HETATM   12  N   UNL     1      -9.093   0.477 -31.971  1.00  0.00    -0.262 NA
HETATM   13  H   UNL     1      -9.275   0.136 -31.021  1.00  0.00     0.130 HD
BRANCH  12  14
HETATM   14  C   UNL     1     -10.146   0.037 -32.892  1.00  0.00     0.100 C 
BRANCH  14  15
HETATM   15  C   UNL     1     -10.674   1.222 -33.709  1.00  0.00     0.053 C 
BRANCH  15  16
HETATM   16  C   UNL     1     -12.174   1.338 -33.601  1.00  0.00    -0.057 A 
HETATM   17  C   UNL     1     -12.775   2.549 -33.237  1.00  0.00     0.010 A 
HETATM   18  C   UNL     1     -14.162   2.632 -33.102  1.00  0.00     0.037 A 
HETATM   19  C   UNL     1     -14.972   1.520 -33.337  1.00  0.00     0.068 A 
HETATM   20  C   UNL     1     -14.380   0.314 -33.710  1.00  0.00     0.037 A 
HETATM   21  C   UNL     1     -12.989   0.225 -33.840  1.00  0.00     0.010 A 
BRANCH  19  22
HETATM   22  O   UNL     1     -16.310   1.740 -33.164  1.00  0.00    -0.356 OA
HETATM   23  C   UNL     1     -16.699   2.488 -32.018  1.00  0.00     0.210 C 
ENDBRANCH  19  22
ENDBRANCH  15  16
ENDBRANCH  14  15
ENDBRANCH  12  14
ENDBRANCH   3  12
BRANCH   1  24
HETATM   24  N   UNL     1      -6.316  -2.124 -34.730  1.00  0.00    -0.277 NA
HETATM   25  H   UNL     1      -5.336  -2.178 -34.999  1.00  0.00     0.129 HD
BRANCH  24  26
HETATM   26  C   UNL     1      -6.925  -3.453 -34.668  1.00  0.00     0.093 C 
BRANCH  26  27
HETATM   27  C   UNL     1      -5.992  -4.489 -35.298  1.00  0.00     0.010 C 
HETATM   28  C   UNL     1      -4.850  -4.892 -34.375  1.00  0.00     0.006 C 
ENDBRANCH  26  27
ENDBRANCH  24  26
ENDBRANCH   1  24
TORSDOF 8
ENDMDL
MODEL 2
REMARK VINA RESULT:      -7.8      3.547      6.161
REMARK  8 active torsions:
REMARK  status: ('A' for Active; 'I' for Inactive)
REMARK    1  A    between atoms: C_2  and  C_3 
REMARK    2  A    between atoms: C_3  and  N_4 
REMARK    3  A    between atoms: N_4  and  C_5 
REMARK    4  A    between atoms: C_7  and  N_8 
REMARK    5  A    between atoms: N_8  and  C_9 
REMARK    6  A    between atoms: C_9  and  C_10 
REMARK    7  A    between atoms: C_10  and  C_11 
REMARK    8  A    between atoms: C_14  and  O_15 
ROOT
HETATM    1  C   UNL     1      -6.214  -0.997 -34.290  1.00  0.00     0.119 A 
HETATM    2  N   UNL     1      -5.414  -0.068 -33.732  1.00  0.00    -0.207 NA
HETATM    3  C   UNL     1      -4.235  -0.473 -33.249  1.00  0.00     0.181 A 
HETATM    4  N   UNL     1      -3.832  -1.739 -33.265  1.00  0.00    -0.330 N 
HETATM    5  H   UNL     1      -2.955  -1.950 -32.807  1.00  0.00     0.168 HD
HETATM    6  C   UNL     1      -4.574  -2.695 -33.832  1.00  0.00     0.048 A 
HETATM    7  C   UNL     1      -5.820  -2.351 -34.392  1.00  0.00     0.031 A 
HETATM    8  C   UNL     1      -4.106  -4.017 -33.872  1.00  0.00     0.030 A 
HETATM    9  C   UNL     1      -4.869  -5.010 -34.484  1.00  0.00     0.002 A 
HETATM   10  C   UNL     1      -6.095  -4.688 -35.059  1.00  0.00     0.001 A 
HETATM   11  C   UNL     1      -6.569  -3.375 -35.015  1.00  0.00     0.017 A 
ENDROOT
BRANCH   3  12
HETATM   12  N   UNL     1      -3.426   0.480 -32.643  1.00  0.00    -0.262 NA
HETATM   13  H   UNL     1      -2.533  -0.001 -32.494  1.00  0.00     0.130 HD
BRANCH  12  14
HETATM   14  C   UNL     1      -3.948   1.008 -31.379  1.00  0.00     0.100 C 
BRANCH  14  15
HETATM   15  C   UNL     1      -3.833   2.537 -31.348  1.00  0.00     0.053 C 
BRANCH  15  16
HETATM   16  C   UNL     1      -4.936   3.187 -32.144  1.00  0.00    -0.057 A 
HETATM   17  C   UNL     1      -4.650   3.918 -33.302  1.00  0.00     0.010 A 
HETATM   18  C   UNL     1      -5.677   4.548 -34.008  1.00  0.00     0.037 A 
HETATM   19  C   UNL     1      -7.002   4.450 -33.582  1.00  0.00     0.068 A 
HETATM   20  C   UNL     1      -7.295   3.714 -32.435  1.00  0.00     0.037 A 
HETATM   21  C   UNL     1      -6.268   3.088 -31.720  1.00  0.00     0.010 A 
BRANCH  19  22
HETATM   22  O   UNL     1      -7.905   5.118 -34.362  1.00  0.00    -0.356 OA
HETATM   23  C   UNL     1      -9.281   4.824 -34.153  1.00  0.00     0.210 C 
ENDBRANCH  19  22
ENDBRANCH  15  16
ENDBRANCH  14  15
ENDBRANCH  12  14
ENDBRANCH   3  12
BRANCH   1  24
HETATM   24  N   UNL     1      -7.445  -0.599 -34.829  1.00  0.00    -0.277 NA
HETATM   25  H   UNL     1      -8.206  -1.153 -34.441  1.00  0.00     0.129 HD
BRANCH  24  26
HETATM   26  C   UNL     1      -7.753   0.831 -34.786  1.00  0.00     0.093 C 
BRANCH  26  27
HETATM   27  C   UNL     1      -9.144   1.051 -34.188  1.00  0.00     0.010 C 
HETATM   28  C   UNL     1      -9.401   0.191 -32.958  1.00  0.00     0.006 C 
ENDBRANCH  26  27
ENDBRANCH  24  26
ENDBRANCH   1  24
TORSDOF 8
ENDMDL
MODEL 3
REMARK VINA RESULT:      -7.7      4.219      7.819
REMARK  8 active torsions:
REMARK  status: ('A' for Active; 'I' for Inactive)
REMARK    1  A    between atoms: C_2  and  C_3 
REMARK    2  A    between atoms: C_3  and  N_4 
REMARK    3  A    between atoms: N_4  and  C_5 
REMARK    4  A    between atoms: C_7  and  N_8 
REMARK    5  A    between atoms: N_8  and  C_9 
REMARK    6  A    between atoms: C_9  and  C_10 
REMARK    7  A    between atoms: C_10  and  C_11 
REMARK    8  A    between atoms: C_14  and  O_15 
ROOT
HETATM    1  C   UNL     1      -6.304  -0.892 -34.143  1.00  0.00     0.119 A 
HETATM    2  N   UNL     1      -5.436   0.016 -33.659  1.00  0.00    -0.207 NA
HETATM    3  C   UNL     1      -4.220  -0.414 -33.304  1.00  0.00     0.181 A 
HETATM    4  N   UNL     1      -3.842  -1.685 -33.378  1.00  0.00    -0.330 N 
HETATM    5  H   UNL     1      -2.926  -1.917 -33.015  1.00  0.00     0.168 HD
HETATM    6  C   UNL     1      -4.654  -2.622 -33.878  1.00  0.00     0.048 A 
HETATM    7  C   UNL     1      -5.944  -2.250 -34.303  1.00  0.00     0.031 A 
HETATM    8  C   UNL     1      -4.215  -3.950 -33.982  1.00  0.00     0.030 A 
HETATM    9  C   UNL     1      -5.053  -4.922 -34.526  1.00  0.00     0.002 A 
HETATM   10  C   UNL     1      -6.326  -4.574 -34.968  1.00  0.00     0.001 A 
HETATM   11  C   UNL     1      -6.770  -3.254 -34.859  1.00  0.00     0.017 A 
ENDROOT
BRANCH   3  12
HETATM   12  N   UNL     1      -3.338   0.518 -32.772  1.00  0.00    -0.262 NA
HETATM   13  H   UNL     1      -2.409   0.131 -32.970  1.00  0.00     0.130 HD
BRANCH  12  14
HETATM   14  C   UNL     1      -3.503   0.764 -31.336  1.00  0.00     0.100 C 
BRANCH  14  15
HETATM   15  C   UNL     1      -4.382   1.999 -31.101  1.00  0.00     0.053 C 
BRANCH  15  16
HETATM   16  C   UNL     1      -4.007   3.123 -32.033  1.00  0.00    -0.057 A 
HETATM   17  C   UNL     1      -2.729   3.690 -31.995  1.00  0.00     0.010 A 
HETATM   18  C   UNL     1      -2.407   4.758 -32.837  1.00  0.00     0.037 A 
HETATM   19  C   UNL     1      -3.346   5.268 -33.735  1.00  0.00     0.068 A 
HETATM   20  C   UNL     1      -4.618   4.700 -33.785  1.00  0.00     0.037 A 
HETATM   21  C   UNL     1      -4.946   3.635 -32.938  1.00  0.00     0.010 A 
BRANCH  19  22
HETATM   22  O   UNL     1      -2.902   6.314 -34.495  1.00  0.00    -0.356 OA
HETATM   23  C   UNL     1      -1.998   7.223 -33.877  1.00  0.00     0.210 C 
ENDBRANCH  19  22
ENDBRANCH  15  16
ENDBRANCH  14  15
ENDBRANCH  12  14
ENDBRANCH   3  12
BRANCH   1  24
HETATM   24  N   UNL     1      -7.576  -0.468 -34.548  1.00  0.00    -0.277 NA
HETATM   25  H   UNL     1      -8.046  -1.193 -35.087  1.00  0.00     0.129 HD
BRANCH  24  26
HETATM   26  C   UNL     1      -8.453   0.075 -33.509  1.00  0.00     0.093 C 
BRANCH  26  27
HETATM   27  C   UNL     1      -9.547   0.936 -34.143  1.00  0.00     0.010 C 
HETATM   28  C   UNL     1     -10.904   0.750 -33.478  1.00  0.00     0.006 C 
ENDBRANCH  26  27
ENDBRANCH  24  26
ENDBRANCH   1  24
TORSDOF 8
ENDMDL
MODEL 4
REMARK VINA RESULT:      -7.7      5.329      8.691
REMARK  8 active torsions:
REMARK  status: ('A' for Active; 'I' for Inactive)
REMARK    1  A    between atoms: C_2  and  C_3 
REMARK    2  A    between atoms: C_3  and  N_4 
REMARK    3  A    between atoms: N_4  and  C_5 
REMARK    4  A    between atoms: C_7  and  N_8 
REMARK    5  A    between atoms: N_8  and  C_9 
REMARK    6  A    between atoms: C_9  and  C_10 
REMARK    7  A    between atoms: C_10  and  C_11 
REMARK    8  A    between atoms: C_14  and  O_15 
ROOT
HETATM    1  C   UNL     1      -6.278   0.479 -33.051  1.00  0.00     0.119 A 
HETATM    2  N   UNL     1      -5.333   1.222 -32.444  1.00  0.00    -0.207 NA
HETATM    3  C   UNL     1      -4.103   0.705 -32.350  1.00  0.00     0.181 A 
HETATM    4  N   UNL     1      -3.779  -0.503 -32.797  1.00  0.00    -0.330 N 
HETATM    5  H   UNL     1      -2.840  -0.828 -32.611  1.00  0.00     0.168 HD
HETATM    6  C   UNL     1      -4.671  -1.269 -33.433  1.00  0.00     0.048 A 
HETATM    7  C   UNL     1      -5.985  -0.790 -33.601  1.00  0.00     0.031 A 
HETATM    8  C   UNL     1      -4.292  -2.524 -33.930  1.00  0.00     0.030 A 
HETATM    9  C   UNL     1      -5.216  -3.313 -34.615  1.00  0.00     0.002 A 
HETATM   10  C   UNL     1      -6.515  -2.852 -34.807  1.00  0.00     0.001 A 
HETATM   11  C   UNL     1      -6.900  -1.606 -34.306  1.00  0.00     0.017 A 
ENDROOT
BRANCH   3  12
HETATM   12  N   UNL     1      -3.138   1.457 -31.693  1.00  0.00    -0.262 NA
HETATM   13  H   UNL     1      -3.143   1.097 -30.733  1.00  0.00     0.130 HD
BRANCH  12  14
HETATM   14  C   UNL     1      -3.380   2.904 -31.706  1.00  0.00     0.100 C 
BRANCH  14  15
HETATM   15  C   UNL     1      -2.732   3.545 -32.940  1.00  0.00     0.053 C 
BRANCH  15  16
HETATM   16  C   UNL     1      -2.488   5.018 -32.728  1.00  0.00    -0.057 A 
HETATM   17  C   UNL     1      -3.033   5.683 -31.623  1.00  0.00     0.010 A 
HETATM   18  C   UNL     1      -2.833   7.056 -31.460  1.00  0.00     0.037 A 
HETATM   19  C   UNL     1      -2.080   7.784 -32.383  1.00  0.00     0.068 A 
HETATM   20  C   UNL     1      -1.526   7.125 -33.479  1.00  0.00     0.037 A 
HETATM   21  C   UNL     1      -1.730   5.751 -33.650  1.00  0.00     0.010 A 
BRANCH  19  22
HETATM   22  O   UNL     1      -1.968   9.117 -32.105  1.00  0.00    -0.356 OA
HETATM   23  C   UNL     1      -2.503   9.566 -30.865  1.00  0.00     0.210 C 
ENDBRANCH  19  22
ENDBRANCH  15  16
ENDBRANCH  14  15
ENDBRANCH  12  14
ENDBRANCH   3  12
BRANCH   1  24
HETATM   24  N   UNL     1      -7.570   1.004 -33.188  1.00  0.00    -0.277 NA
HETATM   25  H   UNL     1      -8.003   0.680 -34.051  1.00  0.00     0.129 HD
BRANCH  24  26
HETATM   26  C   UNL     1      -8.473   0.842 -32.047  1.00  0.00     0.093 C 
BRANCH  26  27
HETATM   27  C   UNL     1      -9.708   0.042 -32.464  1.00  0.00     0.010 C 
HETATM   28  C   UNL     1     -10.613   0.808 -33.419  1.00  0.00     0.006 C 
ENDBRANCH  26  27
ENDBRANCH  24  26
ENDBRANCH   1  24
TORSDOF 8
ENDMDL
MODEL 5
REMARK VINA RESULT:      -7.7      1.416      3.469
REMARK  8 active torsions:
REMARK  status: ('A' for Active; 'I' for Inactive)
REMARK    1  A    between atoms: C_2  and  C_3 
REMARK    2  A    between atoms: C_3  and  N_4 
REMARK    3  A    between atoms: N_4  and  C_5 
REMARK    4  A    between atoms: C_7  and  N_8 
REMARK    5  A    between atoms: N_8  and  C_9 
REMARK    6  A    between atoms: C_9  and  C_10 
REMARK    7  A    between atoms: C_10  and  C_11 
REMARK    8  A    between atoms: C_14  and  O_15 
ROOT
HETATM    1  C   UNL     1      -6.517   0.247 -31.534  1.00  0.00     0.119 A 
HETATM    2  N   UNL     1      -7.788   0.675 -31.411  1.00  0.00    -0.207 NA
HETATM    3  C   UNL     1      -8.669   0.279 -32.337  1.00  0.00     0.181 A 
HETATM    4  N   UNL     1      -8.348  -0.483 -33.376  1.00  0.00    -0.330 N 
HETATM    5  H   UNL     1      -9.072  -0.665 -34.057  1.00  0.00     0.168 HD
HETATM    6  C   UNL     1      -7.108  -0.958 -33.529  1.00  0.00     0.048 A 
HETATM    7  C   UNL     1      -6.122  -0.614 -32.583  1.00  0.00     0.031 A 
HETATM    8  C   UNL     1      -6.805  -1.795 -34.614  1.00  0.00     0.030 A 
HETATM    9  C   UNL     1      -5.518  -2.310 -34.761  1.00  0.00     0.002 A 
HETATM   10  C   UNL     1      -4.533  -1.996 -33.829  1.00  0.00     0.001 A 
HETATM   11  C   UNL     1      -4.828  -1.157 -32.751  1.00  0.00     0.017 A 
ENDROOT
BRANCH   3  12
HETATM   12  N   UNL     1      -9.971   0.749 -32.227  1.00  0.00    -0.262 NA
HETATM   13  H   UNL     1     -10.549  -0.010 -32.604  1.00  0.00     0.130 HD
BRANCH  12  14
HETATM   14  C   UNL     1     -10.229   2.002 -32.945  1.00  0.00     0.100 C 
BRANCH  14  15
HETATM   15  C   UNL     1     -11.051   1.735 -34.212  1.00  0.00     0.053 C 
BRANCH  15  16
HETATM   16  C   UNL     1     -12.530   1.734 -33.916  1.00  0.00    -0.057 A 
HETATM   17  C   UNL     1     -13.083   2.660 -33.025  1.00  0.00     0.010 A 
HETATM   18  C   UNL     1     -14.448   2.623 -32.729  1.00  0.00     0.037 A 
HETATM   19  C   UNL     1     -15.283   1.675 -33.323  1.00  0.00     0.068 A 
HETATM   20  C   UNL     1     -14.739   0.757 -34.220  1.00  0.00     0.037 A 
HETATM   21  C   UNL     1     -13.371   0.786 -34.513  1.00  0.00     0.010 A 
BRANCH  19  22
HETATM   22  O   UNL     1     -16.593   1.749 -32.942  1.00  0.00    -0.356 OA
HETATM   23  C   UNL     1     -16.963   2.840 -32.107  1.00  0.00     0.210 C 
ENDBRANCH  19  22
ENDBRANCH  15  16
ENDBRANCH  14  15
ENDBRANCH  12  14
ENDBRANCH   3  12
BRANCH   1  24
HETATM   24  N   UNL     1      -5.577   0.623 -30.566  1.00  0.00    -0.277 NA
HETATM   25  H   UNL     1      -4.649   0.282 -30.810  1.00  0.00     0.129 HD
BRANCH  24  26
HETATM   26  C   UNL     1      -5.543   2.038 -30.193  1.00  0.00     0.093 C 
BRANCH  26  27
HETATM   27  C   UNL     1      -4.758   2.837 -31.235  1.00  0.00     0.010 C 
HETATM   28  C   UNL     1      -3.332   2.334 -31.414  1.00  0.00     0.006 C 
ENDBRANCH  26  27
ENDBRANCH  24  26
ENDBRANCH   1  24
TORSDOF 8
ENDMDL
MODEL 6
REMARK VINA RESULT:      -7.6      1.430      3.678
REMARK  8 active torsions:
REMARK  status: ('A' for Active; 'I' for Inactive)
REMARK    1  A    between atoms: C_2  and  C_3 
REMARK    2  A    between atoms: C_3  and  N_4 
REMARK    3  A    between atoms: N_4  and  C_5 
REMARK    4  A    between atoms: C_7  and  N_8 
REMARK    5  A    between atoms: N_8  and  C_9 
REMARK    6  A    between atoms: C_9  and  C_10 
REMARK    7  A    between atoms: C_10  and  C_11 
REMARK    8  A    between atoms: C_14  and  O_15 
ROOT
HETATM    1  C   UNL     1      -4.848  -0.896 -33.805  1.00  0.00     0.119 A 
HETATM    2  N   UNL     1      -5.816   0.013 -34.030  1.00  0.00    -0.207 NA
HETATM    3  C   UNL     1      -6.965  -0.422 -34.560  1.00  0.00     0.181 A 
HETATM    4  N   UNL     1      -7.183  -1.687 -34.898  1.00  0.00    -0.330 N 
HETATM    5  H   UNL     1      -8.059  -1.897 -35.360  1.00  0.00     0.168 HD
HETATM    6  C   UNL     1      -6.268  -2.633 -34.671  1.00  0.00     0.048 A 
HETATM    7  C   UNL     1      -5.038  -2.268 -34.088  1.00  0.00     0.031 A 
HETATM    8  C   UNL     1      -6.540  -3.969 -35.001  1.00  0.00     0.030 A 
HETATM    9  C   UNL     1      -5.594  -4.960 -34.741  1.00  0.00     0.002 A 
HETATM   10  C   UNL     1      -4.379  -4.623 -34.150  1.00  0.00     0.001 A 
HETATM   11  C   UNL     1      -4.101  -3.293 -33.827  1.00  0.00     0.017 A 
ENDROOT
BRANCH   3  12
HETATM   12  N   UNL     1      -7.950   0.522 -34.823  1.00  0.00    -0.262 NA
HETATM   13  H   UNL     1      -7.449   1.293 -35.279  1.00  0.00     0.130 HD
BRANCH  12  14
HETATM   14  C   UNL     1      -8.668   1.000 -33.636  1.00  0.00     0.100 C 
BRANCH  14  15
HETATM   15  C   UNL     1      -9.484   2.254 -33.973  1.00  0.00     0.053 C 
BRANCH  15  16
HETATM   16  C   UNL     1     -10.952   2.043 -33.699  1.00  0.00    -0.057 A 
HETATM   17  C   UNL     1     -11.543   0.789 -33.891  1.00  0.00     0.010 A 
HETATM   18  C   UNL     1     -12.912   0.616 -33.673  1.00  0.00     0.037 A 
HETATM   19  C   UNL     1     -13.709   1.680 -33.249  1.00  0.00     0.068 A 
HETATM   20  C   UNL     1     -13.123   2.929 -33.046  1.00  0.00     0.037 A 
HETATM   21  C   UNL     1     -11.753   3.108 -33.270  1.00  0.00     0.010 A 
BRANCH  19  22
HETATM   22  O   UNL     1     -15.029   1.374 -33.078  1.00  0.00    -0.356 OA
HETATM   23  C   UNL     1     -15.757   2.154 -32.137  1.00  0.00     0.210 C 
ENDBRANCH  19  22
ENDBRANCH  15  16
ENDBRANCH  14  15
ENDBRANCH  12  14
ENDBRANCH   3  12
BRANCH   1  24
HETATM   24  N   UNL     1      -3.643  -0.475 -33.227  1.00  0.00    -0.277 NA
HETATM   25  H   UNL     1      -2.950  -0.270 -33.944  1.00  0.00     0.129 HD
BRANCH  24  26
HETATM   26  C   UNL     1      -3.724   0.604 -32.241  1.00  0.00     0.093 C 
BRANCH  26  27
HETATM   27  C   UNL     1      -4.081   0.034 -30.867  1.00  0.00     0.010 C 
HETATM   28  C   UNL     1      -5.421   0.536 -30.349  1.00  0.00     0.006 C 
ENDBRANCH  26  27
ENDBRANCH  24  26
ENDBRANCH   1  24
TORSDOF 8
ENDMDL
MODEL 7
REMARK VINA RESULT:      -7.6     13.992     15.141
REMARK  8 active torsions:
REMARK  status: ('A' for Active; 'I' for Inactive)
REMARK    1  A    between atoms: C_2  and  C_3 
REMARK    2  A    between atoms: C_3  and  N_4 
REMARK    3  A    between atoms: N_4  and  C_5 
REMARK    4  A    between atoms: C_7  and  N_8 
REMARK    5  A    between atoms: N_8  and  C_9 
REMARK    6  A    between atoms: C_9  and  C_10 
REMARK    7  A    between atoms: C_10  and  C_11 
REMARK    8  A    between atoms: C_14  and  O_15 
ROOT
HETATM    1  C   UNL     1      -3.217 -12.638 -37.743  1.00  0.00     0.119 A 
HETATM    2  N   UNL     1      -4.084 -12.709 -36.714  1.00  0.00    -0.207 NA
HETATM    3  C   UNL     1      -3.804 -13.564 -35.724  1.00  0.00     0.181 A 
HETATM    4  N   UNL     1      -2.739 -14.357 -35.721  1.00  0.00    -0.330 N 
HETATM    5  H   UNL     1      -2.658 -15.019 -34.960  1.00  0.00     0.168 HD
HETATM    6  C   UNL     1      -1.833 -14.306 -36.702  1.00  0.00     0.048 A 
HETATM    7  C   UNL     1      -2.035 -13.412 -37.772  1.00  0.00     0.031 A 
HETATM    8  C   UNL     1      -0.696 -15.126 -36.653  1.00  0.00     0.030 A 
HETATM    9  C   UNL     1       0.261 -15.055 -37.664  1.00  0.00     0.002 A 
HETATM   10  C   UNL     1       0.090 -14.166 -38.722  1.00  0.00     0.001 A 
HETATM   11  C   UNL     1      -1.044 -13.353 -38.779  1.00  0.00     0.017 A 
ENDROOT
BRANCH   3  12
HETATM   12  N   UNL     1      -4.716 -13.662 -34.682  1.00  0.00    -0.262 NA
HETATM   13  H   UNL     1      -4.565 -14.601 -34.298  1.00  0.00     0.130 HD
BRANCH  12  14
HETATM   14  C   UNL     1      -6.117 -13.483 -35.078  1.00  0.00     0.100 C 
BRANCH  14  15
HETATM   15  C   UNL     1      -6.647 -14.750 -35.761  1.00  0.00     0.053 C 
BRANCH  15  16
HETATM   16  C   UNL     1      -7.427 -14.415 -37.007  1.00  0.00    -0.057 A 
HETATM   17  C   UNL     1      -7.557 -13.090 -37.438  1.00  0.00     0.010 A 
HETATM   18  C   UNL     1      -8.315 -12.790 -38.572  1.00  0.00     0.037 A 
HETATM   19  C   UNL     1      -8.944 -13.801 -39.299  1.00  0.00     0.068 A 
HETATM   20  C   UNL     1      -8.810 -15.124 -38.881  1.00  0.00     0.037 A 
HETATM   21  C   UNL     1      -8.057 -15.428 -37.742  1.00  0.00     0.010 A 
BRANCH  19  22
HETATM   22  O   UNL     1      -9.657 -13.368 -40.382  1.00  0.00    -0.356 OA
HETATM   23  C   UNL     1     -10.437 -12.190 -40.213  1.00  0.00     0.210 C 
ENDBRANCH  19  22
ENDBRANCH  15  16
ENDBRANCH  14  15
ENDBRANCH  12  14
ENDBRANCH   3  12
BRANCH   1  24
HETATM   24  N   UNL     1      -3.470 -11.733 -38.782  1.00  0.00    -0.277 NA
HETATM   25  H   UNL     1      -2.699 -11.721 -39.447  1.00  0.00     0.129 HD
BRANCH  24  26
HETATM   26  C   UNL     1      -4.759 -11.854 -39.465  1.00  0.00     0.093 C 
BRANCH  26  27
HETATM   27  C   UNL     1      -4.839 -13.191 -40.204  1.00  0.00     0.010 C 
HETATM   28  C   UNL     1      -5.857 -13.180 -41.336  1.00  0.00     0.006 C 
ENDBRANCH  26  27
ENDBRANCH  24  26
ENDBRANCH   1  24
TORSDOF 8
ENDMDL
MODEL 8
REMARK VINA RESULT:      -7.5      4.220      6.514
REMARK  8 active torsions:
REMARK  status: ('A' for Active; 'I' for Inactive)
REMARK    1  A    between atoms: C_2  and  C_3 
REMARK    2  A    between atoms: C_3  and  N_4 
REMARK    3  A    between atoms: N_4  and  C_5 
REMARK    4  A    between atoms: C_7  and  N_8 
REMARK    5  A    between atoms: N_8  and  C_9 
REMARK    6  A    between atoms: C_9  and  C_10 
REMARK    7  A    between atoms: C_10  and  C_11 
REMARK    8  A    between atoms: C_14  and  O_15 
ROOT
HETATM    1  C   UNL     1      -4.781  -0.968 -33.850  1.00  0.00     0.119 A 
HETATM    2  N   UNL     1      -5.754  -0.089 -34.159  1.00  0.00    -0.207 NA
HETATM    3  C   UNL     1      -6.862  -0.568 -34.736  1.00  0.00     0.181 A 
HETATM    4  N   UNL     1      -7.036  -1.849 -35.040  1.00  0.00    -0.330 N 
HETATM    5  H   UNL     1      -7.880  -2.095 -35.541  1.00  0.00     0.168 HD
HETATM    6  C   UNL     1      -6.115  -2.766 -34.729  1.00  0.00     0.048 A 
HETATM    7  C   UNL     1      -4.927  -2.353 -34.094  1.00  0.00     0.031 A 
HETATM    8  C   UNL     1      -6.341  -4.118 -35.025  1.00  0.00     0.030 A 
HETATM    9  C   UNL     1      -5.391  -5.078 -34.679  1.00  0.00     0.002 A 
HETATM   10  C   UNL     1      -4.218  -4.694 -34.036  1.00  0.00     0.001 A 
HETATM   11  C   UNL     1      -3.985  -3.347 -33.745  1.00  0.00     0.017 A 
ENDROOT
BRANCH   3  12
HETATM   12  N   UNL     1      -7.850   0.344 -35.085  1.00  0.00    -0.262 NA
HETATM   13  H   UNL     1      -7.355   1.063 -35.624  1.00  0.00     0.130 HD
BRANCH  12  14
HETATM   14  C   UNL     1      -8.557   0.943 -33.948  1.00  0.00     0.100 C 
BRANCH  14  15
HETATM   15  C   UNL     1      -8.525   2.473 -34.043  1.00  0.00     0.053 C 
BRANCH  15  16
HETATM   16  C   UNL     1      -7.315   3.041 -33.345  1.00  0.00    -0.057 A 
HETATM   17  C   UNL     1      -7.323   3.266 -31.964  1.00  0.00     0.010 A 
HETATM   18  C   UNL     1      -6.210   3.829 -31.336  1.00  0.00     0.037 A 
HETATM   19  C   UNL     1      -5.070   4.164 -32.068  1.00  0.00     0.068 A 
HETATM   20  C   UNL     1      -5.051   3.933 -33.443  1.00  0.00     0.037 A 
HETATM   21  C   UNL     1      -6.168   3.375 -34.077  1.00  0.00     0.010 A 
BRANCH  19  22
HETATM   22  O   UNL     1      -4.057   4.710 -31.331  1.00  0.00    -0.356 OA
HETATM   23  C   UNL     1      -2.740   4.238 -31.593  1.00  0.00     0.210 C 
ENDBRANCH  19  22
ENDBRANCH  15  16
ENDBRANCH  14  15
ENDBRANCH  12  14
ENDBRANCH   3  12
BRANCH   1  24
HETATM   24  N   UNL     1      -3.619  -0.501 -33.222  1.00  0.00    -0.277 NA
HETATM   25  H   UNL     1      -2.888  -0.315 -33.906  1.00  0.00     0.129 HD
BRANCH  24  26
HETATM   26  C   UNL     1      -3.775   0.618 -32.292  1.00  0.00     0.093 C 
BRANCH  26  27
HETATM   27  C   UNL     1      -4.077   0.095 -30.887  1.00  0.00     0.010 C 
HETATM   28  C   UNL     1      -5.497   0.403 -30.435  1.00  0.00     0.006 C 
ENDBRANCH  26  27
ENDBRANCH  24  26
ENDBRANCH   1  24
TORSDOF 8
ENDMDL
MODEL 9
REMARK VINA RESULT:      -7.5      2.967      5.445
REMARK  8 active torsions:
REMARK  status: ('A' for Active; 'I' for Inactive)
REMARK    1  A    between atoms: C_2  and  C_3 
REMARK    2  A    between atoms: C_3  and  N_4 
REMARK    3  A    between atoms: N_4  and  C_5 
REMARK    4  A    between atoms: C_7  and  N_8 
REMARK    5  A    between atoms: N_8  and  C_9 
REMARK    6  A    between atoms: C_9  and  C_10 
REMARK    7  A    between atoms: C_10  and  C_11 
REMARK    8  A    between atoms: C_14  and  O_15 
ROOT
HETATM    1  C   UNL     1      -6.224  -1.007 -34.304  1.00  0.00     0.119 A 
HETATM    2  N   UNL     1      -5.479  -0.043 -33.729  1.00  0.00    -0.207 NA
HETATM    3  C   UNL     1      -4.307  -0.402 -33.192  1.00  0.00     0.181 A 
HETATM    4  N   UNL     1      -3.861  -1.652 -33.174  1.00  0.00    -0.330 N 
HETATM    5  H   UNL     1      -2.997  -1.828 -32.679  1.00  0.00     0.168 HD
HETATM    6  C   UNL     1      -4.547  -2.641 -33.755  1.00  0.00     0.048 A 
HETATM    7  C   UNL     1      -5.780  -2.348 -34.370  1.00  0.00     0.031 A 
HETATM    8  C   UNL     1      -4.034  -3.947 -33.757  1.00  0.00     0.030 A 
HETATM    9  C   UNL     1      -4.737  -4.974 -34.385  1.00  0.00     0.002 A 
HETATM   10  C   UNL     1      -5.949  -4.702 -35.012  1.00  0.00     0.001 A 
HETATM   11  C   UNL     1      -6.469  -3.406 -35.007  1.00  0.00     0.017 A 
ENDROOT
BRANCH   3  12
HETATM   12  N   UNL     1      -3.556   0.587 -32.570  1.00  0.00    -0.262 NA
HETATM   13  H   UNL     1      -3.376   0.217 -31.630  1.00  0.00     0.130 HD
BRANCH  12  14
HETATM   14  C   UNL     1      -4.214   1.896 -32.495  1.00  0.00     0.100 C 
BRANCH  14  15
HETATM   15  C   UNL     1      -4.869   2.089 -31.121  1.00  0.00     0.053 C 
BRANCH  15  16
HETATM   16  C   UNL     1      -6.244   2.693 -31.250  1.00  0.00    -0.057 A 
HETATM   17  C   UNL     1      -6.648   3.310 -32.440  1.00  0.00     0.010 A 
HETATM   18  C   UNL     1      -7.910   3.901 -32.533  1.00  0.00     0.037 A 
HETATM   19  C   UNL     1      -8.793   3.877 -31.452  1.00  0.00     0.068 A 
HETATM   20  C   UNL     1      -8.401   3.254 -30.268  1.00  0.00     0.037 A 
HETATM   21  C   UNL     1      -7.134   2.667 -30.168  1.00  0.00     0.010 A 
BRANCH  19  22
HETATM   22  O   UNL     1      -9.990   4.495 -31.677  1.00  0.00    -0.356 OA
HETATM   23  C   UNL     1     -11.048   3.689 -32.184  1.00  0.00     0.210 C 
ENDBRANCH  19  22
ENDBRANCH  15  16
ENDBRANCH  14  15
ENDBRANCH  12  14
ENDBRANCH   3  12
BRANCH   1  24
HETATM   24  N   UNL     1      -7.444  -0.659 -34.897  1.00  0.00    -0.277 NA
HETATM   25  H   UNL     1      -8.169  -1.333 -34.657  1.00  0.00     0.129 HD
BRANCH  24  26
HETATM   26  C   UNL     1      -7.909   0.714 -34.696  1.00  0.00     0.093 C 
BRANCH  26  27
HETATM   27  C   UNL     1      -9.271   0.712 -34.001  1.00  0.00     0.010 C 
HETATM   28  C   UNL     1      -9.183   0.323 -32.531  1.00  0.00     0.006 C 
ENDBRANCH  26  27
ENDBRANCH  24  26
ENDBRANCH   1  24
TORSDOF 8
ENDMDL
MODEL 10
REMARK VINA RESULT:      -7.4      5.737      9.663
REMARK  8 active torsions:
REMARK  status: ('A' for Active; 'I' for Inactive)
REMARK    1  A    between atoms: C_2  and  C_3 
REMARK    2  A    between atoms: C_3  and  N_4 
REMARK    3  A    between atoms: N_4  and  C_5 
REMARK    4  A    between atoms: C_7  and  N_8 
REMARK    5  A    between atoms: N_8  and  C_9 
REMARK    6  A    between atoms: C_9  and  C_10 
REMARK    7  A    between atoms: C_10  and  C_11 
REMARK    8  A    between atoms: C_14  and  O_15 
ROOT
HETATM    1  C   UNL     1      -6.050   1.234 -33.363  1.00  0.00     0.119 A 
HETATM    2  N   UNL     1      -5.147   1.958 -32.674  1.00  0.00    -0.207 NA
HETATM    3  C   UNL     1      -4.004   1.357 -32.326  1.00  0.00     0.181 A 
HETATM    4  N   UNL     1      -3.732   0.087 -32.600  1.00  0.00    -0.330 N 
HETATM    5  H   UNL     1      -2.870  -0.292 -32.228  1.00  0.00     0.168 HD
HETATM    6  C   UNL     1      -4.580  -0.668 -33.306  1.00  0.00     0.048 A 
HETATM    7  C   UNL     1      -5.797  -0.105 -33.738  1.00  0.00     0.031 A 
HETATM    8  C   UNL     1      -4.249  -1.995 -33.616  1.00  0.00     0.030 A 
HETATM    9  C   UNL     1      -5.122  -2.774 -34.373  1.00  0.00     0.002 A 
HETATM   10  C   UNL     1      -6.323  -2.233 -34.824  1.00  0.00     0.001 A 
HETATM   11  C   UNL     1      -6.660  -0.914 -34.511  1.00  0.00     0.017 A 
ENDROOT
BRANCH   3  12
HETATM   12  N   UNL     1      -3.089   2.095 -31.585  1.00  0.00    -0.262 NA
HETATM   13  H   UNL     1      -3.129   1.682 -30.647  1.00  0.00     0.130 HD
BRANCH  12  14
HETATM   14  C   UNL     1      -3.368   3.534 -31.531  1.00  0.00     0.100 C 
BRANCH  14  15
HETATM   15  C   UNL     1      -2.361   4.308 -32.391  1.00  0.00     0.053 C 
BRANCH  15  16
HETATM   16  C   UNL     1      -1.541   5.257 -31.554  1.00  0.00    -0.057 A 
HETATM   17  C   UNL     1      -0.146   5.285 -31.662  1.00  0.00     0.010 A 
HETATM   18  C   UNL     1       0.605   6.140 -30.853  1.00  0.00     0.037 A 
HETATM   19  C   UNL     1      -0.018   6.987 -29.935  1.00  0.00     0.068 A 
HETATM   20  C   UNL     1      -1.409   6.971 -29.830  1.00  0.00     0.037 A 
HETATM   21  C   UNL     1      -2.164   6.110 -30.635  1.00  0.00     0.010 A 
BRANCH  19  22
HETATM   22  O   UNL     1       0.834   7.767 -29.205  1.00  0.00    -0.356 OA
HETATM   23  C   UNL     1       0.756   7.658 -27.788  1.00  0.00     0.210 C 
ENDBRANCH  19  22
ENDBRANCH  15  16
ENDBRANCH  14  15
ENDBRANCH  12  14
ENDBRANCH   3  12
BRANCH   1  24
HETATM   24  N   UNL     1      -7.246   1.844 -33.764  1.00  0.00    -0.277 NA
HETATM   25  H   UNL     1      -7.548   1.488 -34.669  1.00  0.00     0.129 HD
BRANCH  24  26
HETATM   26  C   UNL     1      -8.345   1.841 -32.798  1.00  0.00     0.093 C 
BRANCH  26  27
HETATM   27  C   UNL     1      -9.588   1.200 -33.419  1.00  0.00     0.010 C 
HETATM   28  C   UNL     1      -9.972  -0.112 -32.750  1.00  0.00     0.006 C 
ENDBRANCH  26  27
ENDBRANCH  24  26
ENDBRANCH   1  24
TORSDOF 8
ENDMDL
