MODEL 1
REMARK VINA RESULT:      -8.2      0.000      0.000
REMARK  7 active torsions:
REMARK  status: ('A' for Active; 'I' for Inactive)
REMARK    1  A    between atoms: C_4  and  O_5 
REMARK    2  A    between atoms: O_5  and  C_6 
REMARK    3  A    between atoms: C_9  and  N_10 
REMARK       I    between atoms: N_10  and  C_11 
REMARK    4  A    between atoms: C_11  and  C_12 
REMARK    5  A    between atoms: C_12  and  C_13 
REMARK    6  A    between atoms: C_13  and  N_14 
REMARK       I    between atoms: N_14  and  C_15 
REMARK    7  A    between atoms: C_15  and  C_16 
ROOT
HETATM    1  N   UNL     1      -8.642   1.636 -31.345  1.00  0.00    -0.327 N 
HETATM    2  C   UNL     1      -8.632   2.943 -30.900  1.00  0.00     0.223 C 
HETATM    3  O   UNL     1      -7.703   3.741 -30.972  1.00  0.00    -0.273 OA
HETATM    4  H   UNL     1      -9.542   1.158 -31.303  1.00  0.00     0.169 HD
ENDROOT
BRANCH   1   5
HETATM    5  C   UNL     1      -7.577   0.913 -31.918  1.00  0.00     0.034 A 
HETATM    6  C   UNL     1      -6.752   0.045 -31.202  1.00  0.00     0.032 A 
HETATM    7  C   UNL     1      -5.719  -0.643 -31.848  1.00  0.00     0.039 A 
HETATM    8  C   UNL     1      -5.502  -0.476 -33.216  1.00  0.00     0.076 A 
HETATM    9  C   UNL     1      -6.313   0.402 -33.935  1.00  0.00     0.039 A 
HETATM   10  C   UNL     1      -7.354   1.082 -33.290  1.00  0.00     0.032 A 
BRANCH   8  11
HETATM   11  O   UNL     1      -4.429  -1.168 -33.735  1.00  0.00    -0.311 OA
BRANCH  11  12
HETATM   12  C   UNL     1      -4.586  -2.503 -34.010  1.00  0.00     0.076 A 
HETATM   13  C   UNL     1      -3.686  -3.395 -33.426  1.00  0.00     0.037 A 
HETATM   14  C   UNL     1      -3.833  -4.766 -33.639  1.00  0.00     0.003 A 
HETATM   15  C   UNL     1      -4.888  -5.240 -34.419  1.00  0.00     0.000 A 
HETATM   16  C   UNL     1      -5.803  -4.347 -34.981  1.00  0.00     0.003 A 
HETATM   17  C   UNL     1      -5.659  -2.975 -34.768  1.00  0.00     0.037 A 
ENDBRANCH  11  12
ENDBRANCH   8  11
ENDBRANCH   1   5
BRANCH   2  18
HETATM   18  C   UNL     1      -9.952   3.362 -30.292  1.00  0.00     0.123 C 
BRANCH  18  19
HETATM   19  C   UNL     1     -10.829   4.115 -31.283  1.00  0.00     0.132 C 
BRANCH  19  20
HETATM   20  N   UNL     1     -11.813   3.368 -32.051  1.00  0.00    -0.355 N 
HETATM   21  C   UNL     1     -11.553   2.589 -33.158  1.00  0.00     0.275 C 
HETATM   22  O   UNL     1     -10.515   2.686 -33.808  1.00  0.00    -0.265 OA
HETATM   23  H   UNL     1     -12.691   3.158 -31.586  1.00  0.00     0.162 HD
BRANCH  21  24
HETATM   24  C   UNL     1     -12.620   1.670 -33.496  1.00  0.00     0.142 A 
HETATM   25  O   UNL     1     -12.388   0.319 -33.446  1.00  0.00    -0.317 OA
HETATM   26  C   UNL     1     -13.538  -0.299 -33.821  1.00  0.00     0.143 A 
HETATM   27  C   UNL     1     -14.510   0.627 -34.115  1.00  0.00     0.027 A 
HETATM   28  C   UNL     1     -13.920   1.897 -33.907  1.00  0.00     0.045 A 
ENDBRANCH  21  24
ENDBRANCH  19  20
ENDBRANCH  18  19
ENDBRANCH   2  18
TORSDOF 7
ENDMDL
MODEL 2
REMARK VINA RESULT:      -8.1      6.372      9.073
REMARK  7 active torsions:
REMARK  status: ('A' for Active; 'I' for Inactive)
REMARK    1  A    between atoms: C_4  and  O_5 
REMARK    2  A    between atoms: O_5  and  C_6 
REMARK    3  A    between atoms: C_9  and  N_10 
REMARK       I    between atoms: N_10  and  C_11 
REMARK    4  A    between atoms: C_11  and  C_12 
REMARK    5  A    between atoms: C_12  and  C_13 
REMARK    6  A    between atoms: C_13  and  N_14 
REMARK       I    between atoms: N_14  and  C_15 
REMARK    7  A    between atoms: C_15  and  C_16 
ROOT
HETATM    1  N   UNL     1      -3.284   5.100 -32.900  1.00  0.00    -0.327 N 
HETATM    2  C   UNL     1      -2.893   5.645 -34.107  1.00  0.00     0.223 C 
HETATM    3  O   UNL     1      -3.053   5.160 -35.223  1.00  0.00    -0.273 OA
HETATM    4  H   UNL     1      -3.169   5.700 -32.083  1.00  0.00     0.169 HD
ENDROOT
BRANCH   1   5
HETATM    5  C   UNL     1      -3.889   3.848 -32.675  1.00  0.00     0.034 A 
HETATM    6  C   UNL     1      -5.132   3.482 -33.191  1.00  0.00     0.032 A 
HETATM    7  C   UNL     1      -5.661   2.213 -32.928  1.00  0.00     0.039 A 
HETATM    8  C   UNL     1      -4.952   1.295 -32.152  1.00  0.00     0.076 A 
HETATM    9  C   UNL     1      -3.715   1.661 -31.621  1.00  0.00     0.039 A 
HETATM   10  C   UNL     1      -3.182   2.927 -31.894  1.00  0.00     0.032 A 
BRANCH   8  11
HETATM   11  O   UNL     1      -5.590   0.096 -31.922  1.00  0.00    -0.311 OA
BRANCH  11  12
HETATM   12  C   UNL     1      -5.638  -0.823 -32.940  1.00  0.00     0.076 A 
HETATM   13  C   UNL     1      -4.469  -1.527 -33.233  1.00  0.00     0.037 A 
HETATM   14  C   UNL     1      -4.480  -2.505 -34.228  1.00  0.00     0.003 A 
HETATM   15  C   UNL     1      -5.662  -2.786 -34.913  1.00  0.00     0.000 A 
HETATM   16  C   UNL     1      -6.837  -2.099 -34.600  1.00  0.00     0.003 A 
HETATM   17  C   UNL     1      -6.829  -1.122 -33.603  1.00  0.00     0.037 A 
ENDBRANCH  11  12
ENDBRANCH   8  11
ENDBRANCH   1   5
BRANCH   2  18
HETATM   18  C   UNL     1      -2.227   6.994 -33.949  1.00  0.00     0.123 C 
BRANCH  18  19
HETATM   19  C   UNL     1      -0.822   6.878 -33.373  1.00  0.00     0.132 C 
BRANCH  19  20
HETATM   20  N   UNL     1      -0.645   7.023 -31.937  1.00  0.00    -0.355 N 
HETATM   21  C   UNL     1      -0.332   6.011 -31.054  1.00  0.00     0.275 C 
HETATM   22  O   UNL     1      -0.476   4.823 -31.330  1.00  0.00    -0.265 OA
HETATM   23  H   UNL     1      -0.441   7.957 -31.594  1.00  0.00     0.162 HD
BRANCH  21  24
HETATM   24  C   UNL     1       0.154   6.477 -29.772  1.00  0.00     0.142 A 
HETATM   25  O   UNL     1       0.225   5.600 -28.719  1.00  0.00    -0.317 OA
HETATM   26  C   UNL     1       0.694   6.296 -27.650  1.00  0.00     0.143 A 
HETATM   27  C   UNL     1       0.925   7.607 -27.991  1.00  0.00     0.027 A 
HETATM   28  C   UNL     1       0.576   7.726 -29.358  1.00  0.00     0.045 A 
ENDBRANCH  21  24
ENDBRANCH  19  20
ENDBRANCH  18  19
ENDBRANCH   2  18
TORSDOF 7
ENDMDL
MODEL 3
REMARK VINA RESULT:      -7.8      4.458      7.165
REMARK  7 active torsions:
REMARK  status: ('A' for Active; 'I' for Inactive)
REMARK    1  A    between atoms: C_4  and  O_5 
REMARK    2  A    between atoms: O_5  and  C_6 
REMARK    3  A    between atoms: C_9  and  N_10 
REMARK       I    between atoms: N_10  and  C_11 
REMARK    4  A    between atoms: C_11  and  C_12 
REMARK    5  A    between atoms: C_12  and  C_13 
REMARK    6  A    between atoms: C_13  and  N_14 
REMARK       I    between atoms: N_14  and  C_15 
REMARK    7  A    between atoms: C_15  and  C_16 
ROOT
HETATM    1  N   UNL     1      -5.751   2.666 -30.971  1.00  0.00    -0.327 N 
HETATM    2  C   UNL     1      -6.602   3.590 -30.397  1.00  0.00     0.223 C 
HETATM    3  O   UNL     1      -7.818   3.665 -30.544  1.00  0.00    -0.273 OA
HETATM    4  H   UNL     1      -4.785   2.688 -30.644  1.00  0.00     0.169 HD
ENDROOT
BRANCH   1   5
HETATM    5  C   UNL     1      -6.076   1.654 -31.895  1.00  0.00     0.034 A 
HETATM    6  C   UNL     1      -6.443   0.358 -31.532  1.00  0.00     0.032 A 
HETATM    7  C   UNL     1      -6.759  -0.589 -32.513  1.00  0.00     0.039 A 
HETATM    8  C   UNL     1      -6.716  -0.251 -33.866  1.00  0.00     0.076 A 
HETATM    9  C   UNL     1      -6.335   1.039 -34.237  1.00  0.00     0.039 A 
HETATM   10  C   UNL     1      -6.030   1.989 -33.254  1.00  0.00     0.032 A 
BRANCH   8  11
HETATM   11  O   UNL     1      -7.003  -1.275 -34.742  1.00  0.00    -0.311 OA
BRANCH  11  12
HETATM   12  C   UNL     1      -6.255  -2.423 -34.670  1.00  0.00     0.076 A 
HETATM   13  C   UNL     1      -4.926  -2.306 -34.260  1.00  0.00     0.037 A 
HETATM   14  C   UNL     1      -4.139  -3.450 -34.127  1.00  0.00     0.003 A 
HETATM   15  C   UNL     1      -4.689  -4.707 -34.387  1.00  0.00     0.000 A 
HETATM   16  C   UNL     1      -6.026  -4.823 -34.770  1.00  0.00     0.003 A 
HETATM   17  C   UNL     1      -6.816  -3.680 -34.903  1.00  0.00     0.037 A 
ENDBRANCH  11  12
ENDBRANCH   8  11
ENDBRANCH   1   5
BRANCH   2  18
HETATM   18  C   UNL     1      -5.882   4.561 -29.489  1.00  0.00     0.123 C 
BRANCH  18  19
HETATM   19  C   UNL     1      -5.136   5.635 -30.269  1.00  0.00     0.132 C 
BRANCH  19  20
HETATM   20  N   UNL     1      -3.682   5.622 -30.257  1.00  0.00    -0.355 N 
HETATM   21  C   UNL     1      -2.871   5.065 -31.222  1.00  0.00     0.275 C 
HETATM   22  O   UNL     1      -3.280   4.245 -32.039  1.00  0.00    -0.265 OA
HETATM   23  H   UNL     1      -3.225   6.314 -29.672  1.00  0.00     0.162 HD
BRANCH  21  24
HETATM   24  C   UNL     1      -1.495   5.514 -31.166  1.00  0.00     0.142 A 
HETATM   25  O   UNL     1      -0.505   4.619 -30.845  1.00  0.00    -0.317 OA
HETATM   26  C   UNL     1       0.669   5.302 -30.851  1.00  0.00     0.143 A 
HETATM   27  C   UNL     1       0.458   6.623 -31.167  1.00  0.00     0.027 A 
HETATM   28  C   UNL     1      -0.936   6.762 -31.370  1.00  0.00     0.045 A 
ENDBRANCH  21  24
ENDBRANCH  19  20
ENDBRANCH  18  19
ENDBRANCH   2  18
TORSDOF 7
ENDMDL
MODEL 4
REMARK VINA RESULT:      -7.7      3.764      6.352
REMARK  7 active torsions:
REMARK  status: ('A' for Active; 'I' for Inactive)
REMARK    1  A    between atoms: C_4  and  O_5 
REMARK    2  A    between atoms: O_5  and  C_6 
REMARK    3  A    between atoms: C_9  and  N_10 
REMARK       I    between atoms: N_10  and  C_11 
REMARK    4  A    between atoms: C_11  and  C_12 
REMARK    5  A    between atoms: C_12  and  C_13 
REMARK    6  A    between atoms: C_13  and  N_14 
REMARK       I    between atoms: N_14  and  C_15 
REMARK    7  A    between atoms: C_15  and  C_16 
ROOT
HETATM    1  N   UNL     1      -7.053   3.167 -31.756  1.00  0.00    -0.327 N 
HETATM    2  C   UNL     1      -6.201   3.455 -30.707  1.00  0.00     0.223 C 
HETATM    3  O   UNL     1      -5.229   2.801 -30.345  1.00  0.00    -0.273 OA
HETATM    4  H   UNL     1      -7.741   3.887 -31.980  1.00  0.00     0.169 HD
ENDROOT
BRANCH   1   5
HETATM    5  C   UNL     1      -7.035   2.036 -32.594  1.00  0.00     0.034 A 
HETATM    6  C   UNL     1      -6.650   2.067 -33.934  1.00  0.00     0.032 A 
HETATM    7  C   UNL     1      -6.652   0.895 -34.699  1.00  0.00     0.039 A 
HETATM    8  C   UNL     1      -7.034  -0.322 -34.132  1.00  0.00     0.076 A 
HETATM    9  C   UNL     1      -7.435  -0.357 -32.796  1.00  0.00     0.039 A 
HETATM   10  C   UNL     1      -7.422   0.814 -32.030  1.00  0.00     0.032 A 
BRANCH   8  11
HETATM   11  O   UNL     1      -7.041  -1.399 -34.990  1.00  0.00    -0.311 OA
BRANCH  11  12
HETATM   12  C   UNL     1      -6.229  -2.468 -34.703  1.00  0.00     0.076 A 
HETATM   13  C   UNL     1      -6.707  -3.744 -35.004  1.00  0.00     0.037 A 
HETATM   14  C   UNL     1      -5.900  -4.857 -34.773  1.00  0.00     0.003 A 
HETATM   15  C   UNL     1      -4.614  -4.690 -34.258  1.00  0.00     0.000 A 
HETATM   16  C   UNL     1      -4.128  -3.410 -33.983  1.00  0.00     0.003 A 
HETATM   17  C   UNL     1      -4.933  -2.293 -34.215  1.00  0.00     0.037 A 
ENDBRANCH  11  12
ENDBRANCH   8  11
ENDBRANCH   1   5
BRANCH   2  18
HETATM   18  C   UNL     1      -6.563   4.741 -29.999  1.00  0.00     0.123 C 
BRANCH  18  19
HETATM   19  C   UNL     1      -5.842   5.946 -30.588  1.00  0.00     0.132 C 
BRANCH  19  20
HETATM   20  N   UNL     1      -4.687   5.718 -31.441  1.00  0.00    -0.355 N 
HETATM   21  C   UNL     1      -4.682   5.738 -32.819  1.00  0.00     0.275 C 
HETATM   22  O   UNL     1      -5.709   5.641 -33.487  1.00  0.00    -0.265 OA
HETATM   23  H   UNL     1      -3.773   5.847 -31.016  1.00  0.00     0.162 HD
BRANCH  21  24
HETATM   24  C   UNL     1      -3.362   5.859 -33.403  1.00  0.00     0.142 A 
HETATM   25  O   UNL     1      -2.646   7.015 -33.217  1.00  0.00    -0.317 OA
HETATM   26  C   UNL     1      -1.467   6.865 -33.875  1.00  0.00     0.143 A 
HETATM   27  C   UNL     1      -1.408   5.636 -34.487  1.00  0.00     0.027 A 
HETATM   28  C   UNL     1      -2.629   4.986 -34.184  1.00  0.00     0.045 A 
ENDBRANCH  21  24
ENDBRANCH  19  20
ENDBRANCH  18  19
ENDBRANCH   2  18
TORSDOF 7
ENDMDL
MODEL 5
REMARK VINA RESULT:      -7.5      5.260      8.099
REMARK  7 active torsions:
REMARK  status: ('A' for Active; 'I' for Inactive)
REMARK    1  A    between atoms: C_4  and  O_5 
REMARK    2  A    between atoms: O_5  and  C_6 
REMARK    3  A    between atoms: C_9  and  N_10 
REMARK       I    between atoms: N_10  and  C_11 
REMARK    4  A    between atoms: C_11  and  C_12 
REMARK    5  A    between atoms: C_12  and  C_13 
REMARK    6  A    between atoms: C_13  and  N_14 
REMARK       I    between atoms: N_14  and  C_15 
REMARK    7  A    between atoms: C_15  and  C_16 
ROOT
HETATM    1  N   UNL     1      -5.925   2.304 -31.877  1.00  0.00    -0.327 N 
HETATM    2  C   UNL     1      -6.310   1.475 -30.841  1.00  0.00     0.223 C 
HETATM    3  O   UNL     1      -5.841   1.444 -29.707  1.00  0.00    -0.273 OA
HETATM    4  H   UNL     1      -6.505   2.266 -32.715  1.00  0.00     0.169 HD
ENDROOT
BRANCH   1   5
HETATM    5  C   UNL     1      -4.877   3.245 -31.883  1.00  0.00     0.034 A 
HETATM    6  C   UNL     1      -4.941   4.485 -31.249  1.00  0.00     0.032 A 
HETATM    7  C   UNL     1      -3.851   5.361 -31.295  1.00  0.00     0.039 A 
HETATM    8  C   UNL     1      -2.683   5.006 -31.972  1.00  0.00     0.076 A 
HETATM    9  C   UNL     1      -2.617   3.773 -32.621  1.00  0.00     0.039 A 
HETATM   10  C   UNL     1      -3.705   2.893 -32.564  1.00  0.00     0.032 A 
BRANCH   8  11
HETATM   11  O   UNL     1      -1.693   5.964 -31.989  1.00  0.00    -0.311 OA
BRANCH  11  12
HETATM   12  C   UNL     1      -1.002   6.210 -30.830  1.00  0.00     0.076 A 
HETATM   13  C   UNL     1      -0.156   5.206 -30.356  1.00  0.00     0.037 A 
HETATM   14  C   UNL     1       0.604   5.427 -29.207  1.00  0.00     0.003 A 
HETATM   15  C   UNL     1       0.527   6.654 -28.546  1.00  0.00     0.000 A 
HETATM   16  C   UNL     1      -0.301   7.665 -29.038  1.00  0.00     0.003 A 
HETATM   17  C   UNL     1      -1.060   7.448 -30.189  1.00  0.00     0.037 A 
ENDBRANCH  11  12
ENDBRANCH   8  11
ENDBRANCH   1   5
BRANCH   2  18
HETATM   18  C   UNL     1      -7.449   0.556 -31.222  1.00  0.00     0.123 C 
BRANCH  18  19
HETATM   19  C   UNL     1      -7.702   0.545 -32.724  1.00  0.00     0.132 C 
BRANCH  19  20
HETATM   20  N   UNL     1      -7.333  -0.638 -33.483  1.00  0.00    -0.355 N 
HETATM   21  C   UNL     1      -6.048  -1.059 -33.753  1.00  0.00     0.275 C 
HETATM   22  O   UNL     1      -5.073  -0.318 -33.652  1.00  0.00    -0.265 OA
HETATM   23  H   UNL     1      -8.039  -1.363 -33.570  1.00  0.00     0.162 HD
BRANCH  21  24
HETATM   24  C   UNL     1      -5.958  -2.438 -34.187  1.00  0.00     0.142 A 
HETATM   25  O   UNL     1      -4.751  -3.088 -34.121  1.00  0.00    -0.317 OA
HETATM   26  C   UNL     1      -4.947  -4.345 -34.599  1.00  0.00     0.143 A 
HETATM   27  C   UNL     1      -6.258  -4.519 -34.975  1.00  0.00     0.027 A 
HETATM   28  C   UNL     1      -6.910  -3.290 -34.712  1.00  0.00     0.045 A 
ENDBRANCH  21  24
ENDBRANCH  19  20
ENDBRANCH  18  19
ENDBRANCH   2  18
TORSDOF 7
ENDMDL
MODEL 6
REMARK VINA RESULT:      -7.4      4.988      7.773
REMARK  7 active torsions:
REMARK  status: ('A' for Active; 'I' for Inactive)
REMARK    1  A    between atoms: C_4  and  O_5 
REMARK    2  A    between atoms: O_5  and  C_6 
REMARK    3  A    between atoms: C_9  and  N_10 
REMARK       I    between atoms: N_10  and  C_11 
REMARK    4  A    between atoms: C_11  and  C_12 
REMARK    5  A    between atoms: C_12  and  C_13 
REMARK    6  A    between atoms: C_13  and  N_14 
REMARK       I    between atoms: N_14  and  C_15 
REMARK    7  A    between atoms: C_15  and  C_16 
ROOT
HETATM    1  N   UNL     1      -6.520   2.866 -31.291  1.00  0.00    -0.327 N 
HETATM    2  C   UNL     1      -5.365   3.349 -30.708  1.00  0.00     0.223 C 
HETATM    3  O   UNL     1      -4.219   2.960 -30.908  1.00  0.00    -0.273 OA
HETATM    4  H   UNL     1      -7.373   3.389 -31.089  1.00  0.00     0.169 HD
ENDROOT
BRANCH   1   5
HETATM    5  C   UNL     1      -6.646   1.787 -32.187  1.00  0.00     0.034 A 
HETATM    6  C   UNL     1      -6.926   0.478 -31.794  1.00  0.00     0.032 A 
HETATM    7  C   UNL     1      -7.044  -0.538 -32.749  1.00  0.00     0.039 A 
HETATM    8  C   UNL     1      -6.888  -0.257 -34.108  1.00  0.00     0.076 A 
HETATM    9  C   UNL     1      -6.594   1.047 -34.506  1.00  0.00     0.039 A 
HETATM   10  C   UNL     1      -6.487   2.065 -33.550  1.00  0.00     0.032 A 
BRANCH   8  11
HETATM   11  O   UNL     1      -6.980  -1.342 -34.952  1.00  0.00    -0.311 OA
BRANCH  11  12
HETATM   12  C   UNL     1      -6.195  -2.437 -34.694  1.00  0.00     0.076 A 
HETATM   13  C   UNL     1      -6.752  -3.698 -34.911  1.00  0.00     0.037 A 
HETATM   14  C   UNL     1      -5.978  -4.841 -34.707  1.00  0.00     0.003 A 
HETATM   15  C   UNL     1      -4.648  -4.718 -34.305  1.00  0.00     0.000 A 
HETATM   16  C   UNL     1      -4.085  -3.454 -34.114  1.00  0.00     0.003 A 
HETATM   17  C   UNL     1      -4.857  -2.309 -34.319  1.00  0.00     0.037 A 
ENDBRANCH  11  12
ENDBRANCH   8  11
ENDBRANCH   1   5
BRANCH   2  18
HETATM   18  C   UNL     1      -5.628   4.492 -29.753  1.00  0.00     0.123 C 
BRANCH  18  19
HETATM   19  C   UNL     1      -4.915   5.770 -30.173  1.00  0.00     0.132 C 
BRANCH  19  20
HETATM   20  N   UNL     1      -3.522   5.946 -29.797  1.00  0.00    -0.355 N 
HETATM   21  C   UNL     1      -2.569   6.628 -30.523  1.00  0.00     0.275 C 
HETATM   22  O   UNL     1      -2.707   6.896 -31.713  1.00  0.00    -0.265 OA
HETATM   23  H   UNL     1      -3.296   5.826 -28.815  1.00  0.00     0.162 HD
BRANCH  21  24
HETATM   24  C   UNL     1      -1.386   6.975 -29.762  1.00  0.00     0.142 A 
HETATM   25  O   UNL     1      -1.508   7.296 -28.433  1.00  0.00    -0.317 OA
HETATM   26  C   UNL     1      -0.263   7.590 -27.976  1.00  0.00     0.143 A 
HETATM   27  C   UNL     1       0.663   7.468 -28.986  1.00  0.00     0.027 A 
HETATM   28  C   UNL     1      -0.059   7.073 -30.137  1.00  0.00     0.045 A 
ENDBRANCH  21  24
ENDBRANCH  19  20
ENDBRANCH  18  19
ENDBRANCH   2  18
TORSDOF 7
ENDMDL
MODEL 7
REMARK VINA RESULT:      -7.3      3.242      8.461
REMARK  7 active torsions:
REMARK  status: ('A' for Active; 'I' for Inactive)
REMARK    1  A    between atoms: C_4  and  O_5 
REMARK    2  A    between atoms: O_5  and  C_6 
REMARK    3  A    between atoms: C_9  and  N_10 
REMARK       I    between atoms: N_10  and  C_11 
REMARK    4  A    between atoms: C_11  and  C_12 
REMARK    5  A    between atoms: C_12  and  C_13 
REMARK    6  A    between atoms: C_13  and  N_14 
REMARK       I    between atoms: N_14  and  C_15 
REMARK    7  A    between atoms: C_15  and  C_16 
ROOT
HETATM    1  N   UNL     1      -6.908   0.839 -31.757  1.00  0.00    -0.327 N 
HETATM    2  C   UNL     1      -5.706   0.308 -32.183  1.00  0.00     0.223 C 
HETATM    3  O   UNL     1      -5.401   0.001 -33.332  1.00  0.00    -0.273 OA
HETATM    4  H   UNL     1      -6.941   1.137 -30.781  1.00  0.00     0.169 HD
ENDROOT
BRANCH   1   5
HETATM    5  C   UNL     1      -8.062   1.085 -32.525  1.00  0.00     0.034 A 
HETATM    6  C   UNL     1      -8.205   2.172 -33.387  1.00  0.00     0.032 A 
HETATM    7  C   UNL     1      -9.383   2.342 -34.123  1.00  0.00     0.039 A 
HETATM    8  C   UNL     1     -10.429   1.425 -34.010  1.00  0.00     0.076 A 
HETATM    9  C   UNL     1     -10.299   0.344 -33.138  1.00  0.00     0.039 A 
HETATM   10  C   UNL     1      -9.115   0.169 -32.410  1.00  0.00     0.032 A 
BRANCH   8  11
HETATM   11  O   UNL     1     -11.556   1.717 -34.746  1.00  0.00    -0.311 OA
BRANCH  11  12
HETATM   12  C   UNL     1     -12.772   1.703 -34.111  1.00  0.00     0.076 A 
HETATM   13  C   UNL     1     -13.006   2.675 -33.138  1.00  0.00     0.037 A 
HETATM   14  C   UNL     1     -14.244   2.730 -32.498  1.00  0.00     0.003 A 
HETATM   15  C   UNL     1     -15.248   1.826 -32.845  1.00  0.00     0.000 A 
HETATM   16  C   UNL     1     -15.021   0.871 -33.838  1.00  0.00     0.003 A 
HETATM   17  C   UNL     1     -13.783   0.815 -34.482  1.00  0.00     0.037 A 
ENDBRANCH  11  12
ENDBRANCH   8  11
ENDBRANCH   1   5
BRANCH   2  18
HETATM   18  C   UNL     1      -4.711   0.139 -31.058  1.00  0.00     0.123 C 
BRANCH  18  19
HETATM   19  C   UNL     1      -3.426   0.919 -31.302  1.00  0.00     0.132 C 
BRANCH  19  20
HETATM   20  N   UNL     1      -3.430   1.969 -32.309  1.00  0.00    -0.355 N 
HETATM   21  C   UNL     1      -3.577   3.318 -32.070  1.00  0.00     0.275 C 
HETATM   22  O   UNL     1      -4.034   3.759 -31.018  1.00  0.00    -0.265 OA
HETATM   23  H   UNL     1      -3.004   1.745 -33.203  1.00  0.00     0.162 HD
BRANCH  21  24
HETATM   24  C   UNL     1      -3.170   4.161 -33.175  1.00  0.00     0.142 A 
HETATM   25  O   UNL     1      -4.115   4.618 -34.059  1.00  0.00    -0.317 OA
HETATM   26  C   UNL     1      -3.464   5.362 -34.991  1.00  0.00     0.143 A 
HETATM   27  C   UNL     1      -2.115   5.392 -34.728  1.00  0.00     0.027 A 
HETATM   28  C   UNL     1      -1.923   4.618 -33.559  1.00  0.00     0.045 A 
ENDBRANCH  21  24
ENDBRANCH  19  20
ENDBRANCH  18  19
ENDBRANCH   2  18
TORSDOF 7
ENDMDL
MODEL 8
REMARK VINA RESULT:      -7.3      1.586      2.010
REMARK  7 active torsions:
REMARK  status: ('A' for Active; 'I' for Inactive)
REMARK    1  A    between atoms: C_4  and  O_5 
REMARK    2  A    between atoms: O_5  and  C_6 
REMARK    3  A    between atoms: C_9  and  N_10 
REMARK       I    between atoms: N_10  and  C_11 
REMARK    4  A    between atoms: C_11  and  C_12 
REMARK    5  A    between atoms: C_12  and  C_13 
REMARK    6  A    between atoms: C_13  and  N_14 
REMARK       I    between atoms: N_14  and  C_15 
REMARK    7  A    between atoms: C_15  and  C_16 
ROOT
HETATM    1  N   UNL     1      -7.394   2.972 -32.052  1.00  0.00    -0.327 N 
HETATM    2  C   UNL     1      -8.482   3.012 -32.902  1.00  0.00     0.223 C 
HETATM    3  O   UNL     1      -8.828   2.147 -33.700  1.00  0.00    -0.273 OA
HETATM    4  H   UNL     1      -7.328   3.735 -31.378  1.00  0.00     0.169 HD
ENDROOT
BRANCH   1   5
HETATM    5  C   UNL     1      -6.412   1.966 -31.957  1.00  0.00     0.034 A 
HETATM    6  C   UNL     1      -5.129   2.080 -32.492  1.00  0.00     0.032 A 
HETATM    7  C   UNL     1      -4.207   1.037 -32.348  1.00  0.00     0.039 A 
HETATM    8  C   UNL     1      -4.556  -0.129 -31.663  1.00  0.00     0.076 A 
HETATM    9  C   UNL     1      -5.842  -0.255 -31.139  1.00  0.00     0.039 A 
HETATM   10  C   UNL     1      -6.760   0.794 -31.275  1.00  0.00     0.032 A 
BRANCH   8  11
HETATM   11  O   UNL     1      -3.584  -1.105 -31.623  1.00  0.00    -0.311 OA
BRANCH  11  12
HETATM   12  C   UNL     1      -3.684  -2.161 -32.492  1.00  0.00     0.076 A 
HETATM   13  C   UNL     1      -3.173  -3.392 -32.078  1.00  0.00     0.037 A 
HETATM   14  C   UNL     1      -3.293  -4.506 -32.908  1.00  0.00     0.003 A 
HETATM   15  C   UNL     1      -3.938  -4.390 -34.141  1.00  0.00     0.000 A 
HETATM   16  C   UNL     1      -4.472  -3.163 -34.541  1.00  0.00     0.003 A 
HETATM   17  C   UNL     1      -4.355  -2.047 -33.711  1.00  0.00     0.037 A 
ENDBRANCH  11  12
ENDBRANCH   8  11
ENDBRANCH   1   5
BRANCH   2  18
HETATM   18  C   UNL     1      -9.290   4.282 -32.754  1.00  0.00     0.123 C 
BRANCH  18  19
HETATM   19  C   UNL     1     -10.484   4.100 -31.827  1.00  0.00     0.132 C 
BRANCH  19  20
HETATM   20  N   UNL     1     -11.457   3.066 -32.138  1.00  0.00    -0.355 N 
HETATM   21  C   UNL     1     -12.564   3.213 -32.945  1.00  0.00     0.275 C 
HETATM   22  O   UNL     1     -13.027   4.312 -33.241  1.00  0.00    -0.265 OA
HETATM   23  H   UNL     1     -11.158   2.104 -32.006  1.00  0.00     0.162 HD
BRANCH  21  24
HETATM   24  C   UNL     1     -13.141   1.961 -33.389  1.00  0.00     0.142 A 
HETATM   25  O   UNL     1     -14.484   1.898 -33.666  1.00  0.00    -0.317 OA
HETATM   26  C   UNL     1     -14.756   0.621 -34.041  1.00  0.00     0.143 A 
HETATM   27  C   UNL     1     -13.614  -0.145 -34.009  1.00  0.00     0.027 A 
HETATM   28  C   UNL     1     -12.573   0.718 -33.588  1.00  0.00     0.045 A 
ENDBRANCH  21  24
ENDBRANCH  19  20
ENDBRANCH  18  19
ENDBRANCH   2  18
TORSDOF 7
ENDMDL
MODEL 9
REMARK VINA RESULT:      -7.3      4.497      6.669
REMARK  7 active torsions:
REMARK  status: ('A' for Active; 'I' for Inactive)
REMARK    1  A    between atoms: C_4  and  O_5 
REMARK    2  A    between atoms: O_5  and  C_6 
REMARK    3  A    between atoms: C_9  and  N_10 
REMARK       I    between atoms: N_10  and  C_11 
REMARK    4  A    between atoms: C_11  and  C_12 
REMARK    5  A    between atoms: C_12  and  C_13 
REMARK    6  A    between atoms: C_13  and  N_14 
REMARK       I    between atoms: N_14  and  C_15 
REMARK    7  A    between atoms: C_15  and  C_16 
ROOT
HETATM    1  N   UNL     1      -5.137   2.642 -30.369  1.00  0.00    -0.327 N 
HETATM    2  C   UNL     1      -5.819   3.773 -30.774  1.00  0.00     0.223 C 
HETATM    3  O   UNL     1      -6.251   4.012 -31.898  1.00  0.00    -0.273 OA
HETATM    4  H   UNL     1      -4.955   2.567 -29.368  1.00  0.00     0.169 HD
ENDROOT
BRANCH   1   5
HETATM    5  C   UNL     1      -4.731   1.551 -31.161  1.00  0.00     0.034 A 
HETATM    6  C   UNL     1      -3.671   1.600 -32.067  1.00  0.00     0.032 A 
HETATM    7  C   UNL     1      -3.325   0.467 -32.813  1.00  0.00     0.039 A 
HETATM    8  C   UNL     1      -4.030  -0.727 -32.658  1.00  0.00     0.076 A 
HETATM    9  C   UNL     1      -5.100  -0.779 -31.765  1.00  0.00     0.039 A 
HETATM   10  C   UNL     1      -5.438   0.352 -31.012  1.00  0.00     0.032 A 
BRANCH   8  11
HETATM   11  O   UNL     1      -3.629  -1.761 -33.476  1.00  0.00    -0.311 OA
BRANCH  11  12
HETATM   12  C   UNL     1      -4.588  -2.605 -33.978  1.00  0.00     0.076 A 
HETATM   13  C   UNL     1      -4.292  -3.968 -34.024  1.00  0.00     0.037 A 
HETATM   14  C   UNL     1      -5.252  -4.870 -34.482  1.00  0.00     0.003 A 
HETATM   15  C   UNL     1      -6.509  -4.408 -34.876  1.00  0.00     0.000 A 
HETATM   16  C   UNL     1      -6.812  -3.047 -34.803  1.00  0.00     0.003 A 
HETATM   17  C   UNL     1      -5.854  -2.142 -34.343  1.00  0.00     0.037 A 
ENDBRANCH  11  12
ENDBRANCH   8  11
ENDBRANCH   1   5
BRANCH   2  18
HETATM   18  C   UNL     1      -6.035   4.758 -29.647  1.00  0.00     0.123 C 
BRANCH  18  19
HETATM   19  C   UNL     1      -5.388   6.107 -29.930  1.00  0.00     0.132 C 
BRANCH  19  20
HETATM   20  N   UNL     1      -4.523   6.235 -31.092  1.00  0.00    -0.355 N 
HETATM   21  C   UNL     1      -3.146   6.303 -31.072  1.00  0.00     0.275 C 
HETATM   22  O   UNL     1      -2.511   6.578 -30.057  1.00  0.00    -0.265 OA
HETATM   23  H   UNL     1      -4.917   5.960 -31.987  1.00  0.00     0.162 HD
BRANCH  21  24
HETATM   24  C   UNL     1      -2.525   6.046 -32.354  1.00  0.00     0.142 A 
HETATM   25  O   UNL     1      -2.825   4.890 -33.030  1.00  0.00    -0.317 OA
HETATM   26  C   UNL     1      -2.100   4.899 -34.180  1.00  0.00     0.143 A 
HETATM   27  C   UNL     1      -1.335   6.038 -34.259  1.00  0.00     0.027 A 
HETATM   28  C   UNL     1      -1.606   6.778 -33.083  1.00  0.00     0.045 A 
ENDBRANCH  21  24
ENDBRANCH  19  20
ENDBRANCH  18  19
ENDBRANCH   2  18
TORSDOF 7
ENDMDL
MODEL 10
REMARK VINA RESULT:      -7.2      2.690      3.521
REMARK  7 active torsions:
REMARK  status: ('A' for Active; 'I' for Inactive)
REMARK    1  A    between atoms: C_4  and  O_5 
REMARK    2  A    between atoms: O_5  and  C_6 
REMARK    3  A    between atoms: C_9  and  N_10 
REMARK       I    between atoms: N_10  and  C_11 
REMARK    4  A    between atoms: C_11  and  C_12 
REMARK    5  A    between atoms: C_12  and  C_13 
REMARK    6  A    between atoms: C_13  and  N_14 
REMARK       I    between atoms: N_14  and  C_15 
REMARK    7  A    between atoms: C_15  and  C_16 
ROOT
HETATM    1  N   UNL     1      -9.590   1.963 -33.209  1.00  0.00    -0.327 N 
HETATM    2  C   UNL     1     -10.901   1.533 -33.270  1.00  0.00     0.223 C 
HETATM    3  O   UNL     1     -11.293   0.379 -33.415  1.00  0.00    -0.273 OA
HETATM    4  H   UNL     1      -9.455   2.946 -32.971  1.00  0.00     0.169 HD
ENDROOT
BRANCH   1   5
HETATM    5  C   UNL     1      -8.422   1.191 -33.362  1.00  0.00     0.034 A 
HETATM    6  C   UNL     1      -7.721   0.621 -32.299  1.00  0.00     0.032 A 
HETATM    7  C   UNL     1      -6.572  -0.141 -32.536  1.00  0.00     0.039 A 
HETATM    8  C   UNL     1      -6.112  -0.345 -33.838  1.00  0.00     0.076 A 
HETATM    9  C   UNL     1      -6.799   0.235 -34.905  1.00  0.00     0.039 A 
HETATM   10  C   UNL     1      -7.956   0.987 -34.666  1.00  0.00     0.032 A 
BRANCH   8  11
HETATM   11  O   UNL     1      -4.947  -1.073 -33.948  1.00  0.00    -0.311 OA
BRANCH  11  12
HETATM   12  C   UNL     1      -5.039  -2.416 -34.210  1.00  0.00     0.076 A 
HETATM   13  C   UNL     1      -3.999  -3.235 -33.769  1.00  0.00     0.037 A 
HETATM   14  C   UNL     1      -4.069  -4.613 -33.971  1.00  0.00     0.003 A 
HETATM   15  C   UNL     1      -5.186  -5.169 -34.597  1.00  0.00     0.000 A 
HETATM   16  C   UNL     1      -6.238  -4.350 -35.014  1.00  0.00     0.003 A 
HETATM   17  C   UNL     1      -6.170  -2.971 -34.811  1.00  0.00     0.037 A 
ENDBRANCH  11  12
ENDBRANCH   8  11
ENDBRANCH   1   5
BRANCH   2  18
HETATM   18  C   UNL     1     -11.893   2.662 -33.111  1.00  0.00     0.123 C 
BRANCH  18  19
HETATM   19  C   UNL     1     -13.283   2.282 -33.604  1.00  0.00     0.132 C 
BRANCH  19  20
HETATM   20  N   UNL     1     -14.402   3.147 -33.269  1.00  0.00    -0.355 N 
HETATM   21  C   UNL     1     -15.294   2.952 -32.236  1.00  0.00     0.275 C 
HETATM   22  O   UNL     1     -15.435   1.867 -31.678  1.00  0.00    -0.265 OA
HETATM   23  H   UNL     1     -14.360   4.102 -33.613  1.00  0.00     0.162 HD
BRANCH  21  24
HETATM   24  C   UNL     1     -16.062   4.130 -31.890  1.00  0.00     0.142 A 
HETATM   25  O   UNL     1     -17.433   4.075 -31.922  1.00  0.00    -0.317 OA
HETATM   26  C   UNL     1     -17.891   5.306 -31.573  1.00  0.00     0.143 A 
HETATM   27  C   UNL     1     -16.842   6.156 -31.317  1.00  0.00     0.027 A 
HETATM   28  C   UNL     1     -15.663   5.401 -31.522  1.00  0.00     0.045 A 
ENDBRANCH  21  24
ENDBRANCH  19  20
ENDBRANCH  18  19
ENDBRANCH   2  18
TORSDOF 7
ENDMDL
