MODEL 1
REMARK VINA RESULT:      -8.9      0.000      0.000
REMARK  10 active torsions:
REMARK  status: ('A' for Active; 'I' for Inactive)
REMARK    1  A    between atoms: C_6  and  C_7 
REMARK    2  A    between atoms: C_7  and  C_8 
REMARK       I    between atoms: C_8  and  N_9 
REMARK    3  A    between atoms: N_9  and  C_10 
REMARK    4  A    between atoms: C_10  and  C_11 
REMARK    5  A    between atoms: C_11  and  N_12 
REMARK    6  A    between atoms: C_17  and  C_18 
REMARK    7  A    between atoms: C_27  and  C_28 
REMARK    8  A    between atoms: C_28  and  O_29 
REMARK    9  A    between atoms: O_29  and  C_30 
REMARK   10  A    between atoms: C_30  and  C_31 
ROOT
HETATM    1  C   UNL     1      -5.519   0.446 -29.305  1.00  0.00     0.071 C 
HETATM    2  C   UNL     1      -5.870   0.274 -30.760  1.00  0.00     0.048 C 
HETATM    3  N   UNL     1      -7.228   0.056 -31.001  1.00  0.00    -0.229 NA
HETATM    4  C   UNL     1      -7.662   0.442 -32.153  1.00  0.00     0.170 C 
HETATM    5  N   UNL     1      -6.721   0.964 -33.269  1.00  0.00    -0.318 N 
HETATM    6  C   UNL     1      -7.242   1.996 -33.839  1.00  0.00     0.011 C 
HETATM    7  C   UNL     1      -5.407   0.303 -33.201  1.00  0.00     0.169 C 
HETATM    8  S   UNL     1      -9.309   0.781 -32.549  1.00  0.00    -0.086 SA
HETATM    9  C   UNL     1      -8.746   2.133 -33.657  1.00  0.00     0.135 C 
HETATM   10  C   UNL     1      -4.993   0.442 -31.772  1.00  0.00     0.069 C 
ENDROOT
BRANCH   6  11
HETATM   11  C   UNL     1      -6.383   3.030 -34.507  1.00  0.00     0.156 C 
BRANCH  11  12
HETATM   12  C   UNL     1      -6.219   4.251 -33.619  1.00  0.00     0.223 C 
HETATM   13  N   UNL     1      -6.207   4.038 -32.266  1.00  0.00    -0.359 N 
HETATM   14  H   UNL     1      -6.252   3.090 -31.890  1.00  0.00     0.162 HD
HETATM   15  O   UNL     1      -6.188   5.384 -34.096  1.00  0.00    -0.273 OA
BRANCH  13  16
HETATM   16  C   UNL     1      -6.356   5.124 -31.284  1.00  0.00     0.150 C 
BRANCH  16  17
HETATM   17  C   UNL     1      -6.288   4.716 -29.791  1.00  0.00     0.253 C 
BRANCH  17  18
HETATM   18  N   UNL     1      -5.106   5.325 -29.061  1.00  0.00    -0.077 N 
HETATM   19  H   UNL     1      -4.393   4.576 -28.956  1.00  0.00     0.279 HD
HETATM   20  C   UNL     1      -4.420   6.430 -29.817  1.00  0.00     0.269 C 
HETATM   21  C   UNL     1      -5.467   5.771 -27.670  1.00  0.00     0.269 C 
ENDBRANCH  17  18
ENDBRANCH  16  17
ENDBRANCH  13  16
ENDBRANCH  11  12
ENDBRANCH   6  11
BRANCH   7  22
HETATM   22  C   UNL     1      -5.491  -1.118 -33.763  1.00  0.00     0.008 A 
HETATM   23  C   UNL     1      -4.404  -2.011 -33.740  1.00  0.00     0.125 A 
HETATM   24  F   UNL     1      -3.223  -1.628 -33.241  1.00  0.00    -0.205 F 
HETATM   25  C   UNL     1      -4.504  -3.312 -34.223  1.00  0.00     0.043 A 
HETATM   26  C   UNL     1      -5.702  -3.758 -34.768  1.00  0.00     0.003 A 
HETATM   27  C   UNL     1      -6.788  -2.890 -34.844  1.00  0.00     0.001 A 
HETATM   28  C   UNL     1      -6.685  -1.581 -34.359  1.00  0.00     0.013 A 
ENDBRANCH   7  22
BRANCH  10  29
HETATM   29  C   UNL     1      -3.716   1.154 -31.649  1.00  0.00     0.294 C 
HETATM   30  O   UNL     1      -2.795   0.601 -31.055  1.00  0.00    -0.259 OA
BRANCH  29  31
HETATM   31  O   UNL     1      -3.869   2.446 -31.965  1.00  0.00    -0.313 OA
BRANCH  31  32
HETATM   32  C   UNL     1      -2.938   3.353 -31.354  1.00  0.00     0.217 C 
BRANCH  32  33
HETATM   33  C   UNL     1      -2.367   4.302 -32.367  1.00  0.00    -0.034 A 
HETATM   34  C   UNL     1      -1.522   5.342 -31.957  1.00  0.00     0.009 A 
HETATM   35  C   UNL     1      -0.959   6.204 -32.896  1.00  0.00     0.001 A 
HETATM   36  C   UNL     1      -1.240   6.041 -34.251  1.00  0.00     0.000 A 
HETATM   37  C   UNL     1      -2.089   5.017 -34.669  1.00  0.00     0.001 A 
HETATM   38  C   UNL     1      -2.653   4.152 -33.731  1.00  0.00     0.009 A 
ENDBRANCH  32  33
ENDBRANCH  31  32
ENDBRANCH  29  31
ENDBRANCH  10  29
TORSDOF 10
ENDMDL
MODEL 2
REMARK VINA RESULT:      -8.8      2.410      5.788
REMARK  10 active torsions:
REMARK  status: ('A' for Active; 'I' for Inactive)
REMARK    1  A    between atoms: C_6  and  C_7 
REMARK    2  A    between atoms: C_7  and  C_8 
REMARK       I    between atoms: C_8  and  N_9 
REMARK    3  A    between atoms: N_9  and  C_10 
REMARK    4  A    between atoms: C_10  and  C_11 
REMARK    5  A    between atoms: C_11  and  N_12 
REMARK    6  A    between atoms: C_17  and  C_18 
REMARK    7  A    between atoms: C_27  and  C_28 
REMARK    8  A    between atoms: C_28  and  O_29 
REMARK    9  A    between atoms: O_29  and  C_30 
REMARK   10  A    between atoms: C_30  and  C_31 
ROOT
HETATM    1  C   UNL     1      -5.888   0.858 -29.589  1.00  0.00     0.071 C 
HETATM    2  C   UNL     1      -6.766   1.571 -30.585  1.00  0.00     0.048 C 
HETATM    3  N   UNL     1      -7.659   2.481 -30.015  1.00  0.00    -0.229 NA
HETATM    4  C   UNL     1      -8.011   3.468 -30.768  1.00  0.00     0.170 C 
HETATM    5  N   UNL     1      -7.609   3.563 -32.262  1.00  0.00    -0.318 N 
HETATM    6  C   UNL     1      -7.257   4.769 -32.548  1.00  0.00     0.011 C 
HETATM    7  C   UNL     1      -7.504   2.224 -32.866  1.00  0.00     0.169 C 
HETATM    8  S   UNL     1      -8.656   4.974 -30.222  1.00  0.00    -0.086 SA
HETATM    9  C   UNL     1      -7.766   5.828 -31.582  1.00  0.00     0.135 C 
HETATM   10  C   UNL     1      -6.634   1.458 -31.923  1.00  0.00     0.069 C 
ENDROOT
BRANCH   6  11
HETATM   11  C   UNL     1      -6.308   5.054 -33.676  1.00  0.00     0.156 C 
BRANCH  11  12
HETATM   12  C   UNL     1      -4.937   5.436 -33.145  1.00  0.00     0.223 C 
HETATM   13  N   UNL     1      -4.222   4.457 -32.509  1.00  0.00    -0.359 N 
HETATM   14  H   UNL     1      -4.586   3.504 -32.451  1.00  0.00     0.162 HD
HETATM   15  O   UNL     1      -4.532   6.596 -33.208  1.00  0.00    -0.273 OA
BRANCH  13  16
HETATM   16  C   UNL     1      -3.032   4.738 -31.690  1.00  0.00     0.150 C 
BRANCH  16  17
HETATM   17  C   UNL     1      -1.683   4.831 -32.446  1.00  0.00     0.253 C 
BRANCH  17  18
HETATM   18  N   UNL     1      -1.683   5.888 -33.534  1.00  0.00    -0.077 N 
HETATM   19  H   UNL     1      -2.663   6.215 -33.643  1.00  0.00     0.279 HD
HETATM   20  C   UNL     1      -0.883   7.117 -33.197  1.00  0.00     0.269 C 
HETATM   21  C   UNL     1      -1.268   5.329 -34.868  1.00  0.00     0.269 C 
ENDBRANCH  17  18
ENDBRANCH  16  17
ENDBRANCH  13  16
ENDBRANCH  11  12
ENDBRANCH   6  11
BRANCH   7  22
HETATM   22  C   UNL     1      -8.895   1.651 -33.146  1.00  0.00     0.008 A 
HETATM   23  C   UNL     1      -9.837   2.303 -33.962  1.00  0.00     0.125 A 
HETATM   24  F   UNL     1      -9.551   3.489 -34.512  1.00  0.00    -0.205 F 
HETATM   25  C   UNL     1     -11.086   1.754 -34.236  1.00  0.00     0.043 A 
HETATM   26  C   UNL     1     -11.442   0.532 -33.679  1.00  0.00     0.003 A 
HETATM   27  C   UNL     1     -10.552  -0.124 -32.833  1.00  0.00     0.001 A 
HETATM   28  C   UNL     1      -9.296   0.431 -32.558  1.00  0.00     0.013 A 
ENDBRANCH   7  22
BRANCH  10  29
HETATM   29  C   UNL     1      -5.433   0.947 -32.595  1.00  0.00     0.294 C 
HETATM   30  O   UNL     1      -4.665   1.753 -33.110  1.00  0.00    -0.259 OA
BRANCH  29  31
HETATM   31  O   UNL     1      -5.534  -0.375 -32.789  1.00  0.00    -0.313 OA
BRANCH  31  32
HETATM   32  C   UNL     1      -5.956  -0.783 -34.099  1.00  0.00     0.217 C 
BRANCH  32  33
HETATM   33  C   UNL     1      -5.712  -2.249 -34.311  1.00  0.00    -0.034 A 
HETATM   34  C   UNL     1      -4.449  -2.796 -34.046  1.00  0.00     0.009 A 
HETATM   35  C   UNL     1      -4.226  -4.163 -34.206  1.00  0.00     0.001 A 
HETATM   36  C   UNL     1      -5.259  -4.993 -34.637  1.00  0.00     0.000 A 
HETATM   37  C   UNL     1      -6.516  -4.457 -34.915  1.00  0.00     0.001 A 
HETATM   38  C   UNL     1      -6.741  -3.090 -34.755  1.00  0.00     0.009 A 
ENDBRANCH  32  33
ENDBRANCH  31  32
ENDBRANCH  29  31
ENDBRANCH  10  29
TORSDOF 10
ENDMDL
MODEL 3
REMARK VINA RESULT:      -8.7      1.035      1.611
REMARK  10 active torsions:
REMARK  status: ('A' for Active; 'I' for Inactive)
REMARK    1  A    between atoms: C_6  and  C_7 
REMARK    2  A    between atoms: C_7  and  C_8 
REMARK       I    between atoms: C_8  and  N_9 
REMARK    3  A    between atoms: N_9  and  C_10 
REMARK    4  A    between atoms: C_10  and  C_11 
REMARK    5  A    between atoms: C_11  and  N_12 
REMARK    6  A    between atoms: C_17  and  C_18 
REMARK    7  A    between atoms: C_27  and  C_28 
REMARK    8  A    between atoms: C_28  and  O_29 
REMARK    9  A    between atoms: O_29  and  C_30 
REMARK   10  A    between atoms: C_30  and  C_31 
ROOT
HETATM    1  C   UNL     1      -5.536   0.523 -29.305  1.00  0.00     0.071 C 
HETATM    2  C   UNL     1      -5.880   0.361 -30.763  1.00  0.00     0.048 C 
HETATM    3  N   UNL     1      -7.235   0.136 -31.012  1.00  0.00    -0.229 NA
HETATM    4  C   UNL     1      -7.667   0.529 -32.162  1.00  0.00     0.170 C 
HETATM    5  N   UNL     1      -6.724   1.067 -33.270  1.00  0.00    -0.318 N 
HETATM    6  C   UNL     1      -7.250   2.100 -33.833  1.00  0.00     0.011 C 
HETATM    7  C   UNL     1      -5.406   0.413 -33.202  1.00  0.00     0.169 C 
HETATM    8  S   UNL     1      -9.314   0.860 -32.563  1.00  0.00    -0.086 SA
HETATM    9  C   UNL     1      -8.755   2.226 -33.656  1.00  0.00     0.135 C 
HETATM   10  C   UNL     1      -5.000   0.543 -31.770  1.00  0.00     0.069 C 
ENDROOT
BRANCH   6  11
HETATM   11  C   UNL     1      -6.395   3.145 -34.489  1.00  0.00     0.156 C 
BRANCH  11  12
HETATM   12  C   UNL     1      -6.624   4.506 -33.854  1.00  0.00     0.223 C 
HETATM   13  N   UNL     1      -5.830   4.835 -32.788  1.00  0.00    -0.359 N 
HETATM   14  H   UNL     1      -5.086   4.206 -32.481  1.00  0.00     0.162 HD
HETATM   15  O   UNL     1      -7.540   5.236 -34.228  1.00  0.00    -0.273 OA
BRANCH  13  16
HETATM   16  C   UNL     1      -6.123   5.965 -31.892  1.00  0.00     0.150 C 
BRANCH  16  17
HETATM   17  C   UNL     1      -7.019   5.658 -30.666  1.00  0.00     0.253 C 
BRANCH  17  18
HETATM   18  N   UNL     1      -8.080   4.612 -30.952  1.00  0.00    -0.077 N 
HETATM   19  H   UNL     1      -7.836   4.170 -31.860  1.00  0.00     0.279 HD
HETATM   20  C   UNL     1      -8.118   3.487 -29.955  1.00  0.00     0.269 C 
HETATM   21  C   UNL     1      -9.445   5.221 -31.124  1.00  0.00     0.269 C 
ENDBRANCH  17  18
ENDBRANCH  16  17
ENDBRANCH  13  16
ENDBRANCH  11  12
ENDBRANCH   6  11
BRANCH   7  22
HETATM   22  C   UNL     1      -5.479  -1.004 -33.776  1.00  0.00     0.008 A 
HETATM   23  C   UNL     1      -4.384  -1.887 -33.762  1.00  0.00     0.125 A 
HETATM   24  F   UNL     1      -3.207  -1.499 -33.260  1.00  0.00    -0.205 F 
HETATM   25  C   UNL     1      -4.474  -3.185 -34.256  1.00  0.00     0.043 A 
HETATM   26  C   UNL     1      -5.668  -3.636 -34.804  1.00  0.00     0.003 A 
HETATM   27  C   UNL     1      -6.762  -2.777 -34.872  1.00  0.00     0.001 A 
HETATM   28  C   UNL     1      -6.669  -1.471 -34.376  1.00  0.00     0.013 A 
ENDBRANCH   7  22
BRANCH  10  29
HETATM   29  C   UNL     1      -3.727   1.262 -31.636  1.00  0.00     0.294 C 
HETATM   30  O   UNL     1      -2.794   0.696 -31.075  1.00  0.00    -0.259 OA
BRANCH  29  31
HETATM   31  O   UNL     1      -3.897   2.564 -31.900  1.00  0.00    -0.313 OA
BRANCH  31  32
HETATM   32  C   UNL     1      -2.928   3.450 -31.318  1.00  0.00     0.217 C 
BRANCH  32  33
HETATM   33  C   UNL     1      -2.325   4.347 -32.358  1.00  0.00    -0.034 A 
HETATM   34  C   UNL     1      -2.567   4.108 -33.718  1.00  0.00     0.009 A 
HETATM   35  C   UNL     1      -2.040   4.958 -34.688  1.00  0.00     0.001 A 
HETATM   36  C   UNL     1      -1.262   6.051 -34.310  1.00  0.00     0.000 A 
HETATM   37  C   UNL     1      -1.005   6.292 -32.961  1.00  0.00     0.001 A 
HETATM   38  C   UNL     1      -1.533   5.443 -31.989  1.00  0.00     0.009 A 
ENDBRANCH  32  33
ENDBRANCH  31  32
ENDBRANCH  29  31
ENDBRANCH  10  29
TORSDOF 10
ENDMDL
MODEL 4
REMARK VINA RESULT:      -8.7      2.867      5.922
REMARK  10 active torsions:
REMARK  status: ('A' for Active; 'I' for Inactive)
REMARK    1  A    between atoms: C_6  and  C_7 
REMARK    2  A    between atoms: C_7  and  C_8 
REMARK       I    between atoms: C_8  and  N_9 
REMARK    3  A    between atoms: N_9  and  C_10 
REMARK    4  A    between atoms: C_10  and  C_11 
REMARK    5  A    between atoms: C_11  and  N_12 
REMARK    6  A    between atoms: C_17  and  C_18 
REMARK    7  A    between atoms: C_27  and  C_28 
REMARK    8  A    between atoms: C_28  and  O_29 
REMARK    9  A    between atoms: O_29  and  C_30 
REMARK   10  A    between atoms: C_30  and  C_31 
ROOT
HETATM    1  C   UNL     1      -7.801   6.019 -32.520  1.00  0.00     0.071 C 
HETATM    2  C   UNL     1      -6.787   4.958 -32.859  1.00  0.00     0.048 C 
HETATM    3  N   UNL     1      -6.135   5.156 -34.078  1.00  0.00    -0.229 NA
HETATM    4  C   UNL     1      -4.948   4.659 -34.166  1.00  0.00     0.170 C 
HETATM    5  N   UNL     1      -4.336   3.756 -33.063  1.00  0.00    -0.318 N 
HETATM    6  C   UNL     1      -3.105   4.080 -32.860  1.00  0.00     0.011 C 
HETATM    7  C   UNL     1      -5.380   2.964 -32.392  1.00  0.00     0.169 C 
HETATM    8  S   UNL     1      -3.728   5.149 -35.285  1.00  0.00    -0.086 SA
HETATM    9  C   UNL     1      -2.451   4.845 -34.001  1.00  0.00     0.135 C 
HETATM   10  C   UNL     1      -6.426   3.964 -32.020  1.00  0.00     0.069 C 
ENDROOT
BRANCH   6  11
HETATM   11  C   UNL     1      -2.444   3.825 -31.537  1.00  0.00     0.156 C 
BRANCH  11  12
HETATM   12  C   UNL     1      -1.790   5.090 -31.007  1.00  0.00     0.223 C 
HETATM   13  N   UNL     1      -0.426   5.085 -30.898  1.00  0.00    -0.359 N 
HETATM   14  H   UNL     1       0.117   4.279 -31.214  1.00  0.00     0.162 HD
HETATM   15  O   UNL     1      -2.468   6.038 -30.614  1.00  0.00    -0.273 OA
BRANCH  13  16
HETATM   16  C   UNL     1       0.320   6.099 -30.135  1.00  0.00     0.150 C 
BRANCH  16  17
HETATM   17  C   UNL     1       0.443   5.861 -28.609  1.00  0.00     0.253 C 
BRANCH  17  18
HETATM   18  N   UNL     1      -0.751   6.377 -27.829  1.00  0.00    -0.077 N 
HETATM   19  H   UNL     1      -1.588   5.870 -28.179  1.00  0.00     0.279 HD
HETATM   20  C   UNL     1      -0.693   6.087 -26.354  1.00  0.00     0.269 C 
HETATM   21  C   UNL     1      -1.002   7.839 -28.077  1.00  0.00     0.269 C 
ENDBRANCH  17  18
ENDBRANCH  16  17
ENDBRANCH  13  16
ENDBRANCH  11  12
ENDBRANCH   6  11
BRANCH   7  22
HETATM   22  C   UNL     1      -5.822   1.797 -33.278  1.00  0.00     0.008 A 
HETATM   23  C   UNL     1      -5.258   0.512 -33.181  1.00  0.00     0.125 A 
HETATM   24  F   UNL     1      -4.274   0.268 -32.309  1.00  0.00    -0.205 F 
HETATM   25  C   UNL     1      -5.693  -0.550 -33.970  1.00  0.00     0.043 A 
HETATM   26  C   UNL     1      -6.701  -0.349 -34.904  1.00  0.00     0.003 A 
HETATM   27  C   UNL     1      -7.256   0.919 -35.057  1.00  0.00     0.001 A 
HETATM   28  C   UNL     1      -6.816   1.985 -34.264  1.00  0.00     0.013 A 
ENDBRANCH   7  22
BRANCH  10  29
HETATM   29  C   UNL     1      -6.669   3.976 -30.573  1.00  0.00     0.294 C 
HETATM   30  O   UNL     1      -5.957   4.684 -29.867  1.00  0.00    -0.259 OA
BRANCH  29  31
HETATM   31  O   UNL     1      -7.463   2.955 -30.225  1.00  0.00    -0.313 OA
BRANCH  31  32
HETATM   32  C   UNL     1      -8.871   3.165 -30.419  1.00  0.00     0.217 C 
BRANCH  32  33
HETATM   33  C   UNL     1      -9.409   2.257 -31.485  1.00  0.00    -0.034 A 
HETATM   34  C   UNL     1      -9.042   0.905 -31.507  1.00  0.00     0.009 A 
HETATM   35  C   UNL     1      -9.566   0.048 -32.473  1.00  0.00     0.001 A 
HETATM   36  C   UNL     1     -10.456   0.535 -33.429  1.00  0.00     0.000 A 
HETATM   37  C   UNL     1     -10.819   1.880 -33.424  1.00  0.00     0.001 A 
HETATM   38  C   UNL     1     -10.296   2.740 -32.457  1.00  0.00     0.009 A 
ENDBRANCH  32  33
ENDBRANCH  31  32
ENDBRANCH  29  31
ENDBRANCH  10  29
TORSDOF 10
ENDMDL
MODEL 5
REMARK VINA RESULT:      -7.9      2.533      6.603
REMARK  10 active torsions:
REMARK  status: ('A' for Active; 'I' for Inactive)
REMARK    1  A    between atoms: C_6  and  C_7 
REMARK    2  A    between atoms: C_7  and  C_8 
REMARK       I    between atoms: C_8  and  N_9 
REMARK    3  A    between atoms: N_9  and  C_10 
REMARK    4  A    between atoms: C_10  and  C_11 
REMARK    5  A    between atoms: C_11  and  N_12 
REMARK    6  A    between atoms: C_17  and  C_18 
REMARK    7  A    between atoms: C_27  and  C_28 
REMARK    8  A    between atoms: C_28  and  O_29 
REMARK    9  A    between atoms: O_29  and  C_30 
REMARK   10  A    between atoms: C_30  and  C_31 
ROOT
HETATM    1  C   UNL     1      -6.751   2.539 -34.142  1.00  0.00     0.071 C 
HETATM    2  C   UNL     1      -6.041   3.624 -33.375  1.00  0.00     0.048 C 
HETATM    3  N   UNL     1      -6.588   4.898 -33.543  1.00  0.00    -0.229 NA
HETATM    4  C   UNL     1      -6.419   5.715 -32.560  1.00  0.00     0.170 C 
HETATM    5  N   UNL     1      -5.528   5.377 -31.336  1.00  0.00    -0.318 N 
HETATM    6  C   UNL     1      -6.107   5.759 -30.250  1.00  0.00     0.011 C 
HETATM    7  C   UNL     1      -4.405   4.508 -31.726  1.00  0.00     0.169 C 
HETATM    8  S   UNL     1      -7.369   7.122 -32.240  1.00  0.00    -0.086 SA
HETATM    9  C   UNL     1      -7.184   6.817 -30.439  1.00  0.00     0.135 C 
HETATM   10  C   UNL     1      -5.044   3.397 -32.494  1.00  0.00     0.069 C 
ENDROOT
BRANCH   6  11
HETATM   11  C   UNL     1      -5.811   5.093 -28.938  1.00  0.00     0.156 C 
BRANCH  11  12
HETATM   12  C   UNL     1      -5.125   6.057 -27.986  1.00  0.00     0.223 C 
HETATM   13  N   UNL     1      -3.936   6.597 -28.398  1.00  0.00    -0.359 N 
HETATM   14  H   UNL     1      -3.569   6.393 -29.330  1.00  0.00     0.162 HD
HETATM   15  O   UNL     1      -5.577   6.270 -26.862  1.00  0.00    -0.273 OA
BRANCH  13  16
HETATM   16  C   UNL     1      -3.017   7.298 -27.488  1.00  0.00     0.150 C 
BRANCH  16  17
HETATM   17  C   UNL     1      -1.583   7.552 -28.018  1.00  0.00     0.253 C 
BRANCH  17  18
HETATM   18  N   UNL     1      -0.871   6.281 -28.440  1.00  0.00    -0.077 N 
HETATM   19  H   UNL     1      -1.499   5.487 -28.206  1.00  0.00     0.279 HD
HETATM   20  C   UNL     1      -0.625   6.177 -29.920  1.00  0.00     0.269 C 
HETATM   21  C   UNL     1       0.402   6.062 -27.668  1.00  0.00     0.269 C 
ENDBRANCH  17  18
ENDBRANCH  16  17
ENDBRANCH  13  16
ENDBRANCH  11  12
ENDBRANCH   6  11
BRANCH   7  22
HETATM   22  C   UNL     1      -3.325   5.317 -32.449  1.00  0.00     0.008 A 
HETATM   23  C   UNL     1      -2.337   4.719 -33.252  1.00  0.00     0.125 A 
HETATM   24  F   UNL     1      -2.291   3.389 -33.392  1.00  0.00    -0.205 F 
HETATM   25  C   UNL     1      -1.381   5.468 -33.932  1.00  0.00     0.043 A 
HETATM   26  C   UNL     1      -1.372   6.852 -33.808  1.00  0.00     0.003 A 
HETATM   27  C   UNL     1      -2.309   7.477 -32.990  1.00  0.00     0.001 A 
HETATM   28  C   UNL     1      -3.269   6.721 -32.307  1.00  0.00     0.013 A 
ENDBRANCH   7  22
BRANCH  10  29
HETATM   29  C   UNL     1      -4.761   2.091 -31.886  1.00  0.00     0.294 C 
HETATM   30  O   UNL     1      -4.580   2.039 -30.673  1.00  0.00    -0.259 OA
BRANCH  29  31
HETATM   31  O   UNL     1      -4.451   1.194 -32.831  1.00  0.00    -0.313 OA
BRANCH  31  32
HETATM   32  C   UNL     1      -4.177  -0.136 -32.363  1.00  0.00     0.217 C 
BRANCH  32  33
HETATM   33  C   UNL     1      -4.920  -1.157 -33.174  1.00  0.00    -0.034 A 
HETATM   34  C   UNL     1      -6.287  -0.989 -33.432  1.00  0.00     0.009 A 
HETATM   35  C   UNL     1      -6.975  -1.914 -34.215  1.00  0.00     0.001 A 
HETATM   36  C   UNL     1      -6.306  -3.017 -34.743  1.00  0.00     0.000 A 
HETATM   37  C   UNL     1      -4.948  -3.200 -34.484  1.00  0.00     0.001 A 
HETATM   38  C   UNL     1      -4.258  -2.274 -33.700  1.00  0.00     0.009 A 
ENDBRANCH  32  33
ENDBRANCH  31  32
ENDBRANCH  29  31
ENDBRANCH  10  29
TORSDOF 10
ENDMDL
MODEL 6
REMARK VINA RESULT:      -7.8      3.061      5.195
REMARK  10 active torsions:
REMARK  status: ('A' for Active; 'I' for Inactive)
REMARK    1  A    between atoms: C_6  and  C_7 
REMARK    2  A    between atoms: C_7  and  C_8 
REMARK       I    between atoms: C_8  and  N_9 
REMARK    3  A    between atoms: N_9  and  C_10 
REMARK    4  A    between atoms: C_10  and  C_11 
REMARK    5  A    between atoms: C_11  and  N_12 
REMARK    6  A    between atoms: C_17  and  C_18 
REMARK    7  A    between atoms: C_27  and  C_28 
REMARK    8  A    between atoms: C_28  and  O_29 
REMARK    9  A    between atoms: O_29  and  C_30 
REMARK   10  A    between atoms: C_30  and  C_31 
ROOT
HETATM    1  C   UNL     1      -4.010   5.053 -30.917  1.00  0.00     0.071 C 
HETATM    2  C   UNL     1      -5.072   4.181 -31.536  1.00  0.00     0.048 C 
HETATM    3  N   UNL     1      -6.025   3.709 -30.632  1.00  0.00    -0.229 NA
HETATM    4  C   UNL     1      -7.190   3.458 -31.126  1.00  0.00     0.170 C 
HETATM    5  N   UNL     1      -7.482   3.513 -32.648  1.00  0.00    -0.318 N 
HETATM    6  C   UNL     1      -8.616   4.087 -32.860  1.00  0.00     0.011 C 
HETATM    7  C   UNL     1      -6.293   3.128 -33.427  1.00  0.00     0.169 C 
HETATM    8  S   UNL     1      -8.667   3.366 -30.235  1.00  0.00    -0.086 SA
HETATM    9  C   UNL     1      -9.555   4.106 -31.663  1.00  0.00     0.135 C 
HETATM   10  C   UNL     1      -5.192   3.966 -32.863  1.00  0.00     0.069 C 
ENDROOT
BRANCH   6  11
HETATM   11  C   UNL     1      -8.901   4.789 -34.156  1.00  0.00     0.156 C 
BRANCH  11  12
HETATM   12  C   UNL     1     -10.364   4.640 -34.540  1.00  0.00     0.223 C 
HETATM   13  N   UNL     1     -10.841   3.365 -34.688  1.00  0.00    -0.359 N 
HETATM   14  H   UNL     1     -10.242   2.561 -34.491  1.00  0.00     0.162 HD
HETATM   15  O   UNL     1     -11.057   5.624 -34.792  1.00  0.00    -0.273 OA
BRANCH  13  16
HETATM   16  C   UNL     1     -12.126   3.062 -35.337  1.00  0.00     0.150 C 
BRANCH  16  17
HETATM   17  C   UNL     1     -12.801   1.726 -34.937  1.00  0.00     0.253 C 
BRANCH  17  18
HETATM   18  N   UNL     1     -14.164   1.916 -34.298  1.00  0.00    -0.077 N 
HETATM   19  H   UNL     1     -14.657   2.651 -34.843  1.00  0.00     0.279 HD
HETATM   20  C   UNL     1     -15.049   0.702 -34.367  1.00  0.00     0.269 C 
HETATM   21  C   UNL     1     -14.063   2.426 -32.886  1.00  0.00     0.269 C 
ENDBRANCH  17  18
ENDBRANCH  16  17
ENDBRANCH  13  16
ENDBRANCH  11  12
ENDBRANCH   6  11
BRANCH   7  22
HETATM   22  C   UNL     1      -6.096   1.610 -33.391  1.00  0.00     0.008 A 
HETATM   23  C   UNL     1      -7.014   0.711 -33.964  1.00  0.00     0.125 A 
HETATM   24  F   UNL     1      -8.129   1.161 -34.548  1.00  0.00    -0.205 F 
HETATM   25  C   UNL     1      -6.806  -0.666 -33.954  1.00  0.00     0.043 A 
HETATM   26  C   UNL     1      -5.672  -1.189 -33.346  1.00  0.00     0.003 A 
HETATM   27  C   UNL     1      -4.761  -0.333 -32.734  1.00  0.00     0.001 A 
HETATM   28  C   UNL     1      -4.973   1.051 -32.743  1.00  0.00     0.013 A 
ENDBRANCH   7  22
BRANCH  10  29
HETATM   29  C   UNL     1      -4.573   4.805 -33.896  1.00  0.00     0.294 C 
HETATM   30  O   UNL     1      -5.276   5.622 -34.482  1.00  0.00    -0.259 OA
BRANCH  29  31
HETATM   31  O   UNL     1      -3.372   4.319 -34.235  1.00  0.00    -0.313 OA
BRANCH  31  32
HETATM   32  C   UNL     1      -2.416   5.284 -34.702  1.00  0.00     0.217 C 
BRANCH  32  33
HETATM   33  C   UNL     1      -1.738   5.970 -33.553  1.00  0.00    -0.034 A 
HETATM   34  C   UNL     1      -1.961   7.333 -33.318  1.00  0.00     0.009 A 
HETATM   35  C   UNL     1      -1.362   7.968 -32.230  1.00  0.00     0.001 A 
HETATM   36  C   UNL     1      -0.532   7.249 -31.372  1.00  0.00     0.000 A 
HETATM   37  C   UNL     1      -0.294   5.895 -31.603  1.00  0.00     0.001 A 
HETATM   38  C   UNL     1      -0.893   5.258 -32.691  1.00  0.00     0.009 A 
ENDBRANCH  32  33
ENDBRANCH  31  32
ENDBRANCH  29  31
ENDBRANCH  10  29
TORSDOF 10
ENDMDL
MODEL 7
REMARK VINA RESULT:      -7.6      3.692      7.909
REMARK  10 active torsions:
REMARK  status: ('A' for Active; 'I' for Inactive)
REMARK    1  A    between atoms: C_6  and  C_7 
REMARK    2  A    between atoms: C_7  and  C_8 
REMARK       I    between atoms: C_8  and  N_9 
REMARK    3  A    between atoms: N_9  and  C_10 
REMARK    4  A    between atoms: C_10  and  C_11 
REMARK    5  A    between atoms: C_11  and  N_12 
REMARK    6  A    between atoms: C_17  and  C_18 
REMARK    7  A    between atoms: C_27  and  C_28 
REMARK    8  A    between atoms: C_28  and  O_29 
REMARK    9  A    between atoms: O_29  and  C_30 
REMARK   10  A    between atoms: C_30  and  C_31 
ROOT
HETATM    1  C   UNL     1      -2.430   6.320 -33.985  1.00  0.00     0.071 C 
HETATM    2  C   UNL     1      -3.047   6.583 -32.636  1.00  0.00     0.048 C 
HETATM    3  N   UNL     1      -4.248   7.295 -32.684  1.00  0.00    -0.229 NA
HETATM    4  C   UNL     1      -5.067   7.079 -31.710  1.00  0.00     0.170 C 
HETATM    5  N   UNL     1      -4.690   6.219 -30.477  1.00  0.00    -0.318 N 
HETATM    6  C   UNL     1      -5.674   5.450 -30.158  1.00  0.00     0.011 C 
HETATM    7  C   UNL     1      -3.254   6.335 -30.172  1.00  0.00     0.169 C 
HETATM    8  S   UNL     1      -6.767   7.381 -31.735  1.00  0.00    -0.086 SA
HETATM    9  C   UNL     1      -7.028   5.895 -30.688  1.00  0.00     0.135 C 
HETATM   10  C   UNL     1      -2.574   6.078 -31.477  1.00  0.00     0.069 C 
ENDROOT
BRANCH   6  11
HETATM   11  C   UNL     1      -5.444   4.156 -29.433  1.00  0.00     0.156 C 
BRANCH  11  12
HETATM   12  C   UNL     1      -5.562   2.977 -30.385  1.00  0.00     0.223 C 
HETATM   13  N   UNL     1      -4.567   2.827 -31.313  1.00  0.00    -0.359 N 
HETATM   14  H   UNL     1      -3.762   3.456 -31.317  1.00  0.00     0.162 HD
HETATM   15  O   UNL     1      -6.552   2.247 -30.373  1.00  0.00    -0.273 OA
BRANCH  13  16
HETATM   16  C   UNL     1      -4.686   1.932 -32.476  1.00  0.00     0.150 C 
BRANCH  16  17
HETATM   17  C   UNL     1      -3.806   0.657 -32.456  1.00  0.00     0.253 C 
BRANCH  17  18
HETATM   18  N   UNL     1      -4.517  -0.565 -33.005  1.00  0.00    -0.077 N 
HETATM   19  H   UNL     1      -4.471  -0.506 -34.041  1.00  0.00     0.279 HD
HETATM   20  C   UNL     1      -3.862  -1.870 -32.646  1.00  0.00     0.269 C 
HETATM   21  C   UNL     1      -5.977  -0.582 -32.642  1.00  0.00     0.269 C 
ENDBRANCH  17  18
ENDBRANCH  16  17
ENDBRANCH  13  16
ENDBRANCH  11  12
ENDBRANCH   6  11
BRANCH   7  22
HETATM   22  C   UNL     1      -2.957   7.672 -29.488  1.00  0.00     0.008 A 
HETATM   23  C   UNL     1      -3.213   7.902 -28.125  1.00  0.00     0.125 A 
HETATM   24  F   UNL     1      -3.764   6.947 -27.368  1.00  0.00    -0.205 F 
HETATM   25  C   UNL     1      -2.906   9.112 -27.507  1.00  0.00     0.043 A 
HETATM   26  C   UNL     1      -2.347  10.145 -28.249  1.00  0.00     0.003 A 
HETATM   27  C   UNL     1      -2.116   9.968 -29.611  1.00  0.00     0.001 A 
HETATM   28  C   UNL     1      -2.427   8.751 -30.230  1.00  0.00     0.013 A 
ENDBRANCH   7  22
BRANCH  10  29
HETATM   29  C   UNL     1      -1.654   4.938 -31.388  1.00  0.00     0.294 C 
HETATM   30  O   UNL     1      -1.851   3.971 -32.117  1.00  0.00    -0.259 OA
BRANCH  29  31
HETATM   31  O   UNL     1      -0.900   5.031 -30.285  1.00  0.00    -0.313 OA
BRANCH  31  32
HETATM   32  C   UNL     1       0.197   5.955 -30.354  1.00  0.00     0.217 C 
BRANCH  32  33
HETATM   33  C   UNL     1       0.396   6.654 -29.042  1.00  0.00    -0.034 A 
HETATM   34  C   UNL     1       0.985   7.925 -29.005  1.00  0.00     0.009 A 
HETATM   35  C   UNL     1       1.140   8.596 -27.793  1.00  0.00     0.001 A 
HETATM   36  C   UNL     1       0.715   8.001 -26.606  1.00  0.00     0.000 A 
HETATM   37  C   UNL     1       0.138   6.732 -26.630  1.00  0.00     0.001 A 
HETATM   38  C   UNL     1      -0.019   6.060 -27.843  1.00  0.00     0.009 A 
ENDBRANCH  32  33
ENDBRANCH  31  32
ENDBRANCH  29  31
ENDBRANCH  10  29
TORSDOF 10
ENDMDL
MODEL 8
REMARK VINA RESULT:      -7.5      1.542      2.020
REMARK  10 active torsions:
REMARK  status: ('A' for Active; 'I' for Inactive)
REMARK    1  A    between atoms: C_6  and  C_7 
REMARK    2  A    between atoms: C_7  and  C_8 
REMARK       I    between atoms: C_8  and  N_9 
REMARK    3  A    between atoms: N_9  and  C_10 
REMARK    4  A    between atoms: C_10  and  C_11 
REMARK    5  A    between atoms: C_11  and  N_12 
REMARK    6  A    between atoms: C_17  and  C_18 
REMARK    7  A    between atoms: C_27  and  C_28 
REMARK    8  A    between atoms: C_28  and  O_29 
REMARK    9  A    between atoms: O_29  and  C_30 
REMARK   10  A    between atoms: C_30  and  C_31 
ROOT
HETATM    1  C   UNL     1      -5.159   1.778 -29.672  1.00  0.00     0.071 C 
HETATM    2  C   UNL     1      -5.762   1.276 -30.959  1.00  0.00     0.048 C 
HETATM    3  N   UNL     1      -6.985   0.620 -30.802  1.00  0.00    -0.229 NA
HETATM    4  C   UNL     1      -7.780   0.666 -31.817  1.00  0.00     0.170 C 
HETATM    5  N   UNL     1      -7.355   1.261 -33.185  1.00  0.00    -0.318 N 
HETATM    6  C   UNL     1      -8.309   1.980 -33.668  1.00  0.00     0.011 C 
HETATM    7  C   UNL     1      -5.918   1.048 -33.429  1.00  0.00     0.169 C 
HETATM    8  S   UNL     1      -9.489   0.422 -31.773  1.00  0.00    -0.086 SA
HETATM    9  C   UNL     1      -9.685   1.683 -33.093  1.00  0.00     0.135 C 
HETATM   10  C   UNL     1      -5.253   1.534 -32.182  1.00  0.00     0.069 C 
ENDROOT
BRANCH   6  11
HETATM   11  C   UNL     1      -8.026   3.103 -34.623  1.00  0.00     0.156 C 
BRANCH  11  12
HETATM   12  C   UNL     1      -8.218   4.449 -33.945  1.00  0.00     0.223 C 
HETATM   13  N   UNL     1      -7.854   4.539 -32.629  1.00  0.00    -0.359 N 
HETATM   14  H   UNL     1      -7.424   3.743 -32.154  1.00  0.00     0.162 HD
HETATM   15  O   UNL     1      -8.758   5.385 -34.533  1.00  0.00    -0.273 OA
BRANCH  13  16
HETATM   16  C   UNL     1      -8.249   5.662 -31.764  1.00  0.00     0.150 C 
BRANCH  16  17
HETATM   17  C   UNL     1      -7.116   6.332 -30.946  1.00  0.00     0.253 C 
BRANCH  17  18
HETATM   18  N   UNL     1      -6.332   5.348 -30.100  1.00  0.00    -0.077 N 
HETATM   19  H   UNL     1      -6.033   4.575 -30.728  1.00  0.00     0.279 HD
HETATM   20  C   UNL     1      -5.062   5.910 -29.521  1.00  0.00     0.269 C 
HETATM   21  C   UNL     1      -7.179   4.722 -29.025  1.00  0.00     0.269 C 
ENDBRANCH  17  18
ENDBRANCH  16  17
ENDBRANCH  13  16
ENDBRANCH  11  12
ENDBRANCH   6  11
BRANCH   7  22
HETATM   22  C   UNL     1      -5.652  -0.403 -33.834  1.00  0.00     0.008 A 
HETATM   23  C   UNL     1      -6.451  -1.092 -34.764  1.00  0.00     0.125 A 
HETATM   24  F   UNL     1      -7.514  -0.497 -35.317  1.00  0.00    -0.205 F 
HETATM   25  C   UNL     1      -6.178  -2.402 -35.150  1.00  0.00     0.043 A 
HETATM   26  C   UNL     1      -5.096  -3.074 -34.595  1.00  0.00     0.003 A 
HETATM   27  C   UNL     1      -4.306  -2.439 -33.641  1.00  0.00     0.001 A 
HETATM   28  C   UNL     1      -4.584  -1.123 -33.254  1.00  0.00     0.013 A 
ENDBRANCH   7  22
BRANCH  10  29
HETATM   29  C   UNL     1      -4.296   2.609 -32.468  1.00  0.00     0.294 C 
HETATM   30  O   UNL     1      -3.103   2.394 -32.280  1.00  0.00    -0.259 OA
BRANCH  29  31
HETATM   31  O   UNL     1      -4.936   3.777 -32.615  1.00  0.00    -0.313 OA
BRANCH  31  32
HETATM   32  C   UNL     1      -4.678   4.480 -33.841  1.00  0.00     0.217 C 
BRANCH  32  33
HETATM   33  C   UNL     1      -3.471   5.362 -33.713  1.00  0.00    -0.034 A 
HETATM   34  C   UNL     1      -2.346   5.132 -34.516  1.00  0.00     0.009 A 
HETATM   35  C   UNL     1      -1.235   5.970 -34.428  1.00  0.00     0.001 A 
HETATM   36  C   UNL     1      -1.236   7.039 -33.534  1.00  0.00     0.000 A 
HETATM   37  C   UNL     1      -2.346   7.270 -32.722  1.00  0.00     0.001 A 
HETATM   38  C   UNL     1      -3.459   6.433 -32.810  1.00  0.00     0.009 A 
ENDBRANCH  32  33
ENDBRANCH  31  32
ENDBRANCH  29  31
ENDBRANCH  10  29
TORSDOF 10
ENDMDL
MODEL 9
REMARK VINA RESULT:      -7.3      2.575      3.658
REMARK  10 active torsions:
REMARK  status: ('A' for Active; 'I' for Inactive)
REMARK    1  A    between atoms: C_6  and  C_7 
REMARK    2  A    between atoms: C_7  and  C_8 
REMARK       I    between atoms: C_8  and  N_9 
REMARK    3  A    between atoms: N_9  and  C_10 
REMARK    4  A    between atoms: C_10  and  C_11 
REMARK    5  A    between atoms: C_11  and  N_12 
REMARK    6  A    between atoms: C_17  and  C_18 
REMARK    7  A    between atoms: C_27  and  C_28 
REMARK    8  A    between atoms: C_28  and  O_29 
REMARK    9  A    between atoms: O_29  and  C_30 
REMARK   10  A    between atoms: C_30  and  C_31 
ROOT
HETATM    1  C   UNL     1      -4.667   4.520 -30.824  1.00  0.00     0.071 C 
HETATM    2  C   UNL     1      -5.662   3.709 -31.614  1.00  0.00     0.048 C 
HETATM    3  N   UNL     1      -6.611   3.046 -30.833  1.00  0.00    -0.229 NA
HETATM    4  C   UNL     1      -7.747   2.821 -31.403  1.00  0.00     0.170 C 
HETATM    5  N   UNL     1      -8.000   3.111 -32.905  1.00  0.00    -0.318 N 
HETATM    6  C   UNL     1      -9.159   3.653 -33.060  1.00  0.00     0.011 C 
HETATM    7  C   UNL     1      -6.771   2.920 -33.693  1.00  0.00     0.169 C 
HETATM    8  S   UNL     1      -9.239   2.508 -30.591  1.00  0.00    -0.086 SA
HETATM    9  C   UNL     1     -10.128   3.426 -31.910  1.00  0.00     0.135 C 
HETATM   10  C   UNL     1      -5.734   3.709 -32.962  1.00  0.00     0.069 C 
ENDROOT
BRANCH   6  11
HETATM   11  C   UNL     1      -9.449   4.543 -34.233  1.00  0.00     0.156 C 
BRANCH  11  12
HETATM   12  C   UNL     1      -9.713   5.968 -33.778  1.00  0.00     0.223 C 
HETATM   13  N   UNL     1      -8.641   6.679 -33.308  1.00  0.00    -0.359 N 
HETATM   14  H   UNL     1      -7.703   6.273 -33.321  1.00  0.00     0.162 HD
HETATM   15  O   UNL     1     -10.854   6.426 -33.752  1.00  0.00    -0.273 OA
BRANCH  13  16
HETATM   16  C   UNL     1      -8.781   7.940 -32.563  1.00  0.00     0.150 C 
BRANCH  16  17
HETATM   17  C   UNL     1      -8.184   7.966 -31.134  1.00  0.00     0.253 C 
BRANCH  17  18
HETATM   18  N   UNL     1      -9.107   7.364 -30.093  1.00  0.00    -0.077 N 
HETATM   19  H   UNL     1     -10.020   7.191 -30.557  1.00  0.00     0.279 HD
HETATM   20  C   UNL     1      -8.659   6.026 -29.574  1.00  0.00     0.269 C 
HETATM   21  C   UNL     1      -9.379   8.314 -28.958  1.00  0.00     0.269 C 
ENDBRANCH  17  18
ENDBRANCH  16  17
ENDBRANCH  13  16
ENDBRANCH  11  12
ENDBRANCH   6  11
BRANCH   7  22
HETATM   22  C   UNL     1      -6.490   1.430 -33.898  1.00  0.00     0.008 A 
HETATM   23  C   UNL     1      -7.350   0.587 -34.627  1.00  0.00     0.125 A 
HETATM   24  F   UNL     1      -8.482   1.066 -35.153  1.00  0.00    -0.205 F 
HETATM   25  C   UNL     1      -7.065  -0.760 -34.835  1.00  0.00     0.043 A 
HETATM   26  C   UNL     1      -5.910  -1.313 -34.296  1.00  0.00     0.003 A 
HETATM   27  C   UNL     1      -5.056  -0.520 -33.536  1.00  0.00     0.001 A 
HETATM   28  C   UNL     1      -5.345   0.833 -33.326  1.00  0.00     0.013 A 
ENDBRANCH   7  22
BRANCH  10  29
HETATM   29  C   UNL     1      -5.137   4.738 -33.821  1.00  0.00     0.294 C 
HETATM   30  O   UNL     1      -5.839   5.677 -34.183  1.00  0.00    -0.259 OA
BRANCH  29  31
HETATM   31  O   UNL     1      -3.968   4.311 -34.317  1.00  0.00    -0.313 OA
BRANCH  31  32
HETATM   32  C   UNL     1      -3.081   5.334 -34.795  1.00  0.00     0.217 C 
BRANCH  32  33
HETATM   33  C   UNL     1      -2.187   5.828 -33.695  1.00  0.00    -0.034 A 
HETATM   34  C   UNL     1      -1.519   4.914 -32.869  1.00  0.00     0.009 A 
HETATM   35  C   UNL     1      -0.659   5.366 -31.869  1.00  0.00     0.001 A 
HETATM   36  C   UNL     1      -0.464   6.734 -31.681  1.00  0.00     0.000 A 
HETATM   37  C   UNL     1      -1.132   7.651 -32.490  1.00  0.00     0.001 A 
HETATM   38  C   UNL     1      -1.993   7.201 -33.491  1.00  0.00     0.009 A 
ENDBRANCH  32  33
ENDBRANCH  31  32
ENDBRANCH  29  31
ENDBRANCH  10  29
TORSDOF 10
ENDMDL
MODEL 10
REMARK VINA RESULT:      -7.3      2.270      5.393
REMARK  10 active torsions:
REMARK  status: ('A' for Active; 'I' for Inactive)
REMARK    1  A    between atoms: C_6  and  C_7 
REMARK    2  A    between atoms: C_7  and  C_8 
REMARK       I    between atoms: C_8  and  N_9 
REMARK    3  A    between atoms: N_9  and  C_10 
REMARK    4  A    between atoms: C_10  and  C_11 
REMARK    5  A    between atoms: C_11  and  N_12 
REMARK    6  A    between atoms: C_17  and  C_18 
REMARK    7  A    between atoms: C_27  and  C_28 
REMARK    8  A    between atoms: C_28  and  O_29 
REMARK    9  A    between atoms: O_29  and  C_30 
REMARK   10  A    between atoms: C_30  and  C_31 
ROOT
HETATM    1  C   UNL     1      -5.326   0.812 -29.355  1.00  0.00     0.071 C 
HETATM    2  C   UNL     1      -5.968   1.658 -30.424  1.00  0.00     0.048 C 
HETATM    3  N   UNL     1      -6.974   2.506 -29.956  1.00  0.00    -0.229 NA
HETATM    4  C   UNL     1      -7.160   3.585 -30.639  1.00  0.00     0.170 C 
HETATM    5  N   UNL     1      -6.438   3.857 -31.985  1.00  0.00    -0.318 N 
HETATM    6  C   UNL     1      -6.043   5.083 -32.033  1.00  0.00     0.011 C 
HETATM    7  C   UNL     1      -6.189   2.601 -32.712  1.00  0.00     0.169 C 
HETATM    8  S   UNL     1      -7.925   5.024 -30.067  1.00  0.00    -0.086 SA
HETATM    9  C   UNL     1      -6.764   6.023 -31.079  1.00  0.00     0.135 C 
HETATM   10  C   UNL     1      -5.542   1.709 -31.703  1.00  0.00     0.069 C 
ENDROOT
BRANCH   6  11
HETATM   11  C   UNL     1      -4.871   5.487 -32.879  1.00  0.00     0.156 C 
BRANCH  11  12
HETATM   12  C   UNL     1      -3.779   6.109 -32.025  1.00  0.00     0.223 C 
HETATM   13  N   UNL     1      -3.117   7.186 -32.552  1.00  0.00    -0.359 N 
HETATM   14  H   UNL     1      -3.395   7.575 -33.455  1.00  0.00     0.162 HD
HETATM   15  O   UNL     1      -3.449   5.609 -30.951  1.00  0.00    -0.273 OA
BRANCH  13  16
HETATM   16  C   UNL     1      -1.858   7.703 -31.992  1.00  0.00     0.150 C 
BRANCH  16  17
HETATM   17  C   UNL     1      -0.637   6.751 -32.049  1.00  0.00     0.253 C 
BRANCH  17  18
HETATM   18  N   UNL     1      -0.399   6.011 -30.747  1.00  0.00    -0.077 N 
HETATM   19  H   UNL     1      -1.193   5.353 -30.620  1.00  0.00     0.279 HD
HETATM   20  C   UNL     1       0.837   5.153 -30.745  1.00  0.00     0.269 C 
HETATM   21  C   UNL     1      -0.412   6.934 -29.559  1.00  0.00     0.269 C 
ENDBRANCH  17  18
ENDBRANCH  16  17
ENDBRANCH  13  16
ENDBRANCH  11  12
ENDBRANCH   6  11
BRANCH   7  22
HETATM   22  C   UNL     1      -7.477   2.092 -33.362  1.00  0.00     0.008 A 
HETATM   23  C   UNL     1      -7.481   1.154 -34.410  1.00  0.00     0.125 A 
HETATM   24  F   UNL     1      -6.329   0.686 -34.905  1.00  0.00    -0.205 F 
HETATM   25  C   UNL     1      -8.661   0.673 -34.970  1.00  0.00     0.043 A 
HETATM   26  C   UNL     1      -9.886   1.137 -34.506  1.00  0.00     0.003 A 
HETATM   27  C   UNL     1      -9.921   2.095 -33.497  1.00  0.00     0.001 A 
HETATM   28  C   UNL     1      -8.733   2.579 -32.937  1.00  0.00     0.013 A 
ENDBRANCH   7  22
BRANCH  10  29
HETATM   29  C   UNL     1      -4.217   1.263 -32.151  1.00  0.00     0.294 C 
HETATM   30  O   UNL     1      -3.281   2.054 -32.082  1.00  0.00    -0.259 OA
BRANCH  29  31
HETATM   31  O   UNL     1      -4.319   0.126 -32.851  1.00  0.00    -0.313 OA
BRANCH  31  32
HETATM   32  C   UNL     1      -3.717  -1.033 -32.253  1.00  0.00     0.217 C 
BRANCH  32  33
HETATM   33  C   UNL     1      -4.049  -2.273 -33.029  1.00  0.00    -0.034 A 
HETATM   34  C   UNL     1      -3.380  -3.473 -32.754  1.00  0.00     0.009 A 
HETATM   35  C   UNL     1      -3.709  -4.638 -33.447  1.00  0.00     0.001 A 
HETATM   36  C   UNL     1      -4.703  -4.613 -34.422  1.00  0.00     0.000 A 
HETATM   37  C   UNL     1      -5.368  -3.422 -34.711  1.00  0.00     0.001 A 
HETATM   38  C   UNL     1      -5.041  -2.256 -34.019  1.00  0.00     0.009 A 
ENDBRANCH  32  33
ENDBRANCH  31  32
ENDBRANCH  29  31
ENDBRANCH  10  29
TORSDOF 10
ENDMDL
