MODEL 1
REMARK VINA RESULT:      -8.8      0.000      0.000
REMARK  5 active torsions:
REMARK  status: ('A' for Active; 'I' for Inactive)
REMARK    1  A    between atoms: C_6  and  O_7 
REMARK    2  A    between atoms: O_7  and  C_8 
REMARK    3  A    between atoms: C_12  and  C_13 
REMARK       I    between atoms: C_13  and  N_14 
REMARK    4  A    between atoms: N_14  and  C_15 
REMARK    5  A    between atoms: C_15  and  C_16 
ROOT
HETATM    1  C   UNL     1      -3.421  -4.261 -32.933  1.00  0.00     0.002 A 
HETATM    2  C   UNL     1      -3.006  -3.168 -32.171  1.00  0.00     0.025 A 
HETATM    3  C   UNL     1      -3.511  -1.888 -32.440  1.00  0.00     0.078 A 
HETATM    4  C   UNL     1      -3.060  -0.781 -31.648  1.00  0.00     0.102 C 
HETATM    5  N   UNL     1      -2.672   0.099 -30.996  1.00  0.00    -0.191 NA
HETATM    6  C   UNL     1      -4.443  -1.708 -33.473  1.00  0.00     0.096 A 
HETATM    7  C   UNL     1      -4.838  -2.807 -34.249  1.00  0.00     0.039 A 
HETATM    8  C   UNL     1      -4.332  -4.078 -33.971  1.00  0.00     0.003 A 
ENDROOT
BRANCH   6   9
HETATM    9  O   UNL     1      -4.889  -0.420 -33.697  1.00  0.00    -0.308 OA
BRANCH   9  10
HETATM   10  C   UNL     1      -6.241  -0.179 -33.674  1.00  0.00     0.098 A 
HETATM   11  C   UNL     1      -6.982  -0.055 -32.490  1.00  0.00     0.068 A 
HETATM   12 CL   UNL     1      -6.256  -0.234 -30.932  1.00  0.00    -0.081 Cl
HETATM   13  C   UNL     1      -8.343   0.257 -32.544  1.00  0.00     0.044 A 
HETATM   14  C   UNL     1      -8.959   0.472 -33.784  1.00  0.00     0.033 A 
HETATM   15  C   UNL     1      -8.207   0.388 -34.963  1.00  0.00     0.020 A 
HETATM   16  C   UNL     1      -6.852   0.062 -34.907  1.00  0.00     0.040 A 
BRANCH  14  17
HETATM   17  C   UNL     1     -10.388   0.864 -33.881  1.00  0.00     0.251 C 
HETATM   18  N   UNL     1     -10.650   2.045 -34.539  1.00  0.00    -0.353 N 
HETATM   19  H   UNL     1      -9.891   2.680 -34.743  1.00  0.00     0.163 HD
HETATM   20  O   UNL     1     -11.248   0.157 -33.370  1.00  0.00    -0.268 OA
BRANCH  18  21
HETATM   21  C   UNL     1     -11.997   2.562 -34.647  1.00  0.00     0.161 C 
BRANCH  21  22
HETATM   22  C   UNL     1     -12.504   3.069 -33.325  1.00  0.00    -0.038 A 
HETATM   23  C   UNL     1     -11.705   3.863 -32.498  1.00  0.00     0.028 A 
HETATM   24  C   UNL     1     -12.228   4.295 -31.288  1.00  0.00     0.116 A 
HETATM   25  N   UNL     1     -13.467   3.991 -30.851  1.00  0.00    -0.273 NA
HETATM   26  C   UNL     1     -14.222   3.219 -31.660  1.00  0.00     0.116 A 
HETATM   27  C   UNL     1     -13.791   2.740 -32.887  1.00  0.00     0.028 A 
ENDBRANCH  21  22
ENDBRANCH  18  21
ENDBRANCH  14  17
ENDBRANCH   9  10
ENDBRANCH   6   9
TORSDOF 5
ENDMDL
MODEL 2
REMARK VINA RESULT:      -8.8      2.500      8.978
REMARK  5 active torsions:
REMARK  status: ('A' for Active; 'I' for Inactive)
REMARK    1  A    between atoms: C_6  and  O_7 
REMARK    2  A    between atoms: O_7  and  C_8 
REMARK    3  A    between atoms: C_12  and  C_13 
REMARK       I    between atoms: C_13  and  N_14 
REMARK    4  A    between atoms: N_14  and  C_15 
REMARK    5  A    between atoms: C_15  and  C_16 
ROOT
HETATM    1  C   UNL     1     -11.896   5.530 -35.485  1.00  0.00     0.002 A 
HETATM    2  C   UNL     1     -12.686   4.382 -35.558  1.00  0.00     0.025 A 
HETATM    3  C   UNL     1     -12.472   3.321 -34.668  1.00  0.00     0.078 A 
HETATM    4  C   UNL     1     -13.293   2.150 -34.770  1.00  0.00     0.102 C 
HETATM    5  N   UNL     1     -13.966   1.210 -34.881  1.00  0.00    -0.191 NA
HETATM    6  C   UNL     1     -11.465   3.417 -33.695  1.00  0.00     0.096 A 
HETATM    7  C   UNL     1     -10.660   4.564 -33.644  1.00  0.00     0.039 A 
HETATM    8  C   UNL     1     -10.883   5.618 -34.533  1.00  0.00     0.003 A 
ENDROOT
BRANCH   6   9
HETATM    9  O   UNL     1     -11.294   2.331 -32.860  1.00  0.00    -0.308 OA
BRANCH   9  10
HETATM   10  C   UNL     1     -10.043   1.774 -32.753  1.00  0.00     0.098 A 
HETATM   11  C   UNL     1      -9.188   2.004 -31.666  1.00  0.00     0.068 A 
HETATM   12 CL   UNL     1      -9.622   3.052 -30.363  1.00  0.00    -0.081 Cl
HETATM   13  C   UNL     1      -7.956   1.348 -31.593  1.00  0.00     0.044 A 
HETATM   14  C   UNL     1      -7.590   0.441 -32.597  1.00  0.00     0.033 A 
HETATM   15  C   UNL     1      -8.464   0.183 -33.660  1.00  0.00     0.020 A 
HETATM   16  C   UNL     1      -9.688   0.849 -33.738  1.00  0.00     0.040 A 
BRANCH  14  17
HETATM   17  C   UNL     1      -6.316  -0.319 -32.526  1.00  0.00     0.251 C 
HETATM   18  N   UNL     1      -5.690  -0.569 -33.727  1.00  0.00    -0.353 N 
HETATM   19  H   UNL     1      -6.192  -0.417 -34.591  1.00  0.00     0.163 HD
HETATM   20  O   UNL     1      -5.898  -0.703 -31.441  1.00  0.00    -0.268 OA
BRANCH  18  21
HETATM   21  C   UNL     1      -4.475  -1.351 -33.793  1.00  0.00     0.161 C 
BRANCH  21  22
HETATM   22  C   UNL     1      -4.757  -2.786 -34.146  1.00  0.00    -0.038 A 
HETATM   23  C   UNL     1      -5.891  -3.142 -34.880  1.00  0.00     0.028 A 
HETATM   24  C   UNL     1      -6.099  -4.483 -35.169  1.00  0.00     0.116 A 
HETATM   25  N   UNL     1      -5.273  -5.475 -34.778  1.00  0.00    -0.273 NA
HETATM   26  C   UNL     1      -4.186  -5.112 -34.065  1.00  0.00     0.116 A 
HETATM   27  C   UNL     1      -3.891  -3.801 -33.727  1.00  0.00     0.028 A 
ENDBRANCH  21  22
ENDBRANCH  18  21
ENDBRANCH  14  17
ENDBRANCH   9  10
ENDBRANCH   6   9
TORSDOF 5
ENDMDL
MODEL 3
REMARK VINA RESULT:      -8.7      1.497      2.013
REMARK  5 active torsions:
REMARK  status: ('A' for Active; 'I' for Inactive)
REMARK    1  A    between atoms: C_6  and  O_7 
REMARK    2  A    between atoms: O_7  and  C_8 
REMARK    3  A    between atoms: C_12  and  C_13 
REMARK       I    between atoms: C_13  and  N_14 
REMARK    4  A    between atoms: N_14  and  C_15 
REMARK    5  A    between atoms: C_15  and  C_16 
ROOT
HETATM    1  C   UNL     1      -5.121  -5.119 -34.537  1.00  0.00     0.002 A 
HETATM    2  C   UNL     1      -4.230  -4.568 -33.615  1.00  0.00     0.025 A 
HETATM    3  C   UNL     1      -4.223  -3.186 -33.381  1.00  0.00     0.078 A 
HETATM    4  C   UNL     1      -3.292  -2.645 -32.434  1.00  0.00     0.102 C 
HETATM    5  N   UNL     1      -2.522  -2.233 -31.668  1.00  0.00    -0.191 NA
HETATM    6  C   UNL     1      -5.120  -2.356 -34.072  1.00  0.00     0.096 A 
HETATM    7  C   UNL     1      -5.995  -2.914 -35.014  1.00  0.00     0.039 A 
HETATM    8  C   UNL     1      -5.997  -4.293 -35.237  1.00  0.00     0.003 A 
ENDROOT
BRANCH   6   9
HETATM    9  O   UNL     1      -5.050  -1.002 -33.807  1.00  0.00    -0.308 OA
BRANCH   9  10
HETATM   10  C   UNL     1      -6.219  -0.281 -33.756  1.00  0.00     0.098 A 
HETATM   11  C   UNL     1      -6.855   0.071 -32.558  1.00  0.00     0.068 A 
HETATM   12 CL   UNL     1      -6.238  -0.406 -31.017  1.00  0.00    -0.081 Cl
HETATM   13  C   UNL     1      -8.006   0.864 -32.583  1.00  0.00     0.044 A 
HETATM   14  C   UNL     1      -8.506   1.326 -33.807  1.00  0.00     0.033 A 
HETATM   15  C   UNL     1      -7.845   1.006 -35.000  1.00  0.00     0.020 A 
HETATM   16  C   UNL     1      -6.704   0.203 -34.974  1.00  0.00     0.040 A 
BRANCH  14  17
HETATM   17  C   UNL     1      -9.691   2.219 -33.872  1.00  0.00     0.251 C 
HETATM   18  N   UNL     1     -10.601   1.950 -34.870  1.00  0.00    -0.353 N 
HETATM   19  H   UNL     1     -10.348   1.317 -35.616  1.00  0.00     0.163 HD
HETATM   20  O   UNL     1      -9.798   3.145 -33.077  1.00  0.00    -0.268 OA
BRANCH  18  21
HETATM   21  C   UNL     1     -11.765   2.784 -35.071  1.00  0.00     0.161 C 
BRANCH  21  22
HETATM   22  C   UNL     1     -12.938   2.304 -34.261  1.00  0.00    -0.038 A 
HETATM   23  C   UNL     1     -13.620   1.132 -34.597  1.00  0.00     0.028 A 
HETATM   24  C   UNL     1     -14.698   0.743 -33.814  1.00  0.00     0.116 A 
HETATM   25  N   UNL     1     -15.138   1.435 -32.743  1.00  0.00    -0.273 NA
HETATM   26  C   UNL     1     -14.471   2.567 -32.438  1.00  0.00     0.116 A 
HETATM   27  C   UNL     1     -13.383   3.036 -33.156  1.00  0.00     0.028 A 
ENDBRANCH  21  22
ENDBRANCH  18  21
ENDBRANCH  14  17
ENDBRANCH   9  10
ENDBRANCH   6   9
TORSDOF 5
ENDMDL
MODEL 4
REMARK VINA RESULT:      -8.7      5.869      8.664
REMARK  5 active torsions:
REMARK  status: ('A' for Active; 'I' for Inactive)
REMARK    1  A    between atoms: C_6  and  O_7 
REMARK    2  A    between atoms: O_7  and  C_8 
REMARK    3  A    between atoms: C_12  and  C_13 
REMARK       I    between atoms: C_13  and  N_14 
REMARK    4  A    between atoms: N_14  and  C_15 
REMARK    5  A    between atoms: C_15  and  C_16 
ROOT
HETATM    1  C   UNL     1       0.297   6.971 -28.484  1.00  0.00     0.002 A 
HETATM    2  C   UNL     1      -0.353   7.684 -29.493  1.00  0.00     0.025 A 
HETATM    3  C   UNL     1      -0.624   7.074 -30.725  1.00  0.00     0.078 A 
HETATM    4  C   UNL     1      -1.286   7.833 -31.747  1.00  0.00     0.102 C 
HETATM    5  N   UNL     1      -1.814   8.473 -32.559  1.00  0.00    -0.191 NA
HETATM    6  C   UNL     1      -0.248   5.740 -30.943  1.00  0.00     0.096 A 
HETATM    7  C   UNL     1       0.425   5.037 -29.933  1.00  0.00     0.039 A 
HETATM    8  C   UNL     1       0.688   5.652 -28.707  1.00  0.00     0.003 A 
ENDROOT
BRANCH   6   9
HETATM    9  O   UNL     1      -0.530   5.204 -32.184  1.00  0.00    -0.308 OA
BRANCH   9  10
HETATM   10  C   UNL     1      -1.763   4.633 -32.388  1.00  0.00     0.098 A 
HETATM   11  C   UNL     1      -2.409   4.619 -33.633  1.00  0.00     0.068 A 
HETATM   12 CL   UNL     1      -1.720   5.362 -35.031  1.00  0.00    -0.081 Cl
HETATM   13  C   UNL     1      -3.632   3.959 -33.779  1.00  0.00     0.044 A 
HETATM   14  C   UNL     1      -4.197   3.290 -32.686  1.00  0.00     0.033 A 
HETATM   15  C   UNL     1      -3.529   3.271 -31.455  1.00  0.00     0.020 A 
HETATM   16  C   UNL     1      -2.315   3.941 -31.307  1.00  0.00     0.040 A 
BRANCH  14  17
HETATM   17  C   UNL     1      -5.465   2.528 -32.816  1.00  0.00     0.251 C 
HETATM   18  N   UNL     1      -5.347   1.157 -32.874  1.00  0.00    -0.353 N 
HETATM   19  H   UNL     1      -4.438   0.742 -33.027  1.00  0.00     0.163 HD
HETATM   20  O   UNL     1      -6.530   3.128 -32.889  1.00  0.00    -0.268 OA
BRANCH  18  21
HETATM   21  C   UNL     1      -6.504   0.309 -33.059  1.00  0.00     0.161 C 
BRANCH  21  22
HETATM   22  C   UNL     1      -6.127  -1.025 -33.643  1.00  0.00    -0.038 A 
HETATM   23  C   UNL     1      -7.090  -1.875 -34.191  1.00  0.00     0.028 A 
HETATM   24  C   UNL     1      -6.680  -3.095 -34.711  1.00  0.00     0.116 A 
HETATM   25  N   UNL     1      -5.400  -3.520 -34.714  1.00  0.00    -0.273 NA
HETATM   26  C   UNL     1      -4.485  -2.687 -34.175  1.00  0.00     0.116 A 
HETATM   27  C   UNL     1      -4.794  -1.450 -33.634  1.00  0.00     0.028 A 
ENDBRANCH  21  22
ENDBRANCH  18  21
ENDBRANCH  14  17
ENDBRANCH   9  10
ENDBRANCH   6   9
TORSDOF 5
ENDMDL
MODEL 5
REMARK VINA RESULT:      -8.5      5.055      8.112
REMARK  5 active torsions:
REMARK  status: ('A' for Active; 'I' for Inactive)
REMARK    1  A    between atoms: C_6  and  O_7 
REMARK    2  A    between atoms: O_7  and  C_8 
REMARK    3  A    between atoms: C_12  and  C_13 
REMARK       I    between atoms: C_13  and  N_14 
REMARK    4  A    between atoms: N_14  and  C_15 
REMARK    5  A    between atoms: C_15  and  C_16 
ROOT
HETATM    1  C   UNL     1      -1.170   7.075 -33.856  1.00  0.00     0.002 A 
HETATM    2  C   UNL     1      -1.620   7.513 -32.609  1.00  0.00     0.025 A 
HETATM    3  C   UNL     1      -2.179   6.602 -31.702  1.00  0.00     0.078 A 
HETATM    4  C   UNL     1      -2.641   7.080 -30.431  1.00  0.00     0.102 C 
HETATM    5  N   UNL     1      -3.015   7.495 -29.413  1.00  0.00    -0.191 NA
HETATM    6  C   UNL     1      -2.278   5.245 -32.046  1.00  0.00     0.096 A 
HETATM    7  C   UNL     1      -1.845   4.817 -33.309  1.00  0.00     0.039 A 
HETATM    8  C   UNL     1      -1.287   5.732 -34.205  1.00  0.00     0.003 A 
ENDROOT
BRANCH   6   9
HETATM    9  O   UNL     1      -2.853   4.403 -31.114  1.00  0.00    -0.308 OA
BRANCH   9  10
HETATM   10  C   UNL     1      -3.786   3.490 -31.541  1.00  0.00     0.098 A 
HETATM   11  C   UNL     1      -5.108   3.831 -31.861  1.00  0.00     0.068 A 
HETATM   12 CL   UNL     1      -5.700   5.446 -31.709  1.00  0.00    -0.081 Cl
HETATM   13  C   UNL     1      -5.982   2.858 -32.354  1.00  0.00     0.044 A 
HETATM   14  C   UNL     1      -5.527   1.548 -32.552  1.00  0.00     0.033 A 
HETATM   15  C   UNL     1      -4.194   1.220 -32.269  1.00  0.00     0.020 A 
HETATM   16  C   UNL     1      -3.327   2.189 -31.765  1.00  0.00     0.040 A 
BRANCH  14  17
HETATM   17  C   UNL     1      -6.407   0.501 -33.129  1.00  0.00     0.251 C 
HETATM   18  N   UNL     1      -5.878  -0.233 -34.168  1.00  0.00    -0.353 N 
HETATM   19  H   UNL     1      -5.031   0.084 -34.619  1.00  0.00     0.163 HD
HETATM   20  O   UNL     1      -7.540   0.350 -32.690  1.00  0.00    -0.268 OA
BRANCH  18  21
HETATM   21  C   UNL     1      -6.659  -1.241 -34.850  1.00  0.00     0.161 C 
BRANCH  21  22
HETATM   22  C   UNL     1      -6.031  -2.603 -34.730  1.00  0.00    -0.038 A 
HETATM   23  C   UNL     1      -6.732  -3.758 -35.085  1.00  0.00     0.028 A 
HETATM   24  C   UNL     1      -6.101  -4.986 -34.946  1.00  0.00     0.116 A 
HETATM   25  N   UNL     1      -4.845  -5.138 -34.479  1.00  0.00    -0.273 NA
HETATM   26  C   UNL     1      -4.186  -4.012 -34.136  1.00  0.00     0.116 A 
HETATM   27  C   UNL     1      -4.729  -2.741 -34.240  1.00  0.00     0.028 A 
ENDBRANCH  21  22
ENDBRANCH  18  21
ENDBRANCH  14  17
ENDBRANCH   9  10
ENDBRANCH   6   9
TORSDOF 5
ENDMDL
MODEL 6
REMARK VINA RESULT:      -8.4      5.246      8.095
REMARK  5 active torsions:
REMARK  status: ('A' for Active; 'I' for Inactive)
REMARK    1  A    between atoms: C_6  and  O_7 
REMARK    2  A    between atoms: O_7  and  C_8 
REMARK    3  A    between atoms: C_12  and  C_13 
REMARK       I    between atoms: C_13  and  N_14 
REMARK    4  A    between atoms: N_14  and  C_15 
REMARK    5  A    between atoms: C_15  and  C_16 
ROOT
HETATM    1  C   UNL     1      -5.678  -2.789 -35.052  1.00  0.00     0.002 A 
HETATM    2  C   UNL     1      -6.861  -2.100 -34.776  1.00  0.00     0.025 A 
HETATM    3  C   UNL     1      -6.899  -1.149 -33.748  1.00  0.00     0.078 A 
HETATM    4  C   UNL     1      -8.130  -0.462 -33.480  1.00  0.00     0.102 C 
HETATM    5  N   UNL     1      -9.141   0.072 -33.279  1.00  0.00    -0.191 NA
HETATM    6  C   UNL     1      -5.743  -0.883 -32.999  1.00  0.00     0.096 A 
HETATM    7  C   UNL     1      -4.565  -1.595 -33.266  1.00  0.00     0.039 A 
HETATM    8  C   UNL     1      -4.536  -2.539 -34.296  1.00  0.00     0.003 A 
ENDROOT
BRANCH   6   9
HETATM    9  O   UNL     1      -5.852   0.053 -31.989  1.00  0.00    -0.308 OA
BRANCH   9  10
HETATM   10  C   UNL     1      -5.148   1.228 -32.103  1.00  0.00     0.098 A 
HETATM   11  C   UNL     1      -3.832   1.384 -31.648  1.00  0.00     0.068 A 
HETATM   12 CL   UNL     1      -2.977   0.108 -30.859  1.00  0.00    -0.081 Cl
HETATM   13  C   UNL     1      -3.156   2.590 -31.860  1.00  0.00     0.044 A 
HETATM   14  C   UNL     1      -3.790   3.630 -32.551  1.00  0.00     0.033 A 
HETATM   15  C   UNL     1      -5.091   3.456 -33.041  1.00  0.00     0.020 A 
HETATM   16  C   UNL     1      -5.768   2.257 -32.816  1.00  0.00     0.040 A 
BRANCH  14  17
HETATM   17  C   UNL     1      -3.086   4.904 -32.849  1.00  0.00     0.251 C 
HETATM   18  N   UNL     1      -1.778   4.989 -32.425  1.00  0.00    -0.353 N 
HETATM   19  H   UNL     1      -1.420   4.301 -31.777  1.00  0.00     0.163 HD
HETATM   20  O   UNL     1      -3.682   5.808 -33.420  1.00  0.00    -0.268 OA
BRANCH  18  21
HETATM   21  C   UNL     1      -1.007   6.199 -32.604  1.00  0.00     0.161 C 
BRANCH  21  22
HETATM   22  C   UNL     1      -0.810   6.929 -31.304  1.00  0.00    -0.038 A 
HETATM   23  C   UNL     1       0.334   6.730 -30.526  1.00  0.00     0.028 A 
HETATM   24  C   UNL     1       0.456   7.428 -29.334  1.00  0.00     0.116 A 
HETATM   25  N   UNL     1      -0.472   8.289 -28.868  1.00  0.00    -0.273 NA
HETATM   26  C   UNL     1      -1.572   8.464 -29.629  1.00  0.00     0.116 A 
HETATM   27  C   UNL     1      -1.784   7.815 -30.834  1.00  0.00     0.028 A 
ENDBRANCH  21  22
ENDBRANCH  18  21
ENDBRANCH  14  17
ENDBRANCH   9  10
ENDBRANCH   6   9
TORSDOF 5
ENDMDL
MODEL 7
REMARK VINA RESULT:      -8.1      3.971      8.663
REMARK  5 active torsions:
REMARK  status: ('A' for Active; 'I' for Inactive)
REMARK    1  A    between atoms: C_6  and  O_7 
REMARK    2  A    between atoms: O_7  and  C_8 
REMARK    3  A    between atoms: C_12  and  C_13 
REMARK       I    between atoms: C_13  and  N_14 
REMARK    4  A    between atoms: N_14  and  C_15 
REMARK    5  A    between atoms: C_15  and  C_16 
ROOT
HETATM    1  C   UNL     1     -12.516   3.498 -35.420  1.00  0.00     0.002 A 
HETATM    2  C   UNL     1     -13.031   2.301 -34.920  1.00  0.00     0.025 A 
HETATM    3  C   UNL     1     -12.189   1.389 -34.269  1.00  0.00     0.078 A 
HETATM    4  C   UNL     1     -12.743   0.162 -33.773  1.00  0.00     0.102 C 
HETATM    5  N   UNL     1     -13.215  -0.827 -33.388  1.00  0.00    -0.191 NA
HETATM    6  C   UNL     1     -10.826   1.684 -34.114  1.00  0.00     0.096 A 
HETATM    7  C   UNL     1     -10.312   2.878 -34.639  1.00  0.00     0.039 A 
HETATM    8  C   UNL     1     -11.159   3.782 -35.283  1.00  0.00     0.003 A 
ENDROOT
BRANCH   6   9
HETATM    9  O   UNL     1     -10.048   0.736 -33.478  1.00  0.00    -0.308 OA
BRANCH   9  10
HETATM   10  C   UNL     1      -8.822   1.113 -32.988  1.00  0.00     0.098 A 
HETATM   11  C   UNL     1      -7.633   1.010 -33.723  1.00  0.00     0.068 A 
HETATM   12 CL   UNL     1      -7.597   0.356 -35.321  1.00  0.00    -0.081 Cl
HETATM   13  C   UNL     1      -6.432   1.479 -33.182  1.00  0.00     0.044 A 
HETATM   14  C   UNL     1      -6.425   2.074 -31.914  1.00  0.00     0.033 A 
HETATM   15  C   UNL     1      -7.622   2.212 -31.199  1.00  0.00     0.020 A 
HETATM   16  C   UNL     1      -8.817   1.732 -31.735  1.00  0.00     0.040 A 
BRANCH  14  17
HETATM   17  C   UNL     1      -5.182   2.637 -31.329  1.00  0.00     0.251 C 
HETATM   18  N   UNL     1      -4.151   2.879 -32.210  1.00  0.00    -0.353 N 
HETATM   19  H   UNL     1      -4.194   2.494 -33.144  1.00  0.00     0.163 HD
HETATM   20  O   UNL     1      -5.114   2.836 -30.123  1.00  0.00    -0.268 OA
BRANCH  18  21
HETATM   21  C   UNL     1      -2.870   3.371 -31.753  1.00  0.00     0.161 C 
BRANCH  21  22
HETATM   22  C   UNL     1      -2.382   4.515 -32.599  1.00  0.00    -0.038 A 
HETATM   23  C   UNL     1      -1.380   5.377 -32.146  1.00  0.00     0.028 A 
HETATM   24  C   UNL     1      -0.976   6.417 -32.971  1.00  0.00     0.116 A 
HETATM   25  N   UNL     1      -1.499   6.656 -34.191  1.00  0.00    -0.273 NA
HETATM   26  C   UNL     1      -2.469   5.817 -34.609  1.00  0.00     0.116 A 
HETATM   27  C   UNL     1      -2.939   4.750 -33.861  1.00  0.00     0.028 A 
ENDBRANCH  21  22
ENDBRANCH  18  21
ENDBRANCH  14  17
ENDBRANCH   9  10
ENDBRANCH   6   9
TORSDOF 5
ENDMDL
MODEL 8
REMARK VINA RESULT:      -8.1     14.523     17.620
REMARK  5 active torsions:
REMARK  status: ('A' for Active; 'I' for Inactive)
REMARK    1  A    between atoms: C_6  and  O_7 
REMARK    2  A    between atoms: O_7  and  C_8 
REMARK    3  A    between atoms: C_12  and  C_13 
REMARK       I    between atoms: C_13  and  N_14 
REMARK    4  A    between atoms: N_14  and  C_15 
REMARK    5  A    between atoms: C_15  and  C_16 
ROOT
HETATM    1  C   UNL     1     -10.458 -16.039 -40.781  1.00  0.00     0.002 A 
HETATM    2  C   UNL     1     -10.766 -14.686 -40.934  1.00  0.00     0.025 A 
HETATM    3  C   UNL     1     -10.193 -13.733 -40.081  1.00  0.00     0.078 A 
HETATM    4  C   UNL     1     -10.533 -12.350 -40.254  1.00  0.00     0.102 C 
HETATM    5  N   UNL     1     -10.833 -11.239 -40.411  1.00  0.00    -0.191 NA
HETATM    6  C   UNL     1      -9.301 -14.139 -39.077  1.00  0.00     0.096 A 
HETATM    7  C   UNL     1      -9.015 -15.502 -38.916  1.00  0.00     0.039 A 
HETATM    8  C   UNL     1      -9.588 -16.445 -39.772  1.00  0.00     0.003 A 
ENDROOT
BRANCH   6   9
HETATM    9  O   UNL     1      -8.784 -13.152 -38.261  1.00  0.00    -0.308 OA
BRANCH   9  10
HETATM   10  C   UNL     1      -7.429 -12.926 -38.281  1.00  0.00     0.098 A 
HETATM   11  C   UNL     1      -6.567 -13.320 -37.247  1.00  0.00     0.068 A 
HETATM   12 CL   UNL     1      -7.145 -14.102 -35.820  1.00  0.00    -0.081 Cl
HETATM   13  C   UNL     1      -5.189 -13.116 -37.369  1.00  0.00     0.044 A 
HETATM   14  C   UNL     1      -4.671 -12.542 -38.536  1.00  0.00     0.033 A 
HETATM   15  C   UNL     1      -5.531 -12.187 -39.584  1.00  0.00     0.020 A 
HETATM   16  C   UNL     1      -6.907 -12.378 -39.455  1.00  0.00     0.040 A 
BRANCH  14  17
HETATM   17  C   UNL     1      -3.209 -12.363 -38.728  1.00  0.00     0.251 C 
HETATM   18  N   UNL     1      -2.545 -13.405 -39.336  1.00  0.00    -0.353 N 
HETATM   19  H   UNL     1      -3.008 -14.297 -39.440  1.00  0.00     0.163 HD
HETATM   20  O   UNL     1      -2.665 -11.341 -38.330  1.00  0.00    -0.268 OA
BRANCH  18  21
HETATM   21  C   UNL     1      -1.111 -13.374 -39.525  1.00  0.00     0.161 C 
BRANCH  21  22
HETATM   22  C   UNL     1      -0.403 -14.272 -38.547  1.00  0.00    -0.038 A 
HETATM   23  C   UNL     1      -1.028 -14.701 -37.374  1.00  0.00     0.028 A 
HETATM   24  C   UNL     1      -0.321 -15.524 -36.509  1.00  0.00     0.116 A 
HETATM   25  N   UNL     1       0.946 -15.934 -36.727  1.00  0.00    -0.273 NA
HETATM   26  C   UNL     1       1.534 -15.505 -37.862  1.00  0.00     0.116 A 
HETATM   27  C   UNL     1       0.912 -14.684 -38.788  1.00  0.00     0.028 A 
ENDBRANCH  21  22
ENDBRANCH  18  21
ENDBRANCH  14  17
ENDBRANCH   9  10
ENDBRANCH   6   9
TORSDOF 5
ENDMDL
MODEL 9
REMARK VINA RESULT:      -8.1      5.379      8.616
REMARK  5 active torsions:
REMARK  status: ('A' for Active; 'I' for Inactive)
REMARK    1  A    between atoms: C_6  and  O_7 
REMARK    2  A    between atoms: O_7  and  C_8 
REMARK    3  A    between atoms: C_12  and  C_13 
REMARK       I    between atoms: C_13  and  N_14 
REMARK    4  A    between atoms: N_14  and  C_15 
REMARK    5  A    between atoms: C_15  and  C_16 
ROOT
HETATM    1  C   UNL     1      -5.902  -2.471 -34.726  1.00  0.00     0.002 A 
HETATM    2  C   UNL     1      -7.062  -1.699 -34.642  1.00  0.00     0.025 A 
HETATM    3  C   UNL     1      -7.096  -0.566 -33.818  1.00  0.00     0.078 A 
HETATM    4  C   UNL     1      -8.303   0.205 -33.744  1.00  0.00     0.102 C 
HETATM    5  N   UNL     1      -9.296   0.806 -33.696  1.00  0.00    -0.191 NA
HETATM    6  C   UNL     1      -5.958  -0.202 -33.082  1.00  0.00     0.096 A 
HETATM    7  C   UNL     1      -4.805  -0.996 -33.154  1.00  0.00     0.039 A 
HETATM    8  C   UNL     1      -4.779  -2.121 -33.980  1.00  0.00     0.003 A 
ENDROOT
BRANCH   6   9
HETATM    9  O   UNL     1      -6.063   0.915 -32.277  1.00  0.00    -0.308 OA
BRANCH   9  10
HETATM   10  C   UNL     1      -5.049   1.843 -32.304  1.00  0.00     0.098 A 
HETATM   11  C   UNL     1      -5.090   3.005 -33.087  1.00  0.00     0.068 A 
HETATM   12 CL   UNL     1      -6.419   3.362 -34.130  1.00  0.00    -0.081 Cl
HETATM   13  C   UNL     1      -4.050   3.936 -33.011  1.00  0.00     0.044 A 
HETATM   14  C   UNL     1      -2.982   3.717 -32.132  1.00  0.00     0.033 A 
HETATM   15  C   UNL     1      -2.965   2.575 -31.322  1.00  0.00     0.020 A 
HETATM   16  C   UNL     1      -3.997   1.640 -31.409  1.00  0.00     0.040 A 
BRANCH  14  17
HETATM   17  C   UNL     1      -1.889   4.710 -31.979  1.00  0.00     0.251 C 
HETATM   18  N   UNL     1      -1.449   4.937 -30.694  1.00  0.00    -0.353 N 
HETATM   19  H   UNL     1      -1.993   4.594 -29.914  1.00  0.00     0.163 HD
HETATM   20  O   UNL     1      -1.451   5.289 -32.966  1.00  0.00    -0.268 OA
BRANCH  18  21
HETATM   21  C   UNL     1      -0.430   5.924 -30.410  1.00  0.00     0.161 C 
BRANCH  21  22
HETATM   22  C   UNL     1      -0.560   6.469 -29.014  1.00  0.00    -0.038 A 
HETATM   23  C   UNL     1       0.482   6.352 -28.090  1.00  0.00     0.028 A 
HETATM   24  C   UNL     1       0.299   6.870 -26.816  1.00  0.00     0.116 A 
HETATM   25  N   UNL     1      -0.832   7.480 -26.406  1.00  0.00    -0.273 NA
HETATM   26  C   UNL     1      -1.829   7.578 -27.311  1.00  0.00     0.116 A 
HETATM   27  C   UNL     1      -1.742   7.094 -28.606  1.00  0.00     0.028 A 
ENDBRANCH  21  22
ENDBRANCH  18  21
ENDBRANCH  14  17
ENDBRANCH   9  10
ENDBRANCH   6   9
TORSDOF 5
ENDMDL
MODEL 10
REMARK VINA RESULT:      -8.0      5.895      8.706
REMARK  5 active torsions:
REMARK  status: ('A' for Active; 'I' for Inactive)
REMARK    1  A    between atoms: C_6  and  O_7 
REMARK    2  A    between atoms: O_7  and  C_8 
REMARK    3  A    between atoms: C_12  and  C_13 
REMARK       I    between atoms: C_13  and  N_14 
REMARK    4  A    between atoms: N_14  and  C_15 
REMARK    5  A    between atoms: C_15  and  C_16 
ROOT
HETATM    1  C   UNL     1      -0.849   8.326 -28.778  1.00  0.00     0.002 A 
HETATM    2  C   UNL     1      -0.082   7.160 -28.793  1.00  0.00     0.025 A 
HETATM    3  C   UNL     1      -0.171   6.273 -29.874  1.00  0.00     0.078 A 
HETATM    4  C   UNL     1       0.622   5.077 -29.860  1.00  0.00     0.102 C 
HETATM    5  N   UNL     1       1.268   4.113 -29.819  1.00  0.00    -0.191 NA
HETATM    6  C   UNL     1      -1.027   6.561 -30.948  1.00  0.00     0.096 A 
HETATM    7  C   UNL     1      -1.811   7.723 -30.914  1.00  0.00     0.039 A 
HETATM    8  C   UNL     1      -1.714   8.604 -29.835  1.00  0.00     0.003 A 
ENDROOT
BRANCH   6   9
HETATM    9  O   UNL     1      -1.080   5.638 -31.973  1.00  0.00    -0.308 OA
BRANCH   9  10
HETATM   10  C   UNL     1      -2.260   4.970 -32.196  1.00  0.00     0.098 A 
HETATM   11  C   UNL     1      -3.093   5.224 -33.294  1.00  0.00     0.068 A 
HETATM   12 CL   UNL     1      -2.725   6.441 -34.463  1.00  0.00    -0.081 Cl
HETATM   13  C   UNL     1      -4.245   4.456 -33.491  1.00  0.00     0.044 A 
HETATM   14  C   UNL     1      -4.549   3.417 -32.603  1.00  0.00     0.033 A 
HETATM   15  C   UNL     1      -3.693   3.139 -31.530  1.00  0.00     0.020 A 
HETATM   16  C   UNL     1      -2.551   3.915 -31.327  1.00  0.00     0.040 A 
BRANCH  14  17
HETATM   17  C   UNL     1      -5.730   2.541 -32.811  1.00  0.00     0.251 C 
HETATM   18  N   UNL     1      -5.466   1.245 -33.193  1.00  0.00    -0.353 N 
HETATM   19  H   UNL     1      -4.537   0.998 -33.506  1.00  0.00     0.163 HD
HETATM   20  O   UNL     1      -6.858   2.996 -32.662  1.00  0.00    -0.268 OA
BRANCH  18  21
HETATM   21  C   UNL     1      -6.534   0.313 -33.483  1.00  0.00     0.161 C 
BRANCH  21  22
HETATM   22  C   UNL     1      -6.001  -1.042 -33.860  1.00  0.00    -0.038 A 
HETATM   23  C   UNL     1      -6.818  -2.000 -34.465  1.00  0.00     0.028 A 
HETATM   24  C   UNL     1      -6.269  -3.234 -34.784  1.00  0.00     0.116 A 
HETATM   25  N   UNL     1      -4.986  -3.574 -34.538  1.00  0.00    -0.273 NA
HETATM   26  C   UNL     1      -4.215  -2.637 -33.948  1.00  0.00     0.116 A 
HETATM   27  C   UNL     1      -4.669  -1.378 -33.593  1.00  0.00     0.028 A 
ENDBRANCH  21  22
ENDBRANCH  18  21
ENDBRANCH  14  17
ENDBRANCH   9  10
ENDBRANCH   6   9
TORSDOF 5
ENDMDL
