MODEL 1
REMARK VINA RESULT:      -8.7      0.000      0.000
REMARK  3 active torsions:
REMARK  status: ('A' for Active; 'I' for Inactive)
REMARK    1  A    between atoms: C_3  and  O_4 
REMARK    2  A    between atoms: O_4  and  C_5 
REMARK    3  A    between atoms: C_10  and  N_11 
REMARK       I    between atoms: N_11  and  C_12 
REMARK       I    between atoms: C_12  and  N_13 
ROOT
HETATM    1  N   UNL     1      -3.818   4.026 -31.097  1.00  0.00    -0.309 N 
HETATM    2  C   UNL     1      -2.693   4.634 -31.610  1.00  0.00     0.323 C 
HETATM    3  N   UNL     1      -2.468   5.917 -31.131  1.00  0.00    -0.328 N 
HETATM    4  C   UNL     1      -1.134   6.493 -31.337  1.00  0.00     0.185 C 
HETATM    5  C   UNL     1      -0.727   7.125 -30.047  1.00  0.00     0.035 A 
HETATM    6  C   UNL     1      -1.548   7.428 -28.977  1.00  0.00    -0.020 A 
HETATM    7  C   UNL     1      -3.006   7.113 -29.004  1.00  0.00     0.061 C 
HETATM    8  C   UNL     1      -3.443   6.798 -30.450  1.00  0.00     0.132 C 
HETATM    9  N   UNL     1       0.550   7.482 -29.719  1.00  0.00    -0.357 N 
HETATM   10  H   UNL     1       1.366   7.361 -30.303  1.00  0.00     0.166 HD
HETATM   11  C   UNL     1       0.573   8.012 -28.445  1.00  0.00     0.043 A 
HETATM   12  C   UNL     1      -0.736   7.992 -27.957  1.00  0.00    -0.001 A 
HETATM   13  C   UNL     1       1.651   8.493 -27.691  1.00  0.00     0.030 A 
HETATM   14  C   UNL     1       1.382   8.968 -26.404  1.00  0.00     0.002 A 
HETATM   15  C   UNL     1       0.086   8.962 -25.892  1.00  0.00     0.001 A 
HETATM   16  C   UNL     1      -0.981   8.476 -26.657  1.00  0.00     0.014 A 
HETATM   17  O   UNL     1      -1.909   4.104 -32.393  1.00  0.00    -0.247 OA
HETATM   18  H   UNL     1      -4.177   4.435 -30.251  1.00  0.00     0.170 HD
ENDROOT
BRANCH   1  19
HETATM   19  C   UNL     1      -4.287   2.725 -31.382  1.00  0.00     0.037 A 
HETATM   20  C   UNL     1      -5.602   2.434 -31.740  1.00  0.00     0.032 A 
HETATM   21  C   UNL     1      -5.968   1.130 -32.091  1.00  0.00     0.039 A 
HETATM   22  C   UNL     1      -5.021   0.107 -32.090  1.00  0.00     0.075 A 
HETATM   23  C   UNL     1      -3.719   0.361 -31.639  1.00  0.00    -0.026 A 
HETATM   24  C   UNL     1      -2.684  -0.728 -31.594  1.00  0.00     0.051 C 
HETATM   25  C   UNL     1      -3.359   1.677 -31.305  1.00  0.00     0.039 A 
BRANCH  22  26
HETATM   26  O   UNL     1      -5.312  -1.173 -32.479  1.00  0.00    -0.346 OA
BRANCH  26  27
HETATM   27  C   UNL     1      -5.363  -1.396 -33.898  1.00  0.00     0.121 C 
HETATM   28  C   UNL     1      -4.534  -2.616 -34.302  1.00  0.00     0.040 C 
HETATM   29  C   UNL     1      -6.831  -1.632 -34.248  1.00  0.00     0.040 C 
ENDBRANCH  26  27
ENDBRANCH  22  26
ENDBRANCH   1  19
TORSDOF 3
ENDMDL
MODEL 2
REMARK VINA RESULT:      -8.7      0.625      1.416
REMARK  3 active torsions:
REMARK  status: ('A' for Active; 'I' for Inactive)
REMARK    1  A    between atoms: C_3  and  O_4 
REMARK    2  A    between atoms: O_4  and  C_5 
REMARK    3  A    between atoms: C_10  and  N_11 
REMARK       I    between atoms: N_11  and  C_12 
REMARK       I    between atoms: C_12  and  N_13 
ROOT
HETATM    1  N   UNL     1      -3.506   4.174 -31.267  1.00  0.00    -0.309 N 
HETATM    2  C   UNL     1      -2.362   4.824 -31.676  1.00  0.00     0.323 C 
HETATM    3  N   UNL     1      -2.184   6.079 -31.111  1.00  0.00    -0.328 N 
HETATM    4  C   UNL     1      -0.849   6.681 -31.203  1.00  0.00     0.185 C 
HETATM    5  C   UNL     1      -0.528   7.241 -29.857  1.00  0.00     0.035 A 
HETATM    6  C   UNL     1      -1.416   7.473 -28.822  1.00  0.00    -0.020 A 
HETATM    7  C   UNL     1      -2.865   7.144 -28.956  1.00  0.00     0.061 C 
HETATM    8  C   UNL     1      -3.211   6.908 -30.442  1.00  0.00     0.132 C 
HETATM    9  N   UNL     1       0.722   7.592 -29.432  1.00  0.00    -0.357 N 
HETATM   10  H   UNL     1       1.573   7.514 -29.971  1.00  0.00     0.166 HD
HETATM   11  C   UNL     1       0.660   8.048 -28.131  1.00  0.00     0.043 A 
HETATM   12  C   UNL     1      -0.675   7.985 -27.725  1.00  0.00    -0.001 A 
HETATM   13  C   UNL     1       1.684   8.496 -27.287  1.00  0.00     0.030 A 
HETATM   14  C   UNL     1       1.332   8.892 -25.993  1.00  0.00     0.002 A 
HETATM   15  C   UNL     1       0.008   8.843 -25.562  1.00  0.00     0.001 A 
HETATM   16  C   UNL     1      -1.005   8.390 -26.417  1.00  0.00     0.014 A 
HETATM   17  O   UNL     1      -1.524   4.348 -32.438  1.00  0.00    -0.247 OA
HETATM   18  H   UNL     1      -3.922   4.530 -30.423  1.00  0.00     0.170 HD
ENDROOT
BRANCH   1  19
HETATM   19  C   UNL     1      -3.939   2.887 -31.654  1.00  0.00     0.037 A 
HETATM   20  C   UNL     1      -3.364   1.703 -31.196  1.00  0.00     0.032 A 
HETATM   21  C   UNL     1      -3.905   0.466 -31.559  1.00  0.00     0.039 A 
HETATM   22  C   UNL     1      -5.029   0.402 -32.382  1.00  0.00     0.075 A 
HETATM   23  C   UNL     1      -5.561   1.577 -32.930  1.00  0.00    -0.026 A 
HETATM   24  C   UNL     1      -6.752   1.540 -33.846  1.00  0.00     0.051 C 
HETATM   25  C   UNL     1      -5.018   2.814 -32.544  1.00  0.00     0.039 A 
BRANCH  22  26
HETATM   26  O   UNL     1      -5.633  -0.779 -32.722  1.00  0.00    -0.346 OA
BRANCH  26  27
HETATM   27  C   UNL     1      -5.051  -1.478 -33.836  1.00  0.00     0.121 C 
HETATM   28  C   UNL     1      -4.100  -2.580 -33.369  1.00  0.00     0.040 C 
HETATM   29  C   UNL     1      -6.211  -2.095 -34.613  1.00  0.00     0.040 C 
ENDBRANCH  26  27
ENDBRANCH  22  26
ENDBRANCH   1  19
TORSDOF 3
ENDMDL
MODEL 3
REMARK VINA RESULT:      -8.6      3.083      9.879
REMARK  3 active torsions:
REMARK  status: ('A' for Active; 'I' for Inactive)
REMARK    1  A    between atoms: C_3  and  O_4 
REMARK    2  A    between atoms: O_4  and  C_5 
REMARK    3  A    between atoms: C_10  and  N_11 
REMARK       I    between atoms: N_11  and  C_12 
REMARK       I    between atoms: C_12  and  N_13 
ROOT
HETATM    1  N   UNL     1      -4.735   3.802 -31.136  1.00  0.00    -0.309 N 
HETATM    2  C   UNL     1      -3.779   2.811 -31.103  1.00  0.00     0.323 C 
HETATM    3  N   UNL     1      -4.292   1.524 -31.026  1.00  0.00    -0.328 N 
HETATM    4  C   UNL     1      -3.388   0.413 -31.343  1.00  0.00     0.185 C 
HETATM    5  C   UNL     1      -4.139  -0.522 -32.233  1.00  0.00     0.035 A 
HETATM    6  C   UNL     1      -5.505  -0.547 -32.445  1.00  0.00    -0.020 A 
HETATM    7  C   UNL     1      -6.411   0.434 -31.780  1.00  0.00     0.061 C 
HETATM    8  C   UNL     1      -5.662   1.134 -30.625  1.00  0.00     0.132 C 
HETATM    9  N   UNL     1      -3.571  -1.497 -33.003  1.00  0.00    -0.357 N 
HETATM   10  H   UNL     1      -2.583  -1.700 -33.065  1.00  0.00     0.166 HD
HETATM   11  C   UNL     1      -4.550  -2.156 -33.718  1.00  0.00     0.043 A 
HETATM   12  C   UNL     1      -5.777  -1.578 -33.382  1.00  0.00    -0.001 A 
HETATM   13  C   UNL     1      -4.437  -3.205 -34.639  1.00  0.00     0.030 A 
HETATM   14  C   UNL     1      -5.613  -3.676 -35.232  1.00  0.00     0.002 A 
HETATM   15  C   UNL     1      -6.851  -3.121 -34.914  1.00  0.00     0.001 A 
HETATM   16  C   UNL     1      -6.947  -2.072 -33.992  1.00  0.00     0.014 A 
HETATM   17  O   UNL     1      -2.568   3.005 -31.178  1.00  0.00    -0.247 OA
HETATM   18  H   UNL     1      -5.660   3.497 -31.386  1.00  0.00     0.170 HD
ENDROOT
BRANCH   1  19
HETATM   19  C   UNL     1      -4.515   5.194 -31.232  1.00  0.00     0.037 A 
HETATM   20  C   UNL     1      -5.220   6.145 -30.497  1.00  0.00     0.032 A 
HETATM   21  C   UNL     1      -4.885   7.500 -30.585  1.00  0.00     0.039 A 
HETATM   22  C   UNL     1      -3.837   7.915 -31.407  1.00  0.00     0.075 A 
HETATM   23  C   UNL     1      -3.182   6.986 -32.226  1.00  0.00    -0.026 A 
HETATM   24  C   UNL     1      -2.071   7.406 -33.146  1.00  0.00     0.051 C 
HETATM   25  C   UNL     1      -3.517   5.626 -32.116  1.00  0.00     0.039 A 
BRANCH  22  26
HETATM   26  O   UNL     1      -3.430   9.220 -31.486  1.00  0.00    -0.346 OA
BRANCH  26  27
HETATM   27  C   UNL     1      -3.636  10.009 -30.303  1.00  0.00     0.121 C 
HETATM   28  C   UNL     1      -2.337  10.670 -29.839  1.00  0.00     0.040 C 
HETATM   29  C   UNL     1      -4.656  11.084 -30.671  1.00  0.00     0.040 C 
ENDBRANCH  26  27
ENDBRANCH  22  26
ENDBRANCH   1  19
TORSDOF 3
ENDMDL
MODEL 4
REMARK VINA RESULT:      -8.5      1.071      1.260
REMARK  3 active torsions:
REMARK  status: ('A' for Active; 'I' for Inactive)
REMARK    1  A    between atoms: C_3  and  O_4 
REMARK    2  A    between atoms: O_4  and  C_5 
REMARK    3  A    between atoms: C_10  and  N_11 
REMARK       I    between atoms: N_11  and  C_12 
REMARK       I    between atoms: C_12  and  N_13 
ROOT
HETATM    1  N   UNL     1      -3.886   4.879 -31.498  1.00  0.00    -0.309 N 
HETATM    2  C   UNL     1      -2.556   5.130 -31.755  1.00  0.00     0.323 C 
HETATM    3  N   UNL     1      -2.115   6.373 -31.322  1.00  0.00    -0.328 N 
HETATM    4  C   UNL     1      -0.666   6.583 -31.228  1.00  0.00     0.185 C 
HETATM    5  C   UNL     1      -0.406   7.259 -29.922  1.00  0.00     0.035 A 
HETATM    6  C   UNL     1      -1.337   7.884 -29.112  1.00  0.00    -0.020 A 
HETATM    7  C   UNL     1      -2.782   7.925 -29.481  1.00  0.00     0.061 C 
HETATM    8  C   UNL     1      -2.951   7.540 -30.966  1.00  0.00     0.132 C 
HETATM    9  N   UNL     1       0.813   7.341 -29.310  1.00  0.00    -0.357 N 
HETATM   10  H   UNL     1       1.678   6.955 -29.663  1.00  0.00     0.166 HD
HETATM   11  C   UNL     1       0.688   8.008 -28.109  1.00  0.00     0.043 A 
HETATM   12  C   UNL     1      -0.655   8.364 -27.963  1.00  0.00    -0.001 A 
HETATM   13  C   UNL     1       1.658   8.311 -27.145  1.00  0.00     0.030 A 
HETATM   14  C   UNL     1       1.241   8.997 -26.000  1.00  0.00     0.002 A 
HETATM   15  C   UNL     1      -0.091   9.366 -25.828  1.00  0.00     0.001 A 
HETATM   16  C   UNL     1      -1.049   9.055 -26.800  1.00  0.00     0.014 A 
HETATM   17  O   UNL     1      -1.783   4.333 -32.280  1.00  0.00    -0.247 OA
HETATM   18  H   UNL     1      -4.305   5.467 -30.798  1.00  0.00     0.170 HD
ENDROOT
BRANCH   1  19
HETATM   19  C   UNL     1      -4.604   3.702 -31.803  1.00  0.00     0.037 A 
HETATM   20  C   UNL     1      -5.098   3.399 -33.071  1.00  0.00     0.032 A 
HETATM   21  C   UNL     1      -5.725   2.173 -33.313  1.00  0.00     0.039 A 
HETATM   22  C   UNL     1      -5.860   1.236 -32.288  1.00  0.00     0.075 A 
HETATM   23  C   UNL     1      -5.457   1.561 -30.986  1.00  0.00    -0.026 A 
HETATM   24  C   UNL     1      -5.619   0.586 -29.854  1.00  0.00     0.051 C 
HETATM   25  C   UNL     1      -4.814   2.790 -30.760  1.00  0.00     0.039 A 
BRANCH  22  26
HETATM   26  O   UNL     1      -6.413  -0.001 -32.484  1.00  0.00    -0.346 OA
BRANCH  26  27
HETATM   27  C   UNL     1      -5.831  -0.784 -33.540  1.00  0.00     0.121 C 
HETATM   28  C   UNL     1      -4.542  -1.469 -33.082  1.00  0.00     0.040 C 
HETATM   29  C   UNL     1      -6.867  -1.839 -33.920  1.00  0.00     0.040 C 
ENDBRANCH  26  27
ENDBRANCH  22  26
ENDBRANCH   1  19
TORSDOF 3
ENDMDL
MODEL 5
REMARK VINA RESULT:      -8.4      7.666      9.926
REMARK  3 active torsions:
REMARK  status: ('A' for Active; 'I' for Inactive)
REMARK    1  A    between atoms: C_3  and  O_4 
REMARK    2  A    between atoms: O_4  and  C_5 
REMARK    3  A    between atoms: C_10  and  N_11 
REMARK       I    between atoms: N_11  and  C_12 
REMARK       I    between atoms: C_12  and  N_13 
ROOT
HETATM    1  N   UNL     1      -8.376   1.651 -33.638  1.00  0.00    -0.309 N 
HETATM    2  C   UNL     1      -9.738   1.676 -33.428  1.00  0.00     0.323 C 
HETATM    3  N   UNL     1     -10.263   2.945 -33.228  1.00  0.00    -0.328 N 
HETATM    4  C   UNL     1     -11.716   3.105 -33.354  1.00  0.00     0.185 C 
HETATM    5  C   UNL     1     -11.951   4.334 -34.170  1.00  0.00     0.035 A 
HETATM    6  C   UNL     1     -11.032   5.324 -34.461  1.00  0.00    -0.020 A 
HETATM    7  C   UNL     1      -9.624   5.242 -33.975  1.00  0.00     0.061 C 
HETATM    8  C   UNL     1      -9.516   4.171 -32.869  1.00  0.00     0.132 C 
HETATM    9  N   UNL     1     -13.130   4.654 -34.781  1.00  0.00    -0.357 N 
HETATM   10  H   UNL     1     -13.977   4.102 -34.758  1.00  0.00     0.166 HD
HETATM   11  C   UNL     1     -12.990   5.840 -35.471  1.00  0.00     0.043 A 
HETATM   12  C   UNL     1     -11.678   6.284 -35.283  1.00  0.00    -0.001 A 
HETATM   13  C   UNL     1     -13.918   6.541 -36.251  1.00  0.00     0.030 A 
HETATM   14  C   UNL     1     -13.493   7.729 -36.854  1.00  0.00     0.002 A 
HETATM   15  C   UNL     1     -12.193   8.197 -36.681  1.00  0.00     0.001 A 
HETATM   16  C   UNL     1     -11.275   7.484 -35.900  1.00  0.00     0.014 A 
HETATM   17  O   UNL     1     -10.465   0.687 -33.451  1.00  0.00    -0.247 OA
HETATM   18  H   UNL     1      -7.968   2.531 -33.905  1.00  0.00     0.170 HD
ENDROOT
BRANCH   1  19
HETATM   19  C   UNL     1      -7.574   0.516 -33.886  1.00  0.00     0.037 A 
HETATM   20  C   UNL     1      -7.702  -0.295 -35.012  1.00  0.00     0.032 A 
HETATM   21  C   UNL     1      -6.812  -1.352 -35.228  1.00  0.00     0.039 A 
HETATM   22  C   UNL     1      -5.783  -1.605 -34.321  1.00  0.00     0.075 A 
HETATM   23  C   UNL     1      -5.699  -0.862 -33.136  1.00  0.00    -0.026 A 
HETATM   24  C   UNL     1      -4.622  -1.131 -32.123  1.00  0.00     0.051 C 
HETATM   25  C   UNL     1      -6.588   0.207 -32.938  1.00  0.00     0.039 A 
BRANCH  22  26
HETATM   26  O   UNL     1      -4.851  -2.589 -34.513  1.00  0.00    -0.346 OA
BRANCH  26  27
HETATM   27  C   UNL     1      -5.292  -3.928 -34.230  1.00  0.00     0.121 C 
HETATM   28  C   UNL     1      -6.043  -4.531 -35.418  1.00  0.00     0.040 C 
HETATM   29  C   UNL     1      -4.035  -4.747 -33.946  1.00  0.00     0.040 C 
ENDBRANCH  26  27
ENDBRANCH  22  26
ENDBRANCH   1  19
TORSDOF 3
ENDMDL
MODEL 6
REMARK VINA RESULT:      -8.2      7.214     11.239
REMARK  3 active torsions:
REMARK  status: ('A' for Active; 'I' for Inactive)
REMARK    1  A    between atoms: C_3  and  O_4 
REMARK    2  A    between atoms: O_4  and  C_5 
REMARK    3  A    between atoms: C_10  and  N_11 
REMARK       I    between atoms: N_11  and  C_12 
REMARK       I    between atoms: C_12  and  N_13 
ROOT
HETATM    1  N   UNL     1      -9.765   0.612 -33.531  1.00  0.00    -0.309 N 
HETATM    2  C   UNL     1     -10.050   1.924 -33.841  1.00  0.00     0.323 C 
HETATM    3  N   UNL     1     -11.360   2.145 -34.241  1.00  0.00    -0.328 N 
HETATM    4  C   UNL     1     -11.844   3.530 -34.243  1.00  0.00     0.185 C 
HETATM    5  C   UNL     1     -13.198   3.522 -33.613  1.00  0.00     0.035 A 
HETATM    6  C   UNL     1     -14.000   2.419 -33.387  1.00  0.00    -0.020 A 
HETATM    7  C   UNL     1     -13.550   1.044 -33.754  1.00  0.00     0.061 C 
HETATM    8  C   UNL     1     -12.334   1.130 -34.701  1.00  0.00     0.132 C 
HETATM    9  N   UNL     1     -13.847   4.625 -33.136  1.00  0.00    -0.357 N 
HETATM   10  H   UNL     1     -13.492   5.571 -33.149  1.00  0.00     0.166 HD
HETATM   11  C   UNL     1     -15.062   4.255 -32.598  1.00  0.00     0.043 A 
HETATM   12  C   UNL     1     -15.183   2.870 -32.746  1.00  0.00    -0.001 A 
HETATM   13  C   UNL     1     -16.049   5.037 -31.985  1.00  0.00     0.030 A 
HETATM   14  C   UNL     1     -17.192   4.385 -31.512  1.00  0.00     0.002 A 
HETATM   15  C   UNL     1     -17.341   3.007 -31.648  1.00  0.00     0.001 A 
HETATM   16  C   UNL     1     -16.345   2.238 -32.262  1.00  0.00     0.014 A 
HETATM   17  O   UNL     1      -9.253   2.854 -33.742  1.00  0.00    -0.247 OA
HETATM   18  H   UNL     1     -10.565   0.031 -33.351  1.00  0.00     0.170 HD
ENDROOT
BRANCH   1  19
HETATM   19  C   UNL     1      -8.531   0.093 -33.080  1.00  0.00     0.037 A 
HETATM   20  C   UNL     1      -7.742  -0.787 -33.817  1.00  0.00     0.032 A 
HETATM   21  C   UNL     1      -6.491  -1.189 -33.337  1.00  0.00     0.039 A 
HETATM   22  C   UNL     1      -6.018  -0.711 -32.115  1.00  0.00     0.075 A 
HETATM   23  C   UNL     1      -6.838   0.097 -31.316  1.00  0.00    -0.026 A 
HETATM   24  C   UNL     1      -6.370   0.602 -29.980  1.00  0.00     0.051 C 
HETATM   25  C   UNL     1      -8.085   0.507 -31.817  1.00  0.00     0.039 A 
BRANCH  22  26
HETATM   26  O   UNL     1      -4.779  -1.026 -31.626  1.00  0.00    -0.346 OA
BRANCH  26  27
HETATM   27  C   UNL     1      -3.827  -1.496 -32.596  1.00  0.00     0.121 C 
HETATM   28  C   UNL     1      -2.893  -0.374 -33.051  1.00  0.00     0.040 C 
HETATM   29  C   UNL     1      -3.017  -2.595 -31.912  1.00  0.00     0.040 C 
ENDBRANCH  26  27
ENDBRANCH  22  26
ENDBRANCH   1  19
TORSDOF 3
ENDMDL
MODEL 7
REMARK VINA RESULT:      -8.2      1.968      2.463
REMARK  3 active torsions:
REMARK  status: ('A' for Active; 'I' for Inactive)
REMARK    1  A    between atoms: C_3  and  O_4 
REMARK    2  A    between atoms: O_4  and  C_5 
REMARK    3  A    between atoms: C_10  and  N_11 
REMARK       I    between atoms: N_11  and  C_12 
REMARK       I    between atoms: C_12  and  N_13 
ROOT
HETATM    1  N   UNL     1      -4.107   4.640 -31.389  1.00  0.00    -0.309 N 
HETATM    2  C   UNL     1      -2.744   4.683 -31.590  1.00  0.00     0.323 C 
HETATM    3  N   UNL     1      -2.185   5.946 -31.450  1.00  0.00    -0.328 N 
HETATM    4  C   UNL     1      -0.729   6.028 -31.292  1.00  0.00     0.185 C 
HETATM    5  C   UNL     1      -0.464   6.992 -30.182  1.00  0.00     0.035 A 
HETATM    6  C   UNL     1      -1.357   7.895 -29.637  1.00  0.00    -0.020 A 
HETATM    7  C   UNL     1      -2.766   7.982 -30.123  1.00  0.00     0.061 C 
HETATM    8  C   UNL     1      -2.898   7.243 -31.471  1.00  0.00     0.132 C 
HETATM    9  N   UNL     1       0.721   7.108 -29.512  1.00  0.00    -0.357 N 
HETATM   10  H   UNL     1       1.553   6.560 -29.683  1.00  0.00     0.166 HD
HETATM   11  C   UNL     1       0.610   8.075 -28.534  1.00  0.00     0.043 A 
HETATM   12  C   UNL     1      -0.689   8.587 -28.594  1.00  0.00    -0.001 A 
HETATM   13  C   UNL     1       1.554   8.521 -27.600  1.00  0.00     0.030 A 
HETATM   14  C   UNL     1       1.159   9.519 -26.704  1.00  0.00     0.002 A 
HETATM   15  C   UNL     1      -0.129  10.050 -26.742  1.00  0.00     0.001 A 
HETATM   16  C   UNL     1      -1.062   9.593 -27.681  1.00  0.00     0.014 A 
HETATM   17  O   UNL     1      -2.043   3.704 -31.831  1.00  0.00    -0.247 OA
HETATM   18  H   UNL     1      -4.492   5.429 -30.898  1.00  0.00     0.170 HD
ENDROOT
BRANCH   1  19
HETATM   19  C   UNL     1      -4.940   3.502 -31.446  1.00  0.00     0.037 A 
HETATM   20  C   UNL     1      -5.437   2.846 -30.321  1.00  0.00     0.032 A 
HETATM   21  C   UNL     1      -6.327   1.775 -30.461  1.00  0.00     0.039 A 
HETATM   22  C   UNL     1      -6.729   1.354 -31.728  1.00  0.00     0.075 A 
HETATM   23  C   UNL     1      -6.165   1.937 -32.870  1.00  0.00    -0.026 A 
HETATM   24  C   UNL     1      -6.553   1.484 -34.249  1.00  0.00     0.051 C 
HETATM   25  C   UNL     1      -5.285   3.022 -32.716  1.00  0.00     0.039 A 
BRANCH  22  26
HETATM   26  O   UNL     1      -7.640   0.350 -31.921  1.00  0.00    -0.346 OA
BRANCH  26  27
HETATM   27  C   UNL     1      -9.009   0.690 -31.641  1.00  0.00     0.121 C 
HETATM   28  C   UNL     1      -9.252   2.193 -31.783  1.00  0.00     0.040 C 
HETATM   29  C   UNL     1      -9.860  -0.067 -32.658  1.00  0.00     0.040 C 
ENDBRANCH  26  27
ENDBRANCH  22  26
ENDBRANCH   1  19
TORSDOF 3
ENDMDL
MODEL 8
REMARK VINA RESULT:      -8.1      7.130     10.357
REMARK  3 active torsions:
REMARK  status: ('A' for Active; 'I' for Inactive)
REMARK    1  A    between atoms: C_3  and  O_4 
REMARK    2  A    between atoms: O_4  and  C_5 
REMARK    3  A    between atoms: C_10  and  N_11 
REMARK       I    between atoms: N_11  and  C_12 
REMARK       I    between atoms: C_12  and  N_13 
ROOT
HETATM    1  N   UNL     1      -8.182   2.574 -32.794  1.00  0.00    -0.309 N 
HETATM    2  C   UNL     1      -8.188   1.783 -33.923  1.00  0.00     0.323 C 
HETATM    3  N   UNL     1      -6.959   1.218 -34.231  1.00  0.00    -0.328 N 
HETATM    4  C   UNL     1      -6.946   0.100 -35.181  1.00  0.00     0.185 C 
HETATM    5  C   UNL     1      -6.048  -0.948 -34.611  1.00  0.00     0.035 A 
HETATM    6  C   UNL     1      -5.135  -0.789 -33.586  1.00  0.00    -0.020 A 
HETATM    7  C   UNL     1      -4.965   0.523 -32.895  1.00  0.00     0.061 C 
HETATM    8  C   UNL     1      -5.633   1.639 -33.726  1.00  0.00     0.132 C 
HETATM    9  N   UNL     1      -6.015  -2.254 -35.013  1.00  0.00    -0.357 N 
HETATM   10  H   UNL     1      -6.589  -2.665 -35.735  1.00  0.00     0.166 HD
HETATM   11  C   UNL     1      -5.092  -2.949 -34.259  1.00  0.00     0.043 A 
HETATM   12  C   UNL     1      -4.522  -2.049 -33.355  1.00  0.00    -0.001 A 
HETATM   13  C   UNL     1      -4.731  -4.302 -34.304  1.00  0.00     0.030 A 
HETATM   14  C   UNL     1      -3.761  -4.745 -33.399  1.00  0.00     0.002 A 
HETATM   15  C   UNL     1      -3.174  -3.869 -32.489  1.00  0.00     0.001 A 
HETATM   16  C   UNL     1      -3.546  -2.520 -32.455  1.00  0.00     0.014 A 
HETATM   17  O   UNL     1      -9.184   1.540 -34.599  1.00  0.00    -0.247 OA
HETATM   18  H   UNL     1      -7.402   2.431 -32.176  1.00  0.00     0.170 HD
ENDROOT
BRANCH   1  19
HETATM   19  C   UNL     1      -9.280   3.258 -32.229  1.00  0.00     0.037 A 
HETATM   20  C   UNL     1      -9.768   3.020 -30.945  1.00  0.00     0.032 A 
HETATM   21  C   UNL     1     -10.806   3.800 -30.426  1.00  0.00     0.039 A 
HETATM   22  C   UNL     1     -11.364   4.828 -31.185  1.00  0.00     0.075 A 
HETATM   23  C   UNL     1     -10.953   5.018 -32.511  1.00  0.00    -0.026 A 
HETATM   24  C   UNL     1     -11.557   6.096 -33.366  1.00  0.00     0.051 C 
HETATM   25  C   UNL     1      -9.899   4.239 -33.015  1.00  0.00     0.039 A 
BRANCH  22  26
HETATM   26  O   UNL     1     -12.341   5.658 -30.705  1.00  0.00    -0.346 OA
BRANCH  26  27
HETATM   27  C   UNL     1     -13.487   5.004 -30.133  1.00  0.00     0.121 C 
HETATM   28  C   UNL     1     -14.284   5.954 -29.238  1.00  0.00     0.040 C 
HETATM   29  C   UNL     1     -14.356   4.550 -31.303  1.00  0.00     0.040 C 
ENDBRANCH  26  27
ENDBRANCH  22  26
ENDBRANCH   1  19
TORSDOF 3
ENDMDL
MODEL 9
REMARK VINA RESULT:      -8.0      7.125     10.910
REMARK  3 active torsions:
REMARK  status: ('A' for Active; 'I' for Inactive)
REMARK    1  A    between atoms: C_3  and  O_4 
REMARK    2  A    between atoms: O_4  and  C_5 
REMARK    3  A    between atoms: C_10  and  N_11 
REMARK       I    between atoms: N_11  and  C_12 
REMARK       I    between atoms: C_12  and  N_13 
ROOT
HETATM    1  N   UNL     1      -9.906   3.404 -33.424  1.00  0.00    -0.309 N 
HETATM    2  C   UNL     1      -8.740   3.262 -32.704  1.00  0.00     0.323 C 
HETATM    3  N   UNL     1      -8.440   1.953 -32.356  1.00  0.00    -0.328 N 
HETATM    4  C   UNL     1      -7.070   1.666 -31.914  1.00  0.00     0.185 C 
HETATM    5  C   UNL     1      -6.638   0.418 -32.611  1.00  0.00     0.035 A 
HETATM    6  C   UNL     1      -7.450  -0.490 -33.265  1.00  0.00    -0.020 A 
HETATM    7  C   UNL     1      -8.925  -0.283 -33.359  1.00  0.00     0.061 C 
HETATM    8  C   UNL     1      -9.365   0.798 -32.350  1.00  0.00     0.132 C 
HETATM    9  N   UNL     1      -5.345  -0.006 -32.727  1.00  0.00    -0.357 N 
HETATM   10  H   UNL     1      -4.532   0.469 -32.362  1.00  0.00     0.166 HD
HETATM   11  C   UNL     1      -5.303  -1.179 -33.453  1.00  0.00     0.043 A 
HETATM   12  C   UNL     1      -6.617  -1.506 -33.800  1.00  0.00    -0.001 A 
HETATM   13  C   UNL     1      -4.206  -1.962 -33.833  1.00  0.00     0.030 A 
HETATM   14  C   UNL     1      -4.459  -3.111 -34.589  1.00  0.00     0.002 A 
HETATM   15  C   UNL     1      -5.758  -3.463 -34.947  1.00  0.00     0.001 A 
HETATM   16  C   UNL     1      -6.845  -2.669 -34.561  1.00  0.00     0.014 A 
HETATM   17  O   UNL     1      -7.982   4.184 -32.415  1.00  0.00    -0.247 OA
HETATM   18  H   UNL     1     -10.249   2.563 -33.855  1.00  0.00     0.170 HD
ENDROOT
BRANCH   1  19
HETATM   19  C   UNL     1     -10.453   4.604 -33.930  1.00  0.00     0.037 A 
HETATM   20  C   UNL     1      -9.877   5.348 -34.958  1.00  0.00     0.032 A 
HETATM   21  C   UNL     1     -10.526   6.481 -35.461  1.00  0.00     0.039 A 
HETATM   22  C   UNL     1     -11.758   6.877 -34.942  1.00  0.00     0.075 A 
HETATM   23  C   UNL     1     -12.304   6.199 -33.844  1.00  0.00    -0.026 A 
HETATM   24  C   UNL     1     -13.615   6.620 -33.242  1.00  0.00     0.051 C 
HETATM   25  C   UNL     1     -11.652   5.053 -33.359  1.00  0.00     0.039 A 
BRANCH  22  26
HETATM   26  O   UNL     1     -12.462   7.943 -35.436  1.00  0.00    -0.346 OA
BRANCH  26  27
HETATM   27  C   UNL     1     -12.844   7.849 -36.819  1.00  0.00     0.121 C 
HETATM   28  C   UNL     1     -14.224   7.208 -36.975  1.00  0.00     0.040 C 
HETATM   29  C   UNL     1     -12.877   9.278 -37.356  1.00  0.00     0.040 C 
ENDBRANCH  26  27
ENDBRANCH  22  26
ENDBRANCH   1  19
TORSDOF 3
ENDMDL
MODEL 10
REMARK VINA RESULT:      -8.0     19.086     21.036
REMARK  3 active torsions:
REMARK  status: ('A' for Active; 'I' for Inactive)
REMARK    1  A    between atoms: C_3  and  O_4 
REMARK    2  A    between atoms: O_4  and  C_5 
REMARK    3  A    between atoms: C_10  and  N_11 
REMARK       I    between atoms: N_11  and  C_12 
REMARK       I    between atoms: C_12  and  N_13 
ROOT
HETATM    1  N   UNL     1      -6.561 -13.818 -38.191  1.00  0.00    -0.309 N 
HETATM    2  C   UNL     1      -5.622 -12.970 -38.738  1.00  0.00     0.323 C 
HETATM    3  N   UNL     1      -4.458 -12.848 -37.993  1.00  0.00    -0.328 N 
HETATM    4  C   UNL     1      -3.286 -12.267 -38.657  1.00  0.00     0.185 C 
HETATM    5  C   UNL     1      -2.115 -13.124 -38.306  1.00  0.00     0.035 A 
HETATM    6  C   UNL     1      -2.049 -14.064 -37.294  1.00  0.00    -0.020 A 
HETATM    7  C   UNL     1      -3.222 -14.342 -36.416  1.00  0.00     0.061 C 
HETATM    8  C   UNL     1      -4.267 -13.216 -36.572  1.00  0.00     0.132 C 
HETATM    9  N   UNL     1      -0.918 -13.123 -38.965  1.00  0.00    -0.357 N 
HETATM   10  H   UNL     1      -0.683 -12.548 -39.762  1.00  0.00     0.166 HD
HETATM   11  C   UNL     1      -0.072 -14.053 -38.396  1.00  0.00     0.043 A 
HETATM   12  C   UNL     1      -0.760 -14.657 -37.340  1.00  0.00    -0.001 A 
HETATM   13  C   UNL     1       1.237 -14.408 -38.745  1.00  0.00     0.030 A 
HETATM   14  C   UNL     1       1.860 -15.409 -37.991  1.00  0.00     0.002 A 
HETATM   15  C   UNL     1       1.200 -16.026 -36.932  1.00  0.00     0.001 A 
HETATM   16  C   UNL     1      -0.110 -15.661 -36.597  1.00  0.00     0.014 A 
HETATM   17  O   UNL     1      -5.750 -12.388 -39.812  1.00  0.00    -0.247 OA
HETATM   18  H   UNL     1      -6.208 -14.456 -37.498  1.00  0.00     0.170 HD
ENDROOT
BRANCH   1  19
HETATM   19  C   UNL     1      -7.823 -14.151 -38.728  1.00  0.00     0.037 A 
HETATM   20  C   UNL     1      -8.681 -13.230 -39.327  1.00  0.00     0.032 A 
HETATM   21  C   UNL     1      -9.878 -13.654 -39.913  1.00  0.00     0.039 A 
HETATM   22  C   UNL     1     -10.226 -15.004 -39.908  1.00  0.00     0.075 A 
HETATM   23  C   UNL     1      -9.424 -15.930 -39.227  1.00  0.00    -0.026 A 
HETATM   24  C   UNL     1      -9.789 -17.387 -39.175  1.00  0.00     0.051 C 
HETATM   25  C   UNL     1      -8.217 -15.494 -38.657  1.00  0.00     0.039 A 
BRANCH  22  26
HETATM   26  O   UNL     1     -11.356 -15.481 -40.517  1.00  0.00    -0.346 OA
BRANCH  26  27
HETATM   27  C   UNL     1     -11.423 -15.293 -41.941  1.00  0.00     0.121 C 
HETATM   28  C   UNL     1     -10.444 -16.212 -42.672  1.00  0.00     0.040 C 
HETATM   29  C   UNL     1     -12.853 -15.631 -42.356  1.00  0.00     0.040 C 
ENDBRANCH  26  27
ENDBRANCH  22  26
ENDBRANCH   1  19
TORSDOF 3
ENDMDL
