MODEL 1
REMARK VINA RESULT:      -8.5      0.000      0.000
REMARK  8 active torsions:
REMARK  status: ('A' for Active; 'I' for Inactive)
REMARK    1  A    between atoms: N_4  and  C_5 
REMARK    2  A    between atoms: C_5  and  C_6 
REMARK    3  A    between atoms: C_11  and  C_12 
REMARK    4  A    between atoms: C_12  and  C_13 
REMARK       I    between atoms: C_13  and  N_14 
REMARK    5  A    between atoms: N_14  and  N_15 
REMARK       I    between atoms: N_15  and  C_16 
REMARK    6  A    between atoms: C_16  and  C_17 
REMARK    7  A    between atoms: C_21  and  C_22 
REMARK    8  A    between atoms: C_25  and  O_26 
ROOT
HETATM    1  N   UNL     1      -4.104   4.434 -30.515  1.00  0.00    -0.262 N 
HETATM    2  C   UNL     1      -5.240   3.849 -30.000  1.00  0.00     0.288 C 
HETATM    3  O   UNL     1      -5.919   4.404 -29.137  1.00  0.00    -0.264 OA
HETATM    4  H   UNL     1      -3.510   4.006 -31.220  1.00  0.00     0.190 HD
ENDROOT
BRANCH   1   5
HETATM    5  N   UNL     1      -3.674   5.654 -29.991  1.00  0.00    -0.267 N 
HETATM    6  C   UNL     1      -3.201   6.616 -30.858  1.00  0.00     0.240 C 
HETATM    7  O   UNL     1      -3.184   6.450 -32.080  1.00  0.00    -0.272 OA
HETATM    8  H   UNL     1      -3.722   5.766 -28.980  1.00  0.00     0.190 HD
BRANCH   6   9
HETATM    9  C   UNL     1      -2.665   7.860 -30.181  1.00  0.00     0.147 C 
BRANCH   9  10
HETATM   10  C   UNL     1      -1.444   7.588 -29.368  1.00  0.00     0.001 A 
HETATM   11  C   UNL     1      -0.166   7.168 -29.826  1.00  0.00     0.059 A 
HETATM   12  C   UNL     1       0.275   6.864 -31.210  1.00  0.00     0.073 C 
HETATM   13  N   UNL     1       0.703   7.050 -28.822  1.00  0.00    -0.177 NA
HETATM   14  N   UNL     1       0.018   7.430 -27.729  1.00  0.00    -0.273 N 
HETATM   15  C   UNL     1      -1.298   7.723 -27.995  1.00  0.00     0.035 A 
HETATM   16  C   UNL     1      -2.288   8.136 -26.965  1.00  0.00     0.070 C 
BRANCH  14  17
HETATM   17  C   UNL     1       0.734   7.500 -26.466  1.00  0.00     0.155 C 
BRANCH  17  18
HETATM   18  C   UNL     1       1.797   8.613 -26.426  1.00  0.00    -0.003 C 
HETATM   19  C   UNL     1       1.195   9.990 -26.712  1.00  0.00     0.011 C 
HETATM   20  C   UNL     1       2.488   8.622 -25.061  1.00  0.00     0.011 C 
ENDBRANCH  17  18
ENDBRANCH  14  17
ENDBRANCH   9  10
ENDBRANCH   6   9
ENDBRANCH   1   5
BRANCH   2  21
HETATM   21  C   UNL     1      -5.566   2.554 -30.529  1.00  0.00     0.121 A 
HETATM   22  N   UNL     1      -6.333   1.664 -29.833  1.00  0.00    -0.272 N 
HETATM   23  H   UNL     1      -6.744   1.801 -28.915  1.00  0.00     0.189 HD
HETATM   24  N   UNL     1      -6.536   0.501 -30.466  1.00  0.00    -0.174 NA
HETATM   25  C   UNL     1      -5.870   0.619 -31.626  1.00  0.00     0.089 A 
HETATM   26  C   UNL     1      -5.254   1.901 -31.705  1.00  0.00     0.071 A 
BRANCH  25  27
HETATM   27  C   UNL     1      -5.836  -0.470 -32.611  1.00  0.00    -0.005 A 
HETATM   28  C   UNL     1      -4.645  -1.167 -32.861  1.00  0.00     0.016 A 
HETATM   29  C   UNL     1      -4.608  -2.208 -33.793  1.00  0.00     0.037 A 
HETATM   30  C   UNL     1      -5.755  -2.579 -34.495  1.00  0.00     0.068 A 
HETATM   31  C   UNL     1      -6.942  -1.888 -34.262  1.00  0.00     0.037 A 
HETATM   32  C   UNL     1      -6.982  -0.842 -33.327  1.00  0.00     0.016 A 
BRANCH  30  33
HETATM   33  O   UNL     1      -5.583  -3.614 -35.371  1.00  0.00    -0.356 OA
HETATM   34  C   UNL     1      -6.604  -4.603 -35.404  1.00  0.00     0.210 C 
ENDBRANCH  30  33
ENDBRANCH  25  27
ENDBRANCH   2  21
TORSDOF 8
ENDMDL
MODEL 2
REMARK VINA RESULT:      -8.5      1.752      2.601
REMARK  8 active torsions:
REMARK  status: ('A' for Active; 'I' for Inactive)
REMARK    1  A    between atoms: N_4  and  C_5 
REMARK    2  A    between atoms: C_5  and  C_6 
REMARK    3  A    between atoms: C_11  and  C_12 
REMARK    4  A    between atoms: C_12  and  C_13 
REMARK       I    between atoms: C_13  and  N_14 
REMARK    5  A    between atoms: N_14  and  N_15 
REMARK       I    between atoms: N_15  and  C_16 
REMARK    6  A    between atoms: C_16  and  C_17 
REMARK    7  A    between atoms: C_21  and  C_22 
REMARK    8  A    between atoms: C_25  and  O_26 
ROOT
HETATM    1  N   UNL     1      -2.030   4.447 -32.096  1.00  0.00    -0.262 N 
HETATM    2  C   UNL     1      -3.294   4.326 -31.561  1.00  0.00     0.288 C 
HETATM    3  O   UNL     1      -3.804   5.225 -30.895  1.00  0.00    -0.264 OA
HETATM    4  H   UNL     1      -1.568   3.726 -32.643  1.00  0.00     0.190 HD
ENDROOT
BRANCH   1   5
HETATM    5  N   UNL     1      -1.281   5.591 -31.811  1.00  0.00    -0.267 N 
HETATM    6  C   UNL     1      -0.299   5.514 -30.847  1.00  0.00     0.240 C 
HETATM    7  O   UNL     1      -0.033   4.463 -30.259  1.00  0.00    -0.272 OA
HETATM    8  H   UNL     1      -1.512   6.436 -32.330  1.00  0.00     0.190 HD
BRANCH   6   9
HETATM    9  C   UNL     1       0.383   6.832 -30.542  1.00  0.00     0.147 C 
BRANCH   9  10
HETATM   10  C   UNL     1      -0.322   7.609 -29.482  1.00  0.00     0.001 A 
HETATM   11  C   UNL     1      -1.449   8.462 -29.628  1.00  0.00     0.059 A 
HETATM   12  C   UNL     1      -2.191   8.824 -30.862  1.00  0.00     0.073 C 
HETATM   13  N   UNL     1      -1.836   8.973 -28.459  1.00  0.00    -0.177 NA
HETATM   14  N   UNL     1      -1.004   8.428 -27.555  1.00  0.00    -0.273 N 
HETATM   15  C   UNL     1      -0.040   7.631 -28.123  1.00  0.00     0.035 A 
HETATM   16  C   UNL     1       1.027   6.932 -27.358  1.00  0.00     0.070 C 
BRANCH  14  17
HETATM   17  C   UNL     1      -1.235   8.723 -26.150  1.00  0.00     0.155 C 
BRANCH  17  18
HETATM   18  C   UNL     1      -2.487   8.035 -25.579  1.00  0.00    -0.003 C 
HETATM   19  C   UNL     1      -2.384   6.510 -25.648  1.00  0.00     0.011 C 
HETATM   20  C   UNL     1      -2.706   8.474 -24.130  1.00  0.00     0.011 C 
ENDBRANCH  17  18
ENDBRANCH  14  17
ENDBRANCH   9  10
ENDBRANCH   6   9
ENDBRANCH   1   5
BRANCH   2  21
HETATM   21  C   UNL     1      -3.963   3.083 -31.827  1.00  0.00     0.121 A 
HETATM   22  N   UNL     1      -5.084   2.708 -31.144  1.00  0.00    -0.272 N 
HETATM   23  H   UNL     1      -5.556   3.232 -30.412  1.00  0.00     0.189 HD
HETATM   24  N   UNL     1      -5.579   1.518 -31.509  1.00  0.00    -0.174 NA
HETATM   25  C   UNL     1      -4.747   1.079 -32.467  1.00  0.00     0.089 A 
HETATM   26  C   UNL     1      -3.723   2.041 -32.700  1.00  0.00     0.071 A 
BRANCH  25  27
HETATM   27  C   UNL     1      -4.944  -0.220 -33.124  1.00  0.00    -0.005 A 
HETATM   28  C   UNL     1      -3.974  -1.227 -33.014  1.00  0.00     0.016 A 
HETATM   29  C   UNL     1      -4.157  -2.468 -33.632  1.00  0.00     0.037 A 
HETATM   30  C   UNL     1      -5.310  -2.733 -34.371  1.00  0.00     0.068 A 
HETATM   31  C   UNL     1      -6.277  -1.737 -34.495  1.00  0.00     0.037 A 
HETATM   32  C   UNL     1      -6.094  -0.491 -33.876  1.00  0.00     0.016 A 
BRANCH  30  33
HETATM   33  O   UNL     1      -5.367  -3.984 -34.918  1.00  0.00    -0.356 OA
HETATM   34  C   UNL     1      -6.659  -4.492 -35.225  1.00  0.00     0.210 C 
ENDBRANCH  30  33
ENDBRANCH  25  27
ENDBRANCH   2  21
TORSDOF 8
ENDMDL
MODEL 3
REMARK VINA RESULT:      -8.1      3.038      3.842
REMARK  8 active torsions:
REMARK  status: ('A' for Active; 'I' for Inactive)
REMARK    1  A    between atoms: N_4  and  C_5 
REMARK    2  A    between atoms: C_5  and  C_6 
REMARK    3  A    between atoms: C_11  and  C_12 
REMARK    4  A    between atoms: C_12  and  C_13 
REMARK       I    between atoms: C_13  and  N_14 
REMARK    5  A    between atoms: N_14  and  N_15 
REMARK       I    between atoms: N_15  and  C_16 
REMARK    6  A    between atoms: C_16  and  C_17 
REMARK    7  A    between atoms: C_21  and  C_22 
REMARK    8  A    between atoms: C_25  and  O_26 
ROOT
HETATM    1  N   UNL     1      -3.741   3.637 -31.504  1.00  0.00    -0.262 N 
HETATM    2  C   UNL     1      -3.802   2.261 -31.454  1.00  0.00     0.288 C 
HETATM    3  O   UNL     1      -2.832   1.583 -31.119  1.00  0.00    -0.264 OA
HETATM    4  H   UNL     1      -4.514   4.234 -31.784  1.00  0.00     0.190 HD
ENDROOT
BRANCH   1   5
HETATM    5  N   UNL     1      -2.526   4.271 -31.239  1.00  0.00    -0.267 N 
HETATM    6  C   UNL     1      -1.762   4.706 -32.301  1.00  0.00     0.240 C 
HETATM    7  O   UNL     1      -2.133   4.589 -33.471  1.00  0.00    -0.272 OA
HETATM    8  H   UNL     1      -2.260   4.371 -30.261  1.00  0.00     0.190 HD
BRANCH   6   9
HETATM    9  C   UNL     1      -0.418   5.287 -31.909  1.00  0.00     0.147 C 
BRANCH   9  10
HETATM   10  C   UNL     1      -0.537   6.353 -30.872  1.00  0.00     0.001 A 
HETATM   11  C   UNL     1      -1.212   7.598 -30.974  1.00  0.00     0.059 A 
HETATM   12  C   UNL     1      -1.941   8.173 -32.133  1.00  0.00     0.073 C 
HETATM   13  N   UNL     1      -1.138   8.294 -29.839  1.00  0.00    -0.177 NA
HETATM   14  N   UNL     1      -0.463   7.497 -28.992  1.00  0.00    -0.273 N 
HETATM   15  C   UNL     1      -0.037   6.330 -29.578  1.00  0.00     0.035 A 
HETATM   16  C   UNL     1       0.759   5.285 -28.881  1.00  0.00     0.070 C 
BRANCH  14  17
HETATM   17  C   UNL     1      -0.299   7.944 -27.619  1.00  0.00     0.155 C 
BRANCH  17  18
HETATM   18  C   UNL     1       1.054   8.631 -27.357  1.00  0.00    -0.003 C 
HETATM   19  C   UNL     1       0.882  10.074 -26.881  1.00  0.00     0.011 C 
HETATM   20  C   UNL     1       1.849   7.834 -26.320  1.00  0.00     0.011 C 
ENDBRANCH  17  18
ENDBRANCH  14  17
ENDBRANCH   9  10
ENDBRANCH   6   9
ENDBRANCH   1   5
BRANCH   2  21
HETATM   21  C   UNL     1      -5.062   1.682 -31.826  1.00  0.00     0.121 A 
HETATM   22  N   UNL     1      -5.267   0.332 -31.806  1.00  0.00    -0.272 N 
HETATM   23  H   UNL     1      -4.598  -0.383 -31.538  1.00  0.00     0.189 HD
HETATM   24  N   UNL     1      -6.495  -0.042 -32.189  1.00  0.00    -0.174 NA
HETATM   25  C   UNL     1      -7.129   1.104 -32.485  1.00  0.00     0.089 A 
HETATM   26  C   UNL     1      -6.261   2.211 -32.261  1.00  0.00     0.071 A 
BRANCH  25  27
HETATM   27  C   UNL     1      -8.517   1.117 -32.965  1.00  0.00    -0.005 A 
HETATM   28  C   UNL     1      -8.969   2.143 -33.808  1.00  0.00     0.016 A 
HETATM   29  C   UNL     1     -10.287   2.159 -34.273  1.00  0.00     0.037 A 
HETATM   30  C   UNL     1     -11.183   1.153 -33.910  1.00  0.00     0.068 A 
HETATM   31  C   UNL     1     -10.749   0.134 -33.065  1.00  0.00     0.037 A 
HETATM   32  C   UNL     1      -9.426   0.117 -32.597  1.00  0.00     0.016 A 
BRANCH  30  33
HETATM   33  O   UNL     1     -12.437   1.284 -34.436  1.00  0.00    -0.356 OA
HETATM   34  C   UNL     1     -13.523   1.274 -33.519  1.00  0.00     0.210 C 
ENDBRANCH  30  33
ENDBRANCH  25  27
ENDBRANCH   2  21
TORSDOF 8
ENDMDL
MODEL 4
REMARK VINA RESULT:      -8.1      1.624      2.144
REMARK  8 active torsions:
REMARK  status: ('A' for Active; 'I' for Inactive)
REMARK    1  A    between atoms: N_4  and  C_5 
REMARK    2  A    between atoms: C_5  and  C_6 
REMARK    3  A    between atoms: C_11  and  C_12 
REMARK    4  A    between atoms: C_12  and  C_13 
REMARK       I    between atoms: C_13  and  N_14 
REMARK    5  A    between atoms: N_14  and  N_15 
REMARK       I    between atoms: N_15  and  C_16 
REMARK    6  A    between atoms: C_16  and  C_17 
REMARK    7  A    between atoms: C_21  and  C_22 
REMARK    8  A    between atoms: C_25  and  O_26 
ROOT
HETATM    1  N   UNL     1      -4.087   5.059 -32.670  1.00  0.00    -0.262 N 
HETATM    2  C   UNL     1      -4.717   4.329 -31.686  1.00  0.00     0.288 C 
HETATM    3  O   UNL     1      -4.786   4.732 -30.525  1.00  0.00    -0.264 OA
HETATM    4  H   UNL     1      -3.999   4.759 -33.637  1.00  0.00     0.190 HD
ENDROOT
BRANCH   1   5
HETATM    5  N   UNL     1      -3.447   6.251 -32.325  1.00  0.00    -0.267 N 
HETATM    6  C   UNL     1      -2.267   6.575 -32.960  1.00  0.00     0.240 C 
HETATM    7  O   UNL     1      -1.781   5.871 -33.847  1.00  0.00    -0.272 OA
HETATM    8  H   UNL     1      -3.887   6.820 -31.604  1.00  0.00     0.190 HD
BRANCH   6   9
HETATM    9  C   UNL     1      -1.603   7.834 -32.440  1.00  0.00     0.147 C 
BRANCH   9  10
HETATM   10  C   UNL     1      -1.306   7.764 -30.980  1.00  0.00     0.001 A 
HETATM   11  C   UNL     1      -1.941   8.474 -29.926  1.00  0.00     0.059 A 
HETATM   12  C   UNL     1      -3.030   9.481 -30.001  1.00  0.00     0.073 C 
HETATM   13  N   UNL     1      -1.439   8.142 -28.736  1.00  0.00    -0.177 NA
HETATM   14  N   UNL     1      -0.521   7.197 -29.003  1.00  0.00    -0.273 N 
HETATM   15  C   UNL     1      -0.368   6.961 -30.347  1.00  0.00     0.035 A 
HETATM   16  C   UNL     1       0.602   5.992 -30.922  1.00  0.00     0.070 C 
BRANCH  14  17
HETATM   17  C   UNL     1       0.146   6.558 -27.880  1.00  0.00     0.155 C 
BRANCH  17  18
HETATM   18  C   UNL     1       1.120   7.490 -27.136  1.00  0.00    -0.003 C 
HETATM   19  C   UNL     1       1.617   8.629 -28.029  1.00  0.00     0.011 C 
HETATM   20  C   UNL     1       0.440   8.065 -25.892  1.00  0.00     0.011 C 
ENDBRANCH  17  18
ENDBRANCH  14  17
ENDBRANCH   9  10
ENDBRANCH   6   9
ENDBRANCH   1   5
BRANCH   2  21
HETATM   21  C   UNL     1      -5.273   3.074 -32.105  1.00  0.00     0.121 A 
HETATM   22  N   UNL     1      -6.583   2.756 -31.881  1.00  0.00    -0.272 N 
HETATM   23  H   UNL     1      -7.281   3.335 -31.425  1.00  0.00     0.189 HD
HETATM   24  N   UNL     1      -6.938   1.544 -32.328  1.00  0.00    -0.174 NA
HETATM   25  C   UNL     1      -5.818   1.031 -32.860  1.00  0.00     0.089 A 
HETATM   26  C   UNL     1      -4.751   1.968 -32.746  1.00  0.00     0.071 A 
BRANCH  25  27
HETATM   27  C   UNL     1      -5.790  -0.313 -33.454  1.00  0.00    -0.005 A 
HETATM   28  C   UNL     1      -4.653  -1.123 -33.327  1.00  0.00     0.016 A 
HETATM   29  C   UNL     1      -4.622  -2.405 -33.884  1.00  0.00     0.037 A 
HETATM   30  C   UNL     1      -5.723  -2.908 -34.578  1.00  0.00     0.068 A 
HETATM   31  C   UNL     1      -6.855  -2.108 -34.719  1.00  0.00     0.037 A 
HETATM   32  C   UNL     1      -6.888  -0.821 -34.161  1.00  0.00     0.016 A 
BRANCH  30  33
HETATM   33  O   UNL     1      -5.564  -4.174 -35.067  1.00  0.00    -0.356 OA
HETATM   34  C   UNL     1      -4.726  -5.049 -34.324  1.00  0.00     0.210 C 
ENDBRANCH  30  33
ENDBRANCH  25  27
ENDBRANCH   2  21
TORSDOF 8
ENDMDL
MODEL 5
REMARK VINA RESULT:      -8.0      1.465      2.263
REMARK  8 active torsions:
REMARK  status: ('A' for Active; 'I' for Inactive)
REMARK    1  A    between atoms: N_4  and  C_5 
REMARK    2  A    between atoms: C_5  and  C_6 
REMARK    3  A    between atoms: C_11  and  C_12 
REMARK    4  A    between atoms: C_12  and  C_13 
REMARK       I    between atoms: C_13  and  N_14 
REMARK    5  A    between atoms: N_14  and  N_15 
REMARK       I    between atoms: N_15  and  C_16 
REMARK    6  A    between atoms: C_16  and  C_17 
REMARK    7  A    between atoms: C_21  and  C_22 
REMARK    8  A    between atoms: C_25  and  O_26 
ROOT
HETATM    1  N   UNL     1      -3.389   4.949 -30.580  1.00  0.00    -0.262 N 
HETATM    2  C   UNL     1      -2.899   3.976 -31.424  1.00  0.00     0.288 C 
HETATM    3  O   UNL     1      -1.779   4.059 -31.925  1.00  0.00    -0.264 OA
HETATM    4  H   UNL     1      -4.311   4.925 -30.153  1.00  0.00     0.190 HD
ENDROOT
BRANCH   1   5
HETATM    5  N   UNL     1      -2.622   6.093 -30.349  1.00  0.00    -0.267 N 
HETATM    6  C   UNL     1      -2.996   7.273 -30.956  1.00  0.00     0.240 C 
HETATM    7  O   UNL     1      -4.003   7.361 -31.661  1.00  0.00    -0.272 OA
HETATM    8  H   UNL     1      -1.810   5.991 -29.743  1.00  0.00     0.190 HD
BRANCH   6   9
HETATM    9  C   UNL     1      -2.042   8.426 -30.722  1.00  0.00     0.147 C 
BRANCH   9  10
HETATM   10  C   UNL     1      -1.669   8.579 -29.286  1.00  0.00     0.001 A 
HETATM   11  C   UNL     1      -2.452   9.126 -28.234  1.00  0.00     0.059 A 
HETATM   12  C   UNL     1      -3.816   9.712 -28.293  1.00  0.00     0.073 C 
HETATM   13  N   UNL     1      -1.812   9.077 -27.065  1.00  0.00    -0.177 NA
HETATM   14  N   UNL     1      -0.646   8.467 -27.339  1.00  0.00    -0.273 N 
HETATM   15  C   UNL     1      -0.488   8.184 -28.674  1.00  0.00     0.035 A 
HETATM   16  C   UNL     1       0.720   7.541 -29.256  1.00  0.00     0.070 C 
BRANCH  14  17
HETATM   17  C   UNL     1       0.249   8.177 -26.230  1.00  0.00     0.155 C 
BRANCH  17  18
HETATM   18  C   UNL     1       1.525   9.037 -26.234  1.00  0.00    -0.003 C 
HETATM   19  C   UNL     1       1.208  10.533 -26.167  1.00  0.00     0.011 C 
HETATM   20  C   UNL     1       2.420   8.644 -25.057  1.00  0.00     0.011 C 
ENDBRANCH  17  18
ENDBRANCH  14  17
ENDBRANCH   9  10
ENDBRANCH   6   9
ENDBRANCH   1   5
BRANCH   2  21
HETATM   21  C   UNL     1      -3.784   2.875 -31.680  1.00  0.00     0.121 A 
HETATM   22  N   UNL     1      -4.892   2.648 -30.914  1.00  0.00    -0.272 N 
HETATM   23  H   UNL     1      -5.208   3.198 -30.121  1.00  0.00     0.189 HD
HETATM   24  N   UNL     1      -5.605   1.576 -31.283  1.00  0.00    -0.174 NA
HETATM   25  C   UNL     1      -4.940   1.063 -32.330  1.00  0.00     0.089 A 
HETATM   26  C   UNL     1      -3.793   1.859 -32.615  1.00  0.00     0.071 A 
BRANCH  25  27
HETATM   27  C   UNL     1      -5.403  -0.147 -33.021  1.00  0.00    -0.005 A 
HETATM   28  C   UNL     1      -6.772  -0.370 -33.226  1.00  0.00     0.016 A 
HETATM   29  C   UNL     1      -7.220  -1.517 -33.888  1.00  0.00     0.037 A 
HETATM   30  C   UNL     1      -6.314  -2.466 -34.361  1.00  0.00     0.068 A 
HETATM   31  C   UNL     1      -4.951  -2.261 -34.155  1.00  0.00     0.037 A 
HETATM   32  C   UNL     1      -4.500  -1.111 -33.491  1.00  0.00     0.016 A 
BRANCH  30  33
HETATM   33  O   UNL     1      -6.881  -3.537 -34.993  1.00  0.00    -0.356 OA
HETATM   34  C   UNL     1      -6.037  -4.650 -35.255  1.00  0.00     0.210 C 
ENDBRANCH  30  33
ENDBRANCH  25  27
ENDBRANCH   2  21
TORSDOF 8
ENDMDL
MODEL 6
REMARK VINA RESULT:      -7.9      2.838     11.804
REMARK  8 active torsions:
REMARK  status: ('A' for Active; 'I' for Inactive)
REMARK    1  A    between atoms: N_4  and  C_5 
REMARK    2  A    between atoms: C_5  and  C_6 
REMARK    3  A    between atoms: C_11  and  C_12 
REMARK    4  A    between atoms: C_12  and  C_13 
REMARK       I    between atoms: C_13  and  N_14 
REMARK    5  A    between atoms: N_14  and  N_15 
REMARK       I    between atoms: N_15  and  C_16 
REMARK    6  A    between atoms: C_16  and  C_17 
REMARK    7  A    between atoms: C_21  and  C_22 
REMARK    8  A    between atoms: C_25  and  O_26 
ROOT
HETATM    1  N   UNL     1      -1.649   5.254 -30.498  1.00  0.00    -0.262 N 
HETATM    2  C   UNL     1      -0.552   6.087 -30.521  1.00  0.00     0.288 C 
HETATM    3  O   UNL     1       0.014   6.383 -31.573  1.00  0.00    -0.264 OA
HETATM    4  H   UNL     1      -2.139   4.977 -29.652  1.00  0.00     0.190 HD
ENDROOT
BRANCH   1   5
HETATM    5  N   UNL     1      -2.083   4.673 -31.691  1.00  0.00    -0.267 N 
HETATM    6  C   UNL     1      -3.387   4.879 -32.090  1.00  0.00     0.240 C 
HETATM    7  O   UNL     1      -4.167   5.588 -31.451  1.00  0.00    -0.272 OA
HETATM    8  H   UNL     1      -1.407   4.112 -32.205  1.00  0.00     0.190 HD
BRANCH   6   9
HETATM    9  C   UNL     1      -3.785   4.123 -33.342  1.00  0.00     0.147 C 
BRANCH   9  10
HETATM   10  C   UNL     1      -4.970   3.244 -33.126  1.00  0.00     0.001 A 
HETATM   11  C   UNL     1      -6.342   3.566 -33.313  1.00  0.00     0.059 A 
HETATM   12  C   UNL     1      -6.949   4.854 -33.735  1.00  0.00     0.073 C 
HETATM   13  N   UNL     1      -7.133   2.525 -33.054  1.00  0.00    -0.177 NA
HETATM   14  N   UNL     1      -6.290   1.523 -32.745  1.00  0.00    -0.273 N 
HETATM   15  C   UNL     1      -4.974   1.914 -32.730  1.00  0.00     0.035 A 
HETATM   16  C   UNL     1      -3.838   1.017 -32.389  1.00  0.00     0.070 C 
BRANCH  14  17
HETATM   17  C   UNL     1      -6.856   0.207 -32.500  1.00  0.00     0.155 C 
BRANCH  17  18
HETATM   18  C   UNL     1      -7.007  -0.641 -33.776  1.00  0.00    -0.003 C 
HETATM   19  C   UNL     1      -7.137   0.227 -35.029  1.00  0.00     0.011 C 
HETATM   20  C   UNL     1      -5.809  -1.582 -33.919  1.00  0.00     0.011 C 
ENDBRANCH  17  18
ENDBRANCH  14  17
ENDBRANCH   9  10
ENDBRANCH   6   9
ENDBRANCH   1   5
BRANCH   2  21
HETATM   21  C   UNL     1      -0.115   6.573 -29.242  1.00  0.00     0.121 A 
HETATM   22  N   UNL     1      -0.264   5.835 -28.103  1.00  0.00    -0.272 N 
HETATM   23  H   UNL     1      -0.672   4.908 -28.026  1.00  0.00     0.189 HD
HETATM   24  N   UNL     1       0.190   6.436 -26.995  1.00  0.00    -0.174 NA
HETATM   25  C   UNL     1       0.649   7.627 -27.413  1.00  0.00     0.089 A 
HETATM   26  C   UNL     1       0.482   7.745 -28.823  1.00  0.00     0.071 A 
BRANCH  25  27
HETATM   27  C   UNL     1       1.225   8.603 -26.479  1.00  0.00    -0.005 A 
HETATM   28  C   UNL     1       0.810   9.942 -26.504  1.00  0.00     0.016 A 
HETATM   29  C   UNL     1       1.349  10.876 -25.614  1.00  0.00     0.037 A 
HETATM   30  C   UNL     1       2.312  10.495 -24.679  1.00  0.00     0.068 A 
HETATM   31  C   UNL     1       2.740   9.170 -24.651  1.00  0.00     0.037 A 
HETATM   32  C   UNL     1       2.200   8.232 -25.544  1.00  0.00     0.016 A 
BRANCH  30  33
HETATM   33  O   UNL     1       2.753  11.502 -23.866  1.00  0.00    -0.356 OA
HETATM   34  C   UNL     1       3.762  11.170 -22.922  1.00  0.00     0.210 C 
ENDBRANCH  30  33
ENDBRANCH  25  27
ENDBRANCH   2  21
TORSDOF 8
ENDMDL
MODEL 7
REMARK VINA RESULT:      -7.9      2.164      3.423
REMARK  8 active torsions:
REMARK  status: ('A' for Active; 'I' for Inactive)
REMARK    1  A    between atoms: N_4  and  C_5 
REMARK    2  A    between atoms: C_5  and  C_6 
REMARK    3  A    between atoms: C_11  and  C_12 
REMARK    4  A    between atoms: C_12  and  C_13 
REMARK       I    between atoms: C_13  and  N_14 
REMARK    5  A    between atoms: N_14  and  N_15 
REMARK       I    between atoms: N_15  and  C_16 
REMARK    6  A    between atoms: C_16  and  C_17 
REMARK    7  A    between atoms: C_21  and  C_22 
REMARK    8  A    between atoms: C_25  and  O_26 
ROOT
HETATM    1  N   UNL     1      -5.487   3.717 -29.052  1.00  0.00    -0.262 N 
HETATM    2  C   UNL     1      -5.175   3.617 -30.390  1.00  0.00     0.288 C 
HETATM    3  O   UNL     1      -4.528   4.487 -30.971  1.00  0.00    -0.264 OA
HETATM    4  H   UNL     1      -6.027   3.027 -28.537  1.00  0.00     0.190 HD
ENDROOT
BRANCH   1   5
HETATM    5  N   UNL     1      -5.124   4.873 -28.357  1.00  0.00    -0.267 N 
HETATM    6  C   UNL     1      -6.090   5.824 -28.105  1.00  0.00     0.240 C 
HETATM    7  O   UNL     1      -7.268   5.670 -28.436  1.00  0.00    -0.272 OA
HETATM    8  H   UNL     1      -4.148   4.957 -28.079  1.00  0.00     0.190 HD
BRANCH   6   9
HETATM    9  C   UNL     1      -5.571   7.081 -27.437  1.00  0.00     0.147 C 
BRANCH   9  10
HETATM   10  C   UNL     1      -4.224   7.480 -27.938  1.00  0.00     0.001 A 
HETATM   11  C   UNL     1      -2.983   7.420 -27.248  1.00  0.00     0.059 A 
HETATM   12  C   UNL     1      -2.709   6.980 -25.856  1.00  0.00     0.073 C 
HETATM   13  N   UNL     1      -1.972   7.831 -28.014  1.00  0.00    -0.177 NA
HETATM   14  N   UNL     1      -2.535   8.114 -29.202  1.00  0.00    -0.273 N 
HETATM   15  C   UNL     1      -3.901   7.962 -29.198  1.00  0.00     0.035 A 
HETATM   16  C   UNL     1      -4.777   8.239 -30.367  1.00  0.00     0.070 C 
BRANCH  14  17
HETATM   17  C   UNL     1      -1.661   8.505 -30.295  1.00  0.00     0.155 C 
BRANCH  17  18
HETATM   18  C   UNL     1      -1.270   7.335 -31.215  1.00  0.00    -0.003 C 
HETATM   19  C   UNL     1      -1.487   7.669 -32.692  1.00  0.00     0.011 C 
HETATM   20  C   UNL     1       0.193   6.954 -30.979  1.00  0.00     0.011 C 
ENDBRANCH  17  18
ENDBRANCH  14  17
ENDBRANCH   9  10
ENDBRANCH   6   9
ENDBRANCH   1   5
BRANCH   2  21
HETATM   21  C   UNL     1      -5.661   2.439 -31.053  1.00  0.00     0.121 A 
HETATM   22  N   UNL     1      -6.960   2.033 -30.939  1.00  0.00    -0.272 N 
HETATM   23  H   UNL     1      -7.697   2.488 -30.408  1.00  0.00     0.189 HD
HETATM   24  N   UNL     1      -7.247   0.912 -31.614  1.00  0.00    -0.174 NA
HETATM   25  C   UNL     1      -6.090   0.553 -32.192  1.00  0.00     0.089 A 
HETATM   26  C   UNL     1      -5.072   1.495 -31.869  1.00  0.00     0.071 A 
BRANCH  25  27
HETATM   27  C   UNL     1      -5.985  -0.655 -33.022  1.00  0.00    -0.005 A 
HETATM   28  C   UNL     1      -7.098  -1.132 -33.729  1.00  0.00     0.016 A 
HETATM   29  C   UNL     1      -7.003  -2.276 -34.526  1.00  0.00     0.037 A 
HETATM   30  C   UNL     1      -5.798  -2.970 -34.637  1.00  0.00     0.068 A 
HETATM   31  C   UNL     1      -4.687  -2.512 -33.932  1.00  0.00     0.037 A 
HETATM   32  C   UNL     1      -4.781  -1.363 -33.131  1.00  0.00     0.016 A 
BRANCH  30  33
HETATM   33  O   UNL     1      -5.840  -4.068 -35.450  1.00  0.00    -0.356 OA
HETATM   34  C   UNL     1      -5.234  -5.256 -34.957  1.00  0.00     0.210 C 
ENDBRANCH  30  33
ENDBRANCH  25  27
ENDBRANCH   2  21
TORSDOF 8
ENDMDL
MODEL 8
REMARK VINA RESULT:      -7.8      1.816      2.231
REMARK  8 active torsions:
REMARK  status: ('A' for Active; 'I' for Inactive)
REMARK    1  A    between atoms: N_4  and  C_5 
REMARK    2  A    between atoms: C_5  and  C_6 
REMARK    3  A    between atoms: C_11  and  C_12 
REMARK    4  A    between atoms: C_12  and  C_13 
REMARK       I    between atoms: C_13  and  N_14 
REMARK    5  A    between atoms: N_14  and  N_15 
REMARK       I    between atoms: N_15  and  C_16 
REMARK    6  A    between atoms: C_16  and  C_17 
REMARK    7  A    between atoms: C_21  and  C_22 
REMARK    8  A    between atoms: C_25  and  O_26 
ROOT
HETATM    1  N   UNL     1      -3.779   4.736 -30.487  1.00  0.00    -0.262 N 
HETATM    2  C   UNL     1      -4.243   4.451 -31.753  1.00  0.00     0.288 C 
HETATM    3  O   UNL     1      -4.571   5.340 -32.537  1.00  0.00    -0.264 OA
HETATM    4  H   UNL     1      -3.508   4.033 -29.806  1.00  0.00     0.190 HD
ENDROOT
BRANCH   1   5
HETATM    5  N   UNL     1      -3.749   6.065 -30.061  1.00  0.00    -0.267 N 
HETATM    6  C   UNL     1      -4.622   6.460 -29.069  1.00  0.00     0.240 C 
HETATM    7  O   UNL     1      -5.397   5.673 -28.521  1.00  0.00    -0.272 OA
HETATM    8  H   UNL     1      -3.082   6.684 -30.519  1.00  0.00     0.190 HD
BRANCH   6   9
HETATM    9  C   UNL     1      -4.580   7.941 -28.751  1.00  0.00     0.147 C 
BRANCH   9  10
HETATM   10  C   UNL     1      -3.205   8.417 -28.423  1.00  0.00     0.001 A 
HETATM   11  C   UNL     1      -2.372   9.275 -29.190  1.00  0.00     0.059 A 
HETATM   12  C   UNL     1      -2.634   9.890 -30.516  1.00  0.00     0.073 C 
HETATM   13  N   UNL     1      -1.213   9.516 -28.576  1.00  0.00    -0.177 NA
HETATM   14  N   UNL     1      -1.304   8.862 -27.405  1.00  0.00    -0.273 N 
HETATM   15  C   UNL     1      -2.468   8.144 -27.279  1.00  0.00     0.035 A 
HETATM   16  C   UNL     1      -2.811   7.304 -26.101  1.00  0.00     0.070 C 
BRANCH  14  17
HETATM   17  C   UNL     1      -0.214   9.010 -26.454  1.00  0.00     0.155 C 
BRANCH  17  18
HETATM   18  C   UNL     1       1.133   8.482 -26.980  1.00  0.00    -0.003 C 
HETATM   19  C   UNL     1       2.233   8.560 -25.920  1.00  0.00     0.011 C 
HETATM   20  C   UNL     1       0.973   7.037 -27.456  1.00  0.00     0.011 C 
ENDBRANCH  17  18
ENDBRANCH  14  17
ENDBRANCH   9  10
ENDBRANCH   6   9
ENDBRANCH   1   5
BRANCH   2  21
HETATM   21  C   UNL     1      -4.326   3.056 -32.083  1.00  0.00     0.121 A 
HETATM   22  N   UNL     1      -3.385   2.160 -31.663  1.00  0.00    -0.272 N 
HETATM   23  H   UNL     1      -2.566   2.357 -31.096  1.00  0.00     0.189 HD
HETATM   24  N   UNL     1      -3.608   0.901 -32.064  1.00  0.00    -0.174 NA
HETATM   25  C   UNL     1      -4.736   0.965 -32.789  1.00  0.00     0.089 A 
HETATM   26  C   UNL     1      -5.222   2.303 -32.816  1.00  0.00     0.071 A 
BRANCH  25  27
HETATM   27  C   UNL     1      -5.313  -0.227 -33.425  1.00  0.00    -0.005 A 
HETATM   28  C   UNL     1      -4.572  -1.414 -33.516  1.00  0.00     0.016 A 
HETATM   29  C   UNL     1      -5.117  -2.554 -34.114  1.00  0.00     0.037 A 
HETATM   30  C   UNL     1      -6.411  -2.536 -34.635  1.00  0.00     0.068 A 
HETATM   31  C   UNL     1      -7.153  -1.359 -34.561  1.00  0.00     0.037 A 
HETATM   32  C   UNL     1      -6.608  -0.215 -33.960  1.00  0.00     0.016 A 
BRANCH  30  33
HETATM   33  O   UNL     1      -6.824  -3.716 -35.188  1.00  0.00    -0.356 OA
HETATM   34  C   UNL     1      -5.917  -4.809 -35.121  1.00  0.00     0.210 C 
ENDBRANCH  30  33
ENDBRANCH  25  27
ENDBRANCH   2  21
TORSDOF 8
ENDMDL
MODEL 9
REMARK VINA RESULT:      -7.4      3.146     11.402
REMARK  8 active torsions:
REMARK  status: ('A' for Active; 'I' for Inactive)
REMARK    1  A    between atoms: N_4  and  C_5 
REMARK    2  A    between atoms: C_5  and  C_6 
REMARK    3  A    between atoms: C_11  and  C_12 
REMARK    4  A    between atoms: C_12  and  C_13 
REMARK       I    between atoms: C_13  and  N_14 
REMARK    5  A    between atoms: N_14  and  N_15 
REMARK       I    between atoms: N_15  and  C_16 
REMARK    6  A    between atoms: C_16  and  C_17 
REMARK    7  A    between atoms: C_21  and  C_22 
REMARK    8  A    between atoms: C_25  and  O_26 
ROOT
HETATM    1  N   UNL     1      -2.807   4.853 -31.159  1.00  0.00    -0.262 N 
HETATM    2  C   UNL     1      -1.482   5.130 -31.420  1.00  0.00     0.288 C 
HETATM    3  O   UNL     1      -0.987   4.940 -32.530  1.00  0.00    -0.264 OA
HETATM    4  H   UNL     1      -3.251   4.986 -30.255  1.00  0.00     0.190 HD
ENDROOT
BRANCH   1   5
HETATM    5  N   UNL     1      -3.586   4.273 -32.162  1.00  0.00    -0.267 N 
HETATM    6  C   UNL     1      -4.445   5.078 -32.880  1.00  0.00     0.240 C 
HETATM    7  O   UNL     1      -4.517   6.295 -32.695  1.00  0.00    -0.272 OA
HETATM    8  H   UNL     1      -3.486   3.270 -32.304  1.00  0.00     0.190 HD
BRANCH   6   9
HETATM    9  C   UNL     1      -5.317   4.335 -33.871  1.00  0.00     0.147 C 
BRANCH   9  10
HETATM   10  C   UNL     1      -6.568   3.811 -33.251  1.00  0.00     0.001 A 
HETATM   11  C   UNL     1      -7.738   4.537 -32.899  1.00  0.00     0.059 A 
HETATM   12  C   UNL     1      -8.007   5.992 -33.023  1.00  0.00     0.073 C 
HETATM   13  N   UNL     1      -8.679   3.740 -32.391  1.00  0.00    -0.177 NA
HETATM   14  N   UNL     1      -8.151   2.505 -32.452  1.00  0.00    -0.273 N 
HETATM   15  C   UNL     1      -6.860   2.495 -32.922  1.00  0.00     0.035 A 
HETATM   16  C   UNL     1      -6.028   1.270 -33.060  1.00  0.00     0.070 C 
BRANCH  14  17
HETATM   17  C   UNL     1      -8.987   1.385 -32.050  1.00  0.00     0.155 C 
BRANCH  17  18
HETATM   18  C   UNL     1      -9.501   0.549 -33.237  1.00  0.00    -0.003 C 
HETATM   19  C   UNL     1     -10.383  -0.613 -32.779  1.00  0.00     0.011 C 
HETATM   20  C   UNL     1     -10.281   1.444 -34.203  1.00  0.00     0.011 C 
ENDBRANCH  17  18
ENDBRANCH  14  17
ENDBRANCH   9  10
ENDBRANCH   6   9
ENDBRANCH   1   5
BRANCH   2  21
HETATM   21  C   UNL     1      -0.726   5.643 -30.312  1.00  0.00     0.121 A 
HETATM   22  N   UNL     1       0.127   4.852 -29.595  1.00  0.00    -0.272 N 
HETATM   23  H   UNL     1       0.322   3.868 -29.752  1.00  0.00     0.189 HD
HETATM   24  N   UNL     1       0.748   5.483 -28.590  1.00  0.00    -0.174 NA
HETATM   25  C   UNL     1       0.282   6.742 -28.633  1.00  0.00     0.089 A 
HETATM   26  C   UNL     1      -0.641   6.882 -29.709  1.00  0.00     0.071 A 
BRANCH  25  27
HETATM   27  C   UNL     1       0.719   7.760 -27.669  1.00  0.00    -0.005 A 
HETATM   28  C   UNL     1       1.679   7.452 -26.695  1.00  0.00     0.016 A 
HETATM   29  C   UNL     1       2.104   8.418 -25.778  1.00  0.00     0.037 A 
HETATM   30  C   UNL     1       1.582   9.711 -25.811  1.00  0.00     0.068 A 
HETATM   31  C   UNL     1       0.619  10.026 -26.768  1.00  0.00     0.037 A 
HETATM   32  C   UNL     1       0.191   9.058 -27.689  1.00  0.00     0.016 A 
BRANCH  30  33
HETATM   33  O   UNL     1       2.085  10.558 -24.864  1.00  0.00    -0.356 OA
HETATM   34  C   UNL     1       1.311  10.735 -23.684  1.00  0.00     0.210 C 
ENDBRANCH  30  33
ENDBRANCH  25  27
ENDBRANCH   2  21
TORSDOF 8
ENDMDL
MODEL 10
REMARK VINA RESULT:      -7.4      4.209     11.738
REMARK  8 active torsions:
REMARK  status: ('A' for Active; 'I' for Inactive)
REMARK    1  A    between atoms: N_4  and  C_5 
REMARK    2  A    between atoms: C_5  and  C_6 
REMARK    3  A    between atoms: C_11  and  C_12 
REMARK    4  A    between atoms: C_12  and  C_13 
REMARK       I    between atoms: C_13  and  N_14 
REMARK    5  A    between atoms: N_14  and  N_15 
REMARK       I    between atoms: N_15  and  C_16 
REMARK    6  A    between atoms: C_16  and  C_17 
REMARK    7  A    between atoms: C_21  and  C_22 
REMARK    8  A    between atoms: C_25  and  O_26 
ROOT
HETATM    1  N   UNL     1      -5.099   5.150 -33.189  1.00  0.00    -0.262 N 
HETATM    2  C   UNL     1      -4.030   5.686 -33.874  1.00  0.00     0.288 C 
HETATM    3  O   UNL     1      -3.905   5.546 -35.090  1.00  0.00    -0.264 OA
HETATM    4  H   UNL     1      -5.235   5.234 -32.186  1.00  0.00     0.190 HD
ENDROOT
BRANCH   1   5
HETATM    5  N   UNL     1      -6.024   4.367 -33.883  1.00  0.00    -0.267 N 
HETATM    6  C   UNL     1      -6.811   3.487 -33.170  1.00  0.00     0.240 C 
HETATM    7  O   UNL     1      -6.754   3.398 -31.942  1.00  0.00    -0.272 OA
HETATM    8  H   UNL     1      -6.060   4.481 -34.894  1.00  0.00     0.190 HD
BRANCH   6   9
HETATM    9  C   UNL     1      -7.705   2.614 -34.026  1.00  0.00     0.147 C 
BRANCH   9  10
HETATM   10  C   UNL     1      -9.155   2.888 -33.804  1.00  0.00     0.001 A 
HETATM   11  C   UNL     1      -9.866   4.090 -34.067  1.00  0.00     0.059 A 
HETATM   12  C   UNL     1      -9.356   5.380 -34.596  1.00  0.00     0.073 C 
HETATM   13  N   UNL     1     -11.161   3.970 -33.774  1.00  0.00    -0.177 NA
HETATM   14  N   UNL     1     -11.304   2.697 -33.367  1.00  0.00    -0.273 N 
HETATM   15  C   UNL     1     -10.115   2.010 -33.323  1.00  0.00     0.035 A 
HETATM   16  C   UNL     1      -9.980   0.598 -32.878  1.00  0.00     0.070 C 
BRANCH  14  17
HETATM   17  C   UNL     1     -12.645   2.225 -33.061  1.00  0.00     0.155 C 
BRANCH  17  18
HETATM   18  C   UNL     1     -13.322   1.501 -34.239  1.00  0.00    -0.003 C 
HETATM   19  C   UNL     1     -12.515   1.631 -35.532  1.00  0.00     0.011 C 
HETATM   20  C   UNL     1     -13.517   0.022 -33.897  1.00  0.00     0.011 C 
ENDBRANCH  17  18
ENDBRANCH  14  17
ENDBRANCH   9  10
ENDBRANCH   6   9
ENDBRANCH   1   5
BRANCH   2  21
HETATM   21  C   UNL     1      -3.078   6.404 -33.074  1.00  0.00     0.121 A 
HETATM   22  N   UNL     1      -2.175   7.265 -33.630  1.00  0.00    -0.272 N 
HETATM   23  H   UNL     1      -2.076   7.493 -34.614  1.00  0.00     0.189 HD
HETATM   24  N   UNL     1      -1.354   7.847 -32.745  1.00  0.00    -0.174 NA
HETATM   25  C   UNL     1      -1.719   7.344 -31.554  1.00  0.00     0.089 A 
HETATM   26  C   UNL     1      -2.806   6.438 -31.721  1.00  0.00     0.071 A 
BRANCH  25  27
HETATM   27  C   UNL     1      -1.037   7.730 -30.312  1.00  0.00    -0.005 A 
HETATM   28  C   UNL     1      -1.600   8.691 -29.460  1.00  0.00     0.016 A 
HETATM   29  C   UNL     1      -0.960   9.058 -28.273  1.00  0.00     0.037 A 
HETATM   30  C   UNL     1       0.254   8.477 -27.908  1.00  0.00     0.068 A 
HETATM   31  C   UNL     1       0.829   7.527 -28.751  1.00  0.00     0.037 A 
HETATM   32  C   UNL     1       0.188   7.157 -29.943  1.00  0.00     0.016 A 
BRANCH  30  33
HETATM   33  O   UNL     1       0.771   8.921 -26.724  1.00  0.00    -0.356 OA
HETATM   34  C   UNL     1       1.890   8.213 -26.205  1.00  0.00     0.210 C 
ENDBRANCH  30  33
ENDBRANCH  25  27
ENDBRANCH   2  21
TORSDOF 8
ENDMDL
