MODEL 1
REMARK VINA RESULT:     -10.6      0.000      0.000
REMARK  6 active torsions:
REMARK  status: ('A' for Active; 'I' for Inactive)
REMARK    1  A    between atoms: C_2  and  O_3 
REMARK    2  A    between atoms: C_2  and  C_4 
REMARK    3  A    between atoms: C_6  and  N_7 
REMARK       I    between atoms: N_7  and  C_8 
REMARK    4  A    between atoms: C_8  and  C_9 
REMARK    5  A    between atoms: C_14  and  C_15 
REMARK    6  A    between atoms: C_23  and  C_24 
ROOT
HETATM    1  C   UNL     1      -4.073   2.229 -32.070  1.00  0.00     0.148 A 
HETATM    2  N   UNL     1      -3.295   2.689 -33.080  1.00  0.00    -0.165 NA
HETATM    3  N   UNL     1      -2.899   3.897 -32.636  1.00  0.00    -0.240 N 
HETATM    4  C   UNL     1      -3.318   4.190 -31.369  1.00  0.00     0.123 A 
HETATM    5  N   UNL     1      -2.905   5.305 -30.736  1.00  0.00    -0.366 N 
HETATM    6  C   UNL     1      -1.820   6.143 -31.243  1.00  0.00     0.118 C 
HETATM    7  C   UNL     1      -1.047   5.449 -32.387  1.00  0.00     0.066 C 
HETATM    8  C   UNL     1      -1.986   4.743 -33.379  1.00  0.00     0.221 C 
HETATM    9  C   UNL     1      -4.131   3.157 -30.994  1.00  0.00     0.089 A 
HETATM   10  H   UNL     1      -3.227   5.524 -29.793  1.00  0.00     0.161 HD
ENDROOT
BRANCH   1  11
HETATM   11  C   UNL     1      -4.722   0.906 -32.110  1.00  0.00     0.276 C 
HETATM   12  N   UNL     1      -4.757   0.383 -33.387  1.00  0.00    -0.322 N 
HETATM   13  H   UNL     1      -4.367   1.004 -34.090  1.00  0.00     0.169 HD
HETATM   14  O   UNL     1      -5.152   0.381 -31.089  1.00  0.00    -0.266 OA
BRANCH  12  15
HETATM   15  C   UNL     1      -5.246  -0.868 -33.801  1.00  0.00     0.035 A 
HETATM   16  C   UNL     1      -4.460  -2.020 -33.880  1.00  0.00     0.039 A 
HETATM   17  C   UNL     1      -5.002  -3.246 -34.311  1.00  0.00    -0.028 A 
HETATM   18  C   UNL     1      -6.359  -3.298 -34.651  1.00  0.00     0.010 A 
HETATM   19  C   UNL     1      -7.150  -2.153 -34.579  1.00  0.00     0.003 A 
HETATM   20  C   UNL     1      -6.595  -0.943 -34.158  1.00  0.00     0.029 A 
BRANCH  17  21
HETATM   21  C   UNL     1      -4.115  -4.472 -34.361  1.00  0.00     0.147 C 
HETATM   22  C   UNL     1      -3.345  -4.655 -33.059  1.00  0.00     0.044 C 
BRANCH  21  23
HETATM   23  O   UNL     1      -4.894  -5.642 -34.609  1.00  0.00    -0.391 OA
HETATM   24  H   UNL     1      -5.033  -5.688 -35.570  1.00  0.00     0.210 HD
ENDBRANCH  21  23
ENDBRANCH  17  21
ENDBRANCH  12  15
ENDBRANCH   1  11
BRANCH   8  25
HETATM   25  C   UNL     1      -2.760   5.709 -34.244  1.00  0.00     0.409 C 
HETATM   26  F   UNL     1      -3.993   5.964 -33.754  1.00  0.00    -0.169 F 
HETATM   27  F   UNL     1      -2.137   6.891 -34.427  1.00  0.00    -0.169 F 
HETATM   28  F   UNL     1      -2.940   5.171 -35.479  1.00  0.00    -0.169 F 
ENDBRANCH   8  25
BRANCH   6  29
HETATM   29  C   UNL     1      -0.907   6.490 -30.076  1.00  0.00    -0.035 A 
HETATM   30  C   UNL     1      -0.851   7.802 -29.566  1.00  0.00     0.012 A 
HETATM   31  C   UNL     1       0.012   8.126 -28.521  1.00  0.00     0.043 A 
HETATM   32  C   UNL     1       0.831   7.142 -27.983  1.00  0.00     0.116 A 
HETATM   33  F   UNL     1       1.669   7.453 -26.986  1.00  0.00    -0.206 F 
HETATM   34  C   UNL     1       0.800   5.841 -28.472  1.00  0.00     0.043 A 
HETATM   35  C   UNL     1      -0.067   5.512 -29.517  1.00  0.00     0.012 A 
ENDBRANCH   6  29
TORSDOF 6
ENDMDL
MODEL 2
REMARK VINA RESULT:     -10.0      1.455      2.121
REMARK  6 active torsions:
REMARK  status: ('A' for Active; 'I' for Inactive)
REMARK    1  A    between atoms: C_2  and  O_3 
REMARK    2  A    between atoms: C_2  and  C_4 
REMARK    3  A    between atoms: C_6  and  N_7 
REMARK       I    between atoms: N_7  and  C_8 
REMARK    4  A    between atoms: C_8  and  C_9 
REMARK    5  A    between atoms: C_14  and  C_15 
REMARK    6  A    between atoms: C_23  and  C_24 
ROOT
HETATM    1  C   UNL     1      -3.551   2.881 -31.983  1.00  0.00     0.148 A 
HETATM    2  N   UNL     1      -2.495   3.263 -32.741  1.00  0.00    -0.165 NA
HETATM    3  N   UNL     1      -2.200   4.487 -32.262  1.00  0.00    -0.240 N 
HETATM    4  C   UNL     1      -2.959   4.863 -31.190  1.00  0.00     0.123 A 
HETATM    5  N   UNL     1      -2.708   6.004 -30.520  1.00  0.00    -0.366 N 
HETATM    6  C   UNL     1      -1.491   6.787 -30.727  1.00  0.00     0.118 C 
HETATM    7  C   UNL     1      -0.444   6.010 -31.557  1.00  0.00     0.066 C 
HETATM    8  C   UNL     1      -1.078   5.267 -32.744  1.00  0.00     0.221 C 
HETATM    9  C   UNL     1      -3.885   3.872 -31.019  1.00  0.00     0.089 A 
HETATM   10  H   UNL     1      -3.282   6.286 -29.726  1.00  0.00     0.161 HD
ENDROOT
BRANCH   1  11
HETATM   11  C   UNL     1      -4.210   1.572 -32.146  1.00  0.00     0.276 C 
HETATM   12  N   UNL     1      -3.328   0.594 -32.561  1.00  0.00    -0.322 N 
HETATM   13  H   UNL     1      -2.387   0.939 -32.722  1.00  0.00     0.169 HD
HETATM   14  O   UNL     1      -5.405   1.433 -31.913  1.00  0.00    -0.266 OA
BRANCH  12  15
HETATM   15  C   UNL     1      -3.581  -0.772 -32.770  1.00  0.00     0.035 A 
HETATM   16  C   UNL     1      -4.452  -1.259 -33.748  1.00  0.00     0.039 A 
HETATM   17  C   UNL     1      -4.675  -2.640 -33.906  1.00  0.00    -0.028 A 
HETATM   18  C   UNL     1      -3.994  -3.531 -33.066  1.00  0.00     0.010 A 
HETATM   19  C   UNL     1      -3.127  -3.054 -32.085  1.00  0.00     0.003 A 
HETATM   20  C   UNL     1      -2.924  -1.681 -31.935  1.00  0.00     0.029 A 
BRANCH  17  21
HETATM   21  C   UNL     1      -5.611  -3.120 -34.993  1.00  0.00     0.147 C 
HETATM   22  C   UNL     1      -5.814  -4.630 -34.927  1.00  0.00     0.044 C 
BRANCH  21  23
HETATM   23  O   UNL     1      -6.879  -2.476 -34.882  1.00  0.00    -0.391 OA
HETATM   24  H   UNL     1      -7.346  -2.627 -35.721  1.00  0.00     0.210 HD
ENDBRANCH  21  23
ENDBRANCH  17  21
ENDBRANCH  12  15
ENDBRANCH   1  11
BRANCH   8  25
HETATM   25  C   UNL     1      -1.528   6.197 -33.846  1.00  0.00     0.409 C 
HETATM   26  F   UNL     1      -1.317   5.680 -35.076  1.00  0.00    -0.169 F 
HETATM   27  F   UNL     1      -2.829   6.546 -33.763  1.00  0.00    -0.169 F 
HETATM   28  F   UNL     1      -0.815   7.353 -33.787  1.00  0.00    -0.169 F 
ENDBRANCH   8  25
BRANCH   6  29
HETATM   29  C   UNL     1      -0.946   7.182 -29.363  1.00  0.00    -0.035 A 
HETATM   30  C   UNL     1      -1.806   7.335 -28.256  1.00  0.00     0.012 A 
HETATM   31  C   UNL     1      -1.310   7.732 -27.015  1.00  0.00     0.043 A 
HETATM   32  C   UNL     1       0.048   7.986 -26.873  1.00  0.00     0.116 A 
HETATM   33  F   UNL     1       0.525   8.378 -25.686  1.00  0.00    -0.206 F 
HETATM   34  C   UNL     1       0.916   7.849 -27.950  1.00  0.00     0.043 A 
HETATM   35  C   UNL     1       0.423   7.447 -29.194  1.00  0.00     0.012 A 
ENDBRANCH   6  29
TORSDOF 6
ENDMDL
MODEL 3
REMARK VINA RESULT:     -10.0      1.397      1.819
REMARK  6 active torsions:
REMARK  status: ('A' for Active; 'I' for Inactive)
REMARK    1  A    between atoms: C_2  and  O_3 
REMARK    2  A    between atoms: C_2  and  C_4 
REMARK    3  A    between atoms: C_6  and  N_7 
REMARK       I    between atoms: N_7  and  C_8 
REMARK    4  A    between atoms: C_8  and  C_9 
REMARK    5  A    between atoms: C_14  and  C_15 
REMARK    6  A    between atoms: C_23  and  C_24 
ROOT
HETATM    1  C   UNL     1      -3.990   3.344 -31.836  1.00  0.00     0.148 A 
HETATM    2  N   UNL     1      -2.865   3.511 -32.573  1.00  0.00    -0.165 NA
HETATM    3  N   UNL     1      -2.367   4.675 -32.113  1.00  0.00    -0.240 N 
HETATM    4  C   UNL     1      -3.071   5.209 -31.072  1.00  0.00     0.123 A 
HETATM    5  N   UNL     1      -2.634   6.305 -30.421  1.00  0.00    -0.366 N 
HETATM    6  C   UNL     1      -1.292   6.851 -30.612  1.00  0.00     0.118 C 
HETATM    7  C   UNL     1      -0.382   5.878 -31.395  1.00  0.00     0.066 C 
HETATM    8  C   UNL     1      -1.112   5.228 -32.582  1.00  0.00     0.221 C 
HETATM    9  C   UNL     1      -4.163   4.405 -30.905  1.00  0.00     0.089 A 
HETATM   10  H   UNL     1      -3.167   6.706 -29.650  1.00  0.00     0.161 HD
ENDROOT
BRANCH   1  11
HETATM   11  C   UNL     1      -4.869   2.171 -31.987  1.00  0.00     0.276 C 
HETATM   12  N   UNL     1      -5.106   1.867 -33.313  1.00  0.00    -0.322 N 
HETATM   13  H   UNL     1      -4.671   2.516 -33.962  1.00  0.00     0.169 HD
HETATM   14  O   UNL     1      -5.300   1.572 -31.008  1.00  0.00    -0.266 OA
BRANCH  12  15
HETATM   15  C   UNL     1      -5.847   0.795 -33.840  1.00  0.00     0.035 A 
HETATM   16  C   UNL     1      -5.411  -0.532 -33.821  1.00  0.00     0.039 A 
HETATM   17  C   UNL     1      -6.193  -1.565 -34.373  1.00  0.00    -0.028 A 
HETATM   18  C   UNL     1      -7.433  -1.242 -34.937  1.00  0.00     0.010 A 
HETATM   19  C   UNL     1      -7.874   0.080 -34.964  1.00  0.00     0.003 A 
HETATM   20  C   UNL     1      -7.083   1.095 -34.420  1.00  0.00     0.029 A 
BRANCH  17  21
HETATM   21  C   UNL     1      -5.688  -2.990 -34.310  1.00  0.00     0.147 C 
HETATM   22  C   UNL     1      -6.636  -3.949 -35.021  1.00  0.00     0.044 C 
BRANCH  21  23
HETATM   23  O   UNL     1      -4.395  -3.090 -34.906  1.00  0.00    -0.391 OA
HETATM   24  H   UNL     1      -4.297  -2.322 -35.494  1.00  0.00     0.210 HD
ENDBRANCH  21  23
ENDBRANCH  17  21
ENDBRANCH  12  15
ENDBRANCH   1  11
BRANCH   8  25
HETATM   25  C   UNL     1      -1.362   6.193 -33.717  1.00  0.00     0.409 C 
HETATM   26  F   UNL     1      -2.656   6.572 -33.795  1.00  0.00    -0.169 F 
HETATM   27  F   UNL     1      -0.609   7.310 -33.653  1.00  0.00    -0.169 F 
HETATM   28  F   UNL     1      -1.064   5.593 -34.899  1.00  0.00    -0.169 F 
ENDBRANCH   8  25
BRANCH   6  29
HETATM   29  C   UNL     1      -0.717   7.180 -29.242  1.00  0.00    -0.035 A 
HETATM   30  C   UNL     1      -1.525   7.139 -28.089  1.00  0.00     0.012 A 
HETATM   31  C   UNL     1      -1.006   7.475 -26.839  1.00  0.00     0.043 A 
HETATM   32  C   UNL     1       0.324   7.861 -26.736  1.00  0.00     0.116 A 
HETATM   33  F   UNL     1       0.822   8.195 -25.539  1.00  0.00    -0.206 F 
HETATM   34  C   UNL     1       1.141   7.916 -27.859  1.00  0.00     0.043 A 
HETATM   35  C   UNL     1       0.624   7.576 -29.111  1.00  0.00     0.012 A 
ENDBRANCH   6  29
TORSDOF 6
ENDMDL
MODEL 4
REMARK VINA RESULT:      -9.9      4.028      9.757
REMARK  6 active torsions:
REMARK  status: ('A' for Active; 'I' for Inactive)
REMARK    1  A    between atoms: C_2  and  O_3 
REMARK    2  A    between atoms: C_2  and  C_4 
REMARK    3  A    between atoms: C_6  and  N_7 
REMARK       I    between atoms: N_7  and  C_8 
REMARK    4  A    between atoms: C_8  and  C_9 
REMARK    5  A    between atoms: C_14  and  C_15 
REMARK    6  A    between atoms: C_23  and  C_24 
ROOT
HETATM    1  C   UNL     1      -4.984   3.392 -31.799  1.00  0.00     0.148 A 
HETATM    2  N   UNL     1      -6.015   2.892 -31.075  1.00  0.00    -0.165 NA
HETATM    3  N   UNL     1      -6.508   1.924 -31.872  1.00  0.00    -0.240 N 
HETATM    4  C   UNL     1      -5.795   1.732 -33.021  1.00  0.00     0.123 A 
HETATM    5  N   UNL     1      -6.086   0.723 -33.864  1.00  0.00    -0.366 N 
HETATM    6  C   UNL     1      -7.000  -0.361 -33.509  1.00  0.00     0.118 C 
HETATM    7  C   UNL     1      -7.340  -0.354 -32.002  1.00  0.00     0.066 C 
HETATM    8  C   UNL     1      -7.604   1.065 -31.471  1.00  0.00     0.221 C 
HETATM    9  C   UNL     1      -4.836   2.706 -33.036  1.00  0.00     0.089 A 
HETATM   10  H   UNL     1      -5.557   0.588 -34.725  1.00  0.00     0.161 HD
ENDROOT
BRANCH   1  11
HETATM   11  C   UNL     1      -4.125   4.484 -31.304  1.00  0.00     0.276 C 
HETATM   12  N   UNL     1      -2.820   4.354 -31.737  1.00  0.00    -0.322 N 
HETATM   13  H   UNL     1      -2.657   3.517 -32.289  1.00  0.00     0.169 HD
HETATM   14  O   UNL     1      -4.580   5.379 -30.602  1.00  0.00    -0.266 OA
BRANCH  12  15
HETATM   15  C   UNL     1      -1.740   5.224 -31.513  1.00  0.00     0.035 A 
HETATM   16  C   UNL     1      -1.076   5.336 -30.288  1.00  0.00     0.039 A 
HETATM   17  C   UNL     1      -0.004   6.233 -30.118  1.00  0.00    -0.028 A 
HETATM   18  C   UNL     1       0.400   7.012 -31.209  1.00  0.00     0.010 A 
HETATM   19  C   UNL     1      -0.259   6.911 -32.433  1.00  0.00     0.003 A 
HETATM   20  C   UNL     1      -1.326   6.023 -32.583  1.00  0.00     0.029 A 
BRANCH  17  21
HETATM   21  C   UNL     1       0.698   6.303 -28.779  1.00  0.00     0.147 C 
HETATM   22  C   UNL     1       0.925   7.746 -28.344  1.00  0.00     0.044 C 
BRANCH  21  23
HETATM   23  O   UNL     1      -0.067   5.631 -27.778  1.00  0.00    -0.391 OA
HETATM   24  H   UNL     1      -0.819   5.215 -28.231  1.00  0.00     0.210 HD
ENDBRANCH  21  23
ENDBRANCH  17  21
ENDBRANCH  12  15
ENDBRANCH   1  11
BRANCH   8  25
HETATM   25  C   UNL     1      -8.916   1.637 -31.955  1.00  0.00     0.409 C 
HETATM   26  F   UNL     1      -8.755   2.490 -32.990  1.00  0.00    -0.169 F 
HETATM   27  F   UNL     1      -9.811   0.700 -32.328  1.00  0.00    -0.169 F 
HETATM   28  F   UNL     1      -9.497   2.351 -30.954  1.00  0.00    -0.169 F 
ENDBRANCH   8  25
BRANCH   6  29
HETATM   29  C   UNL     1      -6.364  -1.675 -33.937  1.00  0.00    -0.035 A 
HETATM   30  C   UNL     1      -7.146  -2.721 -34.465  1.00  0.00     0.012 A 
HETATM   31  C   UNL     1      -6.567  -3.937 -34.823  1.00  0.00     0.043 A 
HETATM   32  C   UNL     1      -5.201  -4.119 -34.648  1.00  0.00     0.116 A 
HETATM   33  F   UNL     1      -4.644  -5.290 -34.981  1.00  0.00    -0.206 F 
HETATM   34  C   UNL     1      -4.407  -3.105 -34.123  1.00  0.00     0.043 A 
HETATM   35  C   UNL     1      -4.985  -1.884 -33.768  1.00  0.00     0.012 A 
ENDBRANCH   6  29
TORSDOF 6
ENDMDL
MODEL 5
REMARK VINA RESULT:      -9.5      6.783     10.309
REMARK  6 active torsions:
REMARK  status: ('A' for Active; 'I' for Inactive)
REMARK    1  A    between atoms: C_2  and  O_3 
REMARK    2  A    between atoms: C_2  and  C_4 
REMARK    3  A    between atoms: C_6  and  N_7 
REMARK       I    between atoms: N_7  and  C_8 
REMARK    4  A    between atoms: C_8  and  C_9 
REMARK    5  A    between atoms: C_14  and  C_15 
REMARK    6  A    between atoms: C_23  and  C_24 
ROOT
HETATM    1  C   UNL     1     -10.157   2.192 -33.451  1.00  0.00     0.148 A 
HETATM    2  N   UNL     1      -9.040   2.800 -33.919  1.00  0.00    -0.165 NA
HETATM    3  N   UNL     1      -8.061   1.935 -33.592  1.00  0.00    -0.240 N 
HETATM    4  C   UNL     1      -8.507   0.780 -33.016  1.00  0.00     0.123 A 
HETATM    5  N   UNL     1      -7.665  -0.236 -32.742  1.00  0.00    -0.366 N 
HETATM    6  C   UNL     1      -6.294  -0.279 -33.244  1.00  0.00     0.118 C 
HETATM    7  C   UNL     1      -6.045   0.796 -34.326  1.00  0.00     0.066 C 
HETATM    8  C   UNL     1      -6.674   2.149 -33.957  1.00  0.00     0.221 C 
HETATM    9  C   UNL     1      -9.855   0.937 -32.854  1.00  0.00     0.089 A 
HETATM   10  H   UNL     1      -8.001  -1.094 -32.304  1.00  0.00     0.161 HD
ENDROOT
BRANCH   1  11
HETATM   11  C   UNL     1     -11.501   2.778 -33.603  1.00  0.00     0.276 C 
HETATM   12  N   UNL     1     -12.147   2.918 -32.391  1.00  0.00    -0.322 N 
HETATM   13  H   UNL     1     -11.612   2.563 -31.603  1.00  0.00     0.169 HD
HETATM   14  O   UNL     1     -11.933   3.094 -34.705  1.00  0.00    -0.266 OA
BRANCH  12  15
HETATM   15  C   UNL     1     -13.409   3.482 -32.138  1.00  0.00     0.035 A 
HETATM   16  C   UNL     1     -14.612   2.784 -32.277  1.00  0.00     0.039 A 
HETATM   17  C   UNL     1     -15.850   3.404 -32.019  1.00  0.00    -0.028 A 
HETATM   18  C   UNL     1     -15.858   4.742 -31.604  1.00  0.00     0.010 A 
HETATM   19  C   UNL     1     -14.663   5.447 -31.467  1.00  0.00     0.003 A 
HETATM   20  C   UNL     1     -13.444   4.820 -31.736  1.00  0.00     0.029 A 
BRANCH  17  21
HETATM   21  C   UNL     1     -17.124   2.602 -32.163  1.00  0.00     0.147 C 
HETATM   22  C   UNL     1     -18.356   3.461 -31.904  1.00  0.00     0.044 C 
BRANCH  21  23
HETATM   23  O   UNL     1     -17.217   2.041 -33.472  1.00  0.00    -0.391 OA
HETATM   24  H   UNL     1     -18.163   1.917 -33.658  1.00  0.00     0.210 HD
ENDBRANCH  21  23
ENDBRANCH  17  21
ENDBRANCH  12  15
ENDBRANCH   1  11
BRANCH   8  25
HETATM   25  C   UNL     1      -5.944   2.849 -32.835  1.00  0.00     0.409 C 
HETATM   26  F   UNL     1      -5.979   4.194 -32.958  1.00  0.00    -0.169 F 
HETATM   27  F   UNL     1      -6.408   2.535 -31.608  1.00  0.00    -0.169 F 
HETATM   28  F   UNL     1      -4.632   2.494 -32.854  1.00  0.00    -0.169 F 
ENDBRANCH   8  25
BRANCH   6  29
HETATM   29  C   UNL     1      -6.029  -1.681 -33.773  1.00  0.00    -0.035 A 
HETATM   30  C   UNL     1      -4.727  -2.220 -33.774  1.00  0.00     0.012 A 
HETATM   31  C   UNL     1      -4.480  -3.491 -34.291  1.00  0.00     0.043 A 
HETATM   32  C   UNL     1      -5.532  -4.229 -34.818  1.00  0.00     0.116 A 
HETATM   33  F   UNL     1      -5.295  -5.445 -35.325  1.00  0.00    -0.206 F 
HETATM   34  C   UNL     1      -6.825  -3.718 -34.834  1.00  0.00     0.043 A 
HETATM   35  C   UNL     1      -7.076  -2.447 -34.312  1.00  0.00     0.012 A 
ENDBRANCH   6  29
TORSDOF 6
ENDMDL
MODEL 6
REMARK VINA RESULT:      -9.5      4.148      9.887
REMARK  6 active torsions:
REMARK  status: ('A' for Active; 'I' for Inactive)
REMARK    1  A    between atoms: C_2  and  O_3 
REMARK    2  A    between atoms: C_2  and  C_4 
REMARK    3  A    between atoms: C_6  and  N_7 
REMARK       I    between atoms: N_7  and  C_8 
REMARK    4  A    between atoms: C_8  and  C_9 
REMARK    5  A    between atoms: C_14  and  C_15 
REMARK    6  A    between atoms: C_23  and  C_24 
ROOT
HETATM    1  C   UNL     1      -4.889   4.068 -31.746  1.00  0.00     0.148 A 
HETATM    2  N   UNL     1      -5.790   3.552 -30.875  1.00  0.00    -0.165 NA
HETATM    3  N   UNL     1      -6.349   2.544 -31.573  1.00  0.00    -0.240 N 
HETATM    4  C   UNL     1      -5.793   2.345 -32.804  1.00  0.00     0.123 A 
HETATM    5  N   UNL     1      -6.157   1.301 -33.575  1.00  0.00    -0.366 N 
HETATM    6  C   UNL     1      -6.970   0.196 -33.071  1.00  0.00     0.118 C 
HETATM    7  C   UNL     1      -7.100   0.234 -31.532  1.00  0.00     0.066 C 
HETATM    8  C   UNL     1      -7.345   1.657 -31.004  1.00  0.00     0.221 C 
HETATM    9  C   UNL     1      -4.885   3.352 -32.975  1.00  0.00     0.089 A 
HETATM   10  H   UNL     1      -5.746   1.160 -34.497  1.00  0.00     0.161 HD
ENDROOT
BRANCH   1  11
HETATM   11  C   UNL     1      -4.014   5.203 -31.401  1.00  0.00     0.276 C 
HETATM   12  N   UNL     1      -2.717   4.803 -31.153  1.00  0.00    -0.322 N 
HETATM   13  H   UNL     1      -2.585   3.797 -31.211  1.00  0.00     0.169 HD
HETATM   14  O   UNL     1      -4.449   6.349 -31.366  1.00  0.00    -0.266 OA
BRANCH  12  15
HETATM   15  C   UNL     1      -1.603   5.604 -30.850  1.00  0.00     0.035 A 
HETATM   16  C   UNL     1      -1.525   6.430 -29.725  1.00  0.00     0.039 A 
HETATM   17  C   UNL     1      -0.386   7.220 -29.476  1.00  0.00    -0.028 A 
HETATM   18  C   UNL     1       0.686   7.155 -30.375  1.00  0.00     0.010 A 
HETATM   19  C   UNL     1       0.615   6.338 -31.502  1.00  0.00     0.003 A 
HETATM   20  C   UNL     1      -0.525   5.568 -31.739  1.00  0.00     0.029 A 
BRANCH  17  21
HETATM   21  C   UNL     1      -0.340   8.082 -28.234  1.00  0.00     0.147 C 
HETATM   22  C   UNL     1       1.094   8.422 -27.845  1.00  0.00     0.044 C 
BRANCH  21  23
HETATM   23  O   UNL     1      -1.065   9.295 -28.440  1.00  0.00    -0.391 OA
HETATM   24  H   UNL     1      -1.540   9.481 -27.613  1.00  0.00     0.210 HD
ENDBRANCH  21  23
ENDBRANCH  17  21
ENDBRANCH  12  15
ENDBRANCH   1  11
BRANCH   8  25
HETATM   25  C   UNL     1      -8.732   2.168 -31.315  1.00  0.00     0.409 C 
HETATM   26  F   UNL     1      -9.312   2.765 -30.251  1.00  0.00    -0.169 F 
HETATM   27  F   UNL     1      -8.771   3.036 -32.347  1.00  0.00    -0.169 F 
HETATM   28  F   UNL     1      -9.535   1.126 -31.657  1.00  0.00    -0.169 F 
ENDBRANCH   8  25
BRANCH   6  29
HETATM   29  C   UNL     1      -6.346  -1.106 -33.551  1.00  0.00    -0.035 A 
HETATM   30  C   UNL     1      -4.973  -1.362 -33.367  1.00  0.00     0.012 A 
HETATM   31  C   UNL     1      -4.396  -2.540 -33.839  1.00  0.00     0.043 A 
HETATM   32  C   UNL     1      -5.186  -3.468 -34.504  1.00  0.00     0.116 A 
HETATM   33  F   UNL     1      -4.632  -4.595 -34.968  1.00  0.00    -0.206 F 
HETATM   34  C   UNL     1      -6.543  -3.237 -34.705  1.00  0.00     0.043 A 
HETATM   35  C   UNL     1      -7.124  -2.059 -34.229  1.00  0.00     0.012 A 
ENDBRANCH   6  29
TORSDOF 6
ENDMDL
MODEL 7
REMARK VINA RESULT:      -9.5      4.743     10.181
REMARK  6 active torsions:
REMARK  status: ('A' for Active; 'I' for Inactive)
REMARK    1  A    between atoms: C_2  and  O_3 
REMARK    2  A    between atoms: C_2  and  C_4 
REMARK    3  A    between atoms: C_6  and  N_7 
REMARK       I    between atoms: N_7  and  C_8 
REMARK    4  A    between atoms: C_8  and  C_9 
REMARK    5  A    between atoms: C_14  and  C_15 
REMARK    6  A    between atoms: C_23  and  C_24 
ROOT
HETATM    1  C   UNL     1      -6.162   3.203 -32.310  1.00  0.00     0.148 A 
HETATM    2  N   UNL     1      -5.968   2.329 -33.327  1.00  0.00    -0.165 NA
HETATM    3  N   UNL     1      -7.039   1.517 -33.242  1.00  0.00    -0.240 N 
HETATM    4  C   UNL     1      -7.938   1.880 -32.280  1.00  0.00     0.123 A 
HETATM    5  N   UNL     1      -9.118   1.244 -32.149  1.00  0.00    -0.366 N 
HETATM    6  C   UNL     1      -9.621   0.304 -33.149  1.00  0.00     0.118 C 
HETATM    7  C   UNL     1      -8.798   0.363 -34.456  1.00  0.00     0.066 C 
HETATM    8  C   UNL     1      -7.286   0.447 -34.188  1.00  0.00     0.221 C 
HETATM    9  C   UNL     1      -7.373   2.933 -31.615  1.00  0.00     0.089 A 
HETATM   10  H   UNL     1      -9.783   1.512 -31.424  1.00  0.00     0.161 HD
ENDROOT
BRANCH   1  11
HETATM   11  C   UNL     1      -5.226   4.307 -32.024  1.00  0.00     0.276 C 
HETATM   12  N   UNL     1      -4.010   4.133 -32.654  1.00  0.00    -0.322 N 
HETATM   13  H   UNL     1      -3.945   3.264 -33.177  1.00  0.00     0.169 HD
HETATM   14  O   UNL     1      -5.555   5.246 -31.308  1.00  0.00    -0.266 OA
BRANCH  12  15
HETATM   15  C   UNL     1      -2.902   4.997 -32.657  1.00  0.00     0.035 A 
HETATM   16  C   UNL     1      -1.846   4.907 -31.747  1.00  0.00     0.039 A 
HETATM   17  C   UNL     1      -0.764   5.807 -31.791  1.00  0.00    -0.028 A 
HETATM   18  C   UNL     1      -0.755   6.798 -32.780  1.00  0.00     0.010 A 
HETATM   19  C   UNL     1      -1.806   6.899 -33.690  1.00  0.00     0.003 A 
HETATM   20  C   UNL     1      -2.876   6.003 -33.627  1.00  0.00     0.029 A 
BRANCH  17  21
HETATM   21  C   UNL     1       0.366   5.656 -30.796  1.00  0.00     0.147 C 
HETATM   22  C   UNL     1       0.434   6.846 -29.846  1.00  0.00     0.044 C 
BRANCH  21  23
HETATM   23  O   UNL     1       0.205   4.461 -30.033  1.00  0.00    -0.391 OA
HETATM   24  H   UNL     1      -0.734   4.409 -29.787  1.00  0.00     0.210 HD
ENDBRANCH  21  23
ENDBRANCH  17  21
ENDBRANCH  12  15
ENDBRANCH   1  11
BRANCH   8  25
HETATM   25  C   UNL     1      -6.709  -0.848 -33.668  1.00  0.00     0.409 C 
HETATM   26  F   UNL     1      -6.495  -0.819 -32.335  1.00  0.00    -0.169 F 
HETATM   27  F   UNL     1      -7.470  -1.928 -33.940  1.00  0.00    -0.169 F 
HETATM   28  F   UNL     1      -5.500  -1.073 -34.247  1.00  0.00    -0.169 F 
ENDBRANCH   8  25
BRANCH   6  29
HETATM   29  C   UNL     1     -11.089   0.617 -33.395  1.00  0.00    -0.035 A 
HETATM   30  C   UNL     1     -12.061  -0.403 -33.368  1.00  0.00     0.012 A 
HETATM   31  C   UNL     1     -13.401  -0.120 -33.629  1.00  0.00     0.043 A 
HETATM   32  C   UNL     1     -13.778   1.183 -33.926  1.00  0.00     0.116 A 
HETATM   33  F   UNL     1     -15.062   1.455 -34.187  1.00  0.00    -0.206 F 
HETATM   34  C   UNL     1     -12.838   2.207 -33.965  1.00  0.00     0.043 A 
HETATM   35  C   UNL     1     -11.495   1.927 -33.700  1.00  0.00     0.012 A 
ENDBRANCH   6  29
TORSDOF 6
ENDMDL
MODEL 8
REMARK VINA RESULT:      -9.3      1.887      2.288
REMARK  6 active torsions:
REMARK  status: ('A' for Active; 'I' for Inactive)
REMARK    1  A    between atoms: C_2  and  O_3 
REMARK    2  A    between atoms: C_2  and  C_4 
REMARK    3  A    between atoms: C_6  and  N_7 
REMARK       I    between atoms: N_7  and  C_8 
REMARK    4  A    between atoms: C_8  and  C_9 
REMARK    5  A    between atoms: C_14  and  C_15 
REMARK    6  A    between atoms: C_23  and  C_24 
ROOT
HETATM    1  C   UNL     1      -5.419   2.046 -31.698  1.00  0.00     0.148 A 
HETATM    2  N   UNL     1      -5.625   2.963 -32.675  1.00  0.00    -0.165 NA
HETATM    3  N   UNL     1      -5.251   4.119 -32.094  1.00  0.00    -0.240 N 
HETATM    4  C   UNL     1      -4.745   3.971 -30.834  1.00  0.00     0.123 A 
HETATM    5  N   UNL     1      -4.215   5.014 -30.166  1.00  0.00    -0.366 N 
HETATM    6  C   UNL     1      -3.926   6.295 -30.808  1.00  0.00     0.118 C 
HETATM    7  C   UNL     1      -4.026   6.201 -32.347  1.00  0.00     0.066 C 
HETATM    8  C   UNL     1      -5.246   5.384 -32.802  1.00  0.00     0.221 C 
HETATM    9  C   UNL     1      -4.895   2.649 -30.522  1.00  0.00     0.089 A 
HETATM   10  H   UNL     1      -3.846   4.902 -29.223  1.00  0.00     0.161 HD
ENDROOT
BRANCH   1  11
HETATM   11  C   UNL     1      -5.682   0.609 -31.892  1.00  0.00     0.276 C 
HETATM   12  N   UNL     1      -5.559   0.232 -33.215  1.00  0.00    -0.322 N 
HETATM   13  H   UNL     1      -5.347   1.005 -33.839  1.00  0.00     0.169 HD
HETATM   14  O   UNL     1      -5.963  -0.117 -30.946  1.00  0.00    -0.266 OA
BRANCH  12  15
HETATM   15  C   UNL     1      -5.683  -1.054 -33.768  1.00  0.00     0.035 A 
HETATM   16  C   UNL     1      -4.706  -2.046 -33.651  1.00  0.00     0.039 A 
HETATM   17  C   UNL     1      -4.880  -3.315 -34.235  1.00  0.00    -0.028 A 
HETATM   18  C   UNL     1      -6.067  -3.577 -34.931  1.00  0.00     0.010 A 
HETATM   19  C   UNL     1      -7.046  -2.593 -35.056  1.00  0.00     0.003 A 
HETATM   20  C   UNL     1      -6.853  -1.336 -34.479  1.00  0.00     0.029 A 
BRANCH  17  21
HETATM   21  C   UNL     1      -3.803  -4.363 -34.064  1.00  0.00     0.147 C 
HETATM   22  C   UNL     1      -3.189  -4.309 -32.670  1.00  0.00     0.044 C 
BRANCH  21  23
HETATM   23  O   UNL     1      -4.335  -5.669 -34.286  1.00  0.00    -0.391 OA
HETATM   24  H   UNL     1      -3.720  -6.125 -34.885  1.00  0.00     0.210 HD
ENDBRANCH  21  23
ENDBRANCH  17  21
ENDBRANCH  12  15
ENDBRANCH   1  11
BRANCH   8  25
HETATM   25  C   UNL     1      -6.553   6.108 -32.580  1.00  0.00     0.409 C 
HETATM   26  F   UNL     1      -7.158   5.738 -31.430  1.00  0.00    -0.169 F 
HETATM   27  F   UNL     1      -6.433   7.451 -32.569  1.00  0.00    -0.169 F 
HETATM   28  F   UNL     1      -7.417   5.806 -33.585  1.00  0.00    -0.169 F 
ENDBRANCH   8  25
BRANCH   6  29
HETATM   29  C   UNL     1      -2.544   6.746 -30.361  1.00  0.00    -0.035 A 
HETATM   30  C   UNL     1      -1.394   6.393 -31.095  1.00  0.00     0.012 A 
HETATM   31  C   UNL     1      -0.125   6.777 -30.664  1.00  0.00     0.043 A 
HETATM   32  C   UNL     1       0.004   7.511 -29.492  1.00  0.00     0.116 A 
HETATM   33  F   UNL     1       1.223   7.871 -29.071  1.00  0.00    -0.206 F 
HETATM   34  C   UNL     1      -1.113   7.867 -28.746  1.00  0.00     0.043 A 
HETATM   35  C   UNL     1      -2.386   7.487 -29.177  1.00  0.00     0.012 A 
ENDBRANCH   6  29
TORSDOF 6
ENDMDL
MODEL 9
REMARK VINA RESULT:      -9.2      6.785      9.590
REMARK  6 active torsions:
REMARK  status: ('A' for Active; 'I' for Inactive)
REMARK    1  A    between atoms: C_2  and  O_3 
REMARK    2  A    between atoms: C_2  and  C_4 
REMARK    3  A    between atoms: C_6  and  N_7 
REMARK       I    between atoms: N_7  and  C_8 
REMARK    4  A    between atoms: C_8  and  C_9 
REMARK    5  A    between atoms: C_14  and  C_15 
REMARK    6  A    between atoms: C_23  and  C_24 
ROOT
HETATM    1  C   UNL     1      -9.459   1.115 -33.011  1.00  0.00     0.148 A 
HETATM    2  N   UNL     1     -10.405   0.612 -33.841  1.00  0.00    -0.165 NA
HETATM    3  N   UNL     1     -11.284   1.626 -33.954  1.00  0.00    -0.240 N 
HETATM    4  C   UNL     1     -10.903   2.768 -33.308  1.00  0.00     0.123 A 
HETATM    5  N   UNL     1     -11.612   3.908 -33.426  1.00  0.00    -0.366 N 
HETATM    6  C   UNL     1     -12.673   4.076 -34.416  1.00  0.00     0.118 C 
HETATM    7  C   UNL     1     -12.672   2.935 -35.458  1.00  0.00     0.066 C 
HETATM    8  C   UNL     1     -12.451   1.558 -34.811  1.00  0.00     0.221 C 
HETATM    9  C   UNL     1      -9.755   2.454 -32.636  1.00  0.00     0.089 A 
HETATM   10  H   UNL     1     -11.329   4.756 -32.935  1.00  0.00     0.161 HD
ENDROOT
BRANCH   1  11
HETATM   11  C   UNL     1      -8.268   0.345 -32.609  1.00  0.00     0.276 C 
HETATM   12  N   UNL     1      -7.698  -0.324 -33.673  1.00  0.00    -0.322 N 
HETATM   13  H   UNL     1      -8.209  -0.210 -34.544  1.00  0.00     0.169 HD
HETATM   14  O   UNL     1      -7.874   0.349 -31.448  1.00  0.00    -0.266 OA
BRANCH  12  15
HETATM   15  C   UNL     1      -6.532  -1.109 -33.683  1.00  0.00     0.035 A 
HETATM   16  C   UNL     1      -5.386  -0.803 -32.945  1.00  0.00     0.039 A 
HETATM   17  C   UNL     1      -4.242  -1.622 -33.001  1.00  0.00    -0.028 A 
HETATM   18  C   UNL     1      -4.273  -2.766 -33.807  1.00  0.00     0.010 A 
HETATM   19  C   UNL     1      -5.410  -3.077 -34.551  1.00  0.00     0.003 A 
HETATM   20  C   UNL     1      -6.534  -2.250 -34.491  1.00  0.00     0.029 A 
BRANCH  17  21
HETATM   21  C   UNL     1      -3.031  -1.261 -32.167  1.00  0.00     0.147 C 
HETATM   22  C   UNL     1      -3.362  -0.181 -31.144  1.00  0.00     0.044 C 
BRANCH  21  23
HETATM   23  O   UNL     1      -2.534  -2.412 -31.484  1.00  0.00    -0.391 OA
HETATM   24  H   UNL     1      -3.246  -3.073 -31.493  1.00  0.00     0.210 HD
ENDBRANCH  21  23
ENDBRANCH  17  21
ENDBRANCH  12  15
ENDBRANCH   1  11
BRANCH   8  25
HETATM   25  C   UNL     1     -13.647   1.081 -34.021  1.00  0.00     0.409 C 
HETATM   26  F   UNL     1     -13.707   1.637 -32.792  1.00  0.00    -0.169 F 
HETATM   27  F   UNL     1     -14.826   1.308 -34.635  1.00  0.00    -0.169 F 
HETATM   28  F   UNL     1     -13.562  -0.263 -33.833  1.00  0.00    -0.169 F 
ENDBRANCH   8  25
BRANCH   6  29
HETATM   29  C   UNL     1     -12.495   5.437 -35.072  1.00  0.00    -0.035 A 
HETATM   30  C   UNL     1     -13.558   6.055 -35.760  1.00  0.00     0.012 A 
HETATM   31  C   UNL     1     -13.383   7.285 -36.391  1.00  0.00     0.043 A 
HETATM   32  C   UNL     1     -12.141   7.904 -36.346  1.00  0.00     0.116 A 
HETATM   33  F   UNL     1     -11.967   9.080 -36.961  1.00  0.00    -0.206 F 
HETATM   34  C   UNL     1     -11.073   7.313 -35.679  1.00  0.00     0.043 A 
HETATM   35  C   UNL     1     -11.247   6.082 -35.042  1.00  0.00     0.012 A 
ENDBRANCH   6  29
TORSDOF 6
ENDMDL
MODEL 10
REMARK VINA RESULT:      -9.1      2.778      3.719
REMARK  6 active torsions:
REMARK  status: ('A' for Active; 'I' for Inactive)
REMARK    1  A    between atoms: C_2  and  O_3 
REMARK    2  A    between atoms: C_2  and  C_4 
REMARK    3  A    between atoms: C_6  and  N_7 
REMARK       I    between atoms: N_7  and  C_8 
REMARK    4  A    between atoms: C_8  and  C_9 
REMARK    5  A    between atoms: C_14  and  C_15 
REMARK    6  A    between atoms: C_23  and  C_24 
ROOT
HETATM    1  C   UNL     1      -4.097   3.815 -31.813  1.00  0.00     0.148 A 
HETATM    2  N   UNL     1      -2.937   3.862 -32.512  1.00  0.00    -0.165 NA
HETATM    3  N   UNL     1      -2.359   4.995 -32.069  1.00  0.00    -0.240 N 
HETATM    4  C   UNL     1      -3.051   5.621 -31.072  1.00  0.00     0.123 A 
HETATM    5  N   UNL     1      -2.546   6.698 -30.438  1.00  0.00    -0.366 N 
HETATM    6  C   UNL     1      -1.157   7.123 -30.595  1.00  0.00     0.118 C 
HETATM    7  C   UNL     1      -0.306   6.051 -31.313  1.00  0.00     0.066 C 
HETATM    8  C   UNL     1      -1.046   5.426 -32.507  1.00  0.00     0.221 C 
HETATM    9  C   UNL     1      -4.213   4.917 -30.921  1.00  0.00     0.089 A 
HETATM   10  H   UNL     1      -3.070   7.167 -29.700  1.00  0.00     0.161 HD
ENDROOT
BRANCH   1  11
HETATM   11  C   UNL     1      -5.067   2.715 -31.962  1.00  0.00     0.276 C 
HETATM   12  N   UNL     1      -5.814   2.834 -33.116  1.00  0.00    -0.322 N 
HETATM   13  H   UNL     1      -5.603   3.671 -33.651  1.00  0.00     0.169 HD
HETATM   14  O   UNL     1      -5.145   1.822 -31.126  1.00  0.00    -0.266 OA
BRANCH  12  15
HETATM   15  C   UNL     1      -6.790   1.954 -33.615  1.00  0.00     0.035 A 
HETATM   16  C   UNL     1      -8.132   1.982 -33.224  1.00  0.00     0.039 A 
HETATM   17  C   UNL     1      -9.065   1.069 -33.750  1.00  0.00    -0.028 A 
HETATM   18  C   UNL     1      -8.628   0.129 -34.692  1.00  0.00     0.010 A 
HETATM   19  C   UNL     1      -7.291   0.090 -35.084  1.00  0.00     0.003 A 
HETATM   20  C   UNL     1      -6.376   0.998 -34.546  1.00  0.00     0.029 A 
BRANCH  17  21
HETATM   21  C   UNL     1     -10.511   1.152 -33.312  1.00  0.00     0.147 C 
HETATM   22  C   UNL     1     -11.409   1.639 -34.444  1.00  0.00     0.044 C 
BRANCH  21  23
HETATM   23  O   UNL     1     -10.973  -0.124 -32.869  1.00  0.00    -0.391 OA
HETATM   24  H   UNL     1     -11.839  -0.269 -33.285  1.00  0.00     0.210 HD
ENDBRANCH  21  23
ENDBRANCH  17  21
ENDBRANCH  12  15
ENDBRANCH   1  11
BRANCH   8  25
HETATM   25  C   UNL     1      -1.173   6.370 -33.679  1.00  0.00     0.409 C 
HETATM   26  F   UNL     1      -0.370   7.449 -33.560  1.00  0.00    -0.169 F 
HETATM   27  F   UNL     1      -0.916   5.793 -34.870  1.00  0.00    -0.169 F 
HETATM   28  F   UNL     1      -2.446   6.843 -33.746  1.00  0.00    -0.169 F 
ENDBRANCH   8  25
BRANCH   6  29
HETATM   29  C   UNL     1      -0.604   7.448 -29.215  1.00  0.00    -0.035 A 
HETATM   30  C   UNL     1       0.769   7.698 -29.025  1.00  0.00     0.012 A 
HETATM   31  C   UNL     1       1.280   7.961 -27.755  1.00  0.00     0.043 A 
HETATM   32  C   UNL     1       0.421   7.967 -26.663  1.00  0.00     0.116 A 
HETATM   33  F   UNL     1       0.910   8.208 -25.441  1.00  0.00    -0.206 F 
HETATM   34  C   UNL     1      -0.937   7.717 -26.822  1.00  0.00     0.043 A 
HETATM   35  C   UNL     1      -1.452   7.458 -28.095  1.00  0.00     0.012 A 
ENDBRANCH   6  29
TORSDOF 6
ENDMDL
