MODEL 1
REMARK VINA RESULT:      -8.9      0.000      0.000
REMARK  5 active torsions:
REMARK  status: ('A' for Active; 'I' for Inactive)
REMARK    1  A    between atoms: C_5  and  C_6 
REMARK    2  A    between atoms: C_10  and  C_11 
REMARK       I    between atoms: C_11  and  N_12 
REMARK    3  A    between atoms: N_12  and  C_13 
REMARK    4  A    between atoms: C_13  and  C_14 
REMARK    5  A    between atoms: C_14  and  O_15 
ROOT
HETATM    1  C   UNL     1      -5.798   0.521 -32.739  1.00  0.00     0.068 A 
HETATM    2  N   UNL     1      -6.936   0.954 -32.145  1.00  0.00    -0.248 NA
HETATM    3  C   UNL     1      -6.938   2.104 -31.449  1.00  0.00     0.068 A 
HETATM    4  C   UNL     1      -5.803   2.927 -31.318  1.00  0.00     0.008 A 
HETATM    5  C   UNL     1      -4.648   2.488 -31.999  1.00  0.00     0.046 A 
HETATM    6  C   UNL     1      -4.642   1.277 -32.694  1.00  0.00     0.050 A 
HETATM    7  C   UNL     1      -8.120   2.485 -30.828  1.00  0.00     0.032 A 
HETATM    8  C   UNL     1      -8.213   3.647 -30.060  1.00  0.00     0.002 A 
HETATM    9  C   UNL     1      -7.095   4.450 -29.894  1.00  0.00     0.001 A 
HETATM   10  C   UNL     1      -5.896   4.092 -30.510  1.00  0.00     0.015 A 
ENDROOT
BRANCH   5  11
HETATM   11  C   UNL     1      -3.373   3.245 -32.063  1.00  0.00     0.252 C 
HETATM   12  N   UNL     1      -3.260   4.175 -33.072  1.00  0.00    -0.354 N 
HETATM   13  H   UNL     1      -3.994   4.175 -33.772  1.00  0.00     0.162 HD
HETATM   14  O   UNL     1      -2.466   2.956 -31.292  1.00  0.00    -0.268 OA
BRANCH  12  15
HETATM   15  C   UNL     1      -1.982   4.745 -33.497  1.00  0.00     0.154 C 
BRANCH  15  16
HETATM   16  C   UNL     1      -2.071   5.961 -34.441  1.00  0.00     0.132 C 
HETATM   17  C   UNL     1      -1.842   7.260 -33.680  1.00  0.00     0.041 C 
BRANCH  16  18
HETATM   18  O   UNL     1      -3.372   6.053 -35.023  1.00  0.00    -0.394 OA
HETATM   19  H   UNL     1      -3.229   6.120 -35.994  1.00  0.00     0.210 HD
ENDBRANCH  16  18
ENDBRANCH  15  16
ENDBRANCH  12  15
ENDBRANCH   5  11
BRANCH   1  20
HETATM   20  C   UNL     1      -5.879  -0.776 -33.443  1.00  0.00    -0.007 A 
HETATM   21  C   UNL     1      -4.719  -1.516 -33.730  1.00  0.00     0.014 A 
HETATM   22  C   UNL     1      -4.781  -2.756 -34.380  1.00  0.00     0.007 A 
HETATM   23  C   UNL     1      -6.009  -3.287 -34.774  1.00  0.00    -0.062 A 
HETATM   24  C   UNL     1      -6.095  -4.625 -35.446  1.00  0.00     0.048 C 
HETATM   25  C   UNL     1      -7.173  -2.565 -34.504  1.00  0.00     0.007 A 
HETATM   26  C   UNL     1      -7.107  -1.327 -33.855  1.00  0.00     0.014 A 
ENDBRANCH   1  20
TORSDOF 5
ENDMDL
MODEL 2
REMARK VINA RESULT:      -8.4      3.925      5.535
REMARK  5 active torsions:
REMARK  status: ('A' for Active; 'I' for Inactive)
REMARK    1  A    between atoms: C_5  and  C_6 
REMARK    2  A    between atoms: C_10  and  C_11 
REMARK       I    between atoms: C_11  and  N_12 
REMARK    3  A    between atoms: N_12  and  C_13 
REMARK    4  A    between atoms: C_13  and  C_14 
REMARK    5  A    between atoms: C_14  and  O_15 
ROOT
HETATM    1  C   UNL     1      -6.544   0.585 -33.849  1.00  0.00     0.068 A 
HETATM    2  N   UNL     1      -5.555   1.471 -33.573  1.00  0.00    -0.248 NA
HETATM    3  C   UNL     1      -5.841   2.776 -33.427  1.00  0.00     0.068 A 
HETATM    4  C   UNL     1      -7.148   3.294 -33.517  1.00  0.00     0.008 A 
HETATM    5  C   UNL     1      -8.167   2.344 -33.740  1.00  0.00     0.046 A 
HETATM    6  C   UNL     1      -7.862   0.993 -33.923  1.00  0.00     0.050 A 
HETATM    7  C   UNL     1      -4.788   3.648 -33.183  1.00  0.00     0.032 A 
HETATM    8  C   UNL     1      -4.982   5.023 -33.045  1.00  0.00     0.002 A 
HETATM    9  C   UNL     1      -6.258   5.552 -33.165  1.00  0.00     0.001 A 
HETATM   10  C   UNL     1      -7.334   4.698 -33.406  1.00  0.00     0.015 A 
ENDROOT
BRANCH   5  11
HETATM   11  C   UNL     1      -9.616   2.661 -33.782  1.00  0.00     0.252 C 
HETATM   12  N   UNL     1     -10.138   2.989 -35.014  1.00  0.00    -0.354 N 
HETATM   13  H   UNL     1      -9.472   3.122 -35.767  1.00  0.00     0.162 HD
HETATM   14  O   UNL     1     -10.251   2.703 -32.735  1.00  0.00    -0.268 OA
BRANCH  12  15
HETATM   15  C   UNL     1     -11.428   3.656 -35.186  1.00  0.00     0.154 C 
BRANCH  15  16
HETATM   16  C   UNL     1     -12.544   2.804 -35.822  1.00  0.00     0.132 C 
HETATM   17  C   UNL     1     -12.706   1.480 -35.086  1.00  0.00     0.041 C 
BRANCH  16  18
HETATM   18  O   UNL     1     -12.223   2.482 -37.175  1.00  0.00    -0.394 OA
HETATM   19  H   UNL     1     -11.442   1.885 -37.131  1.00  0.00     0.210 HD
ENDBRANCH  16  18
ENDBRANCH  15  16
ENDBRANCH  12  15
ENDBRANCH   5  11
BRANCH   1  20
HETATM   20  C   UNL     1      -6.129  -0.821 -34.039  1.00  0.00    -0.007 A 
HETATM   21  C   UNL     1      -4.827  -1.240 -33.715  1.00  0.00     0.014 A 
HETATM   22  C   UNL     1      -4.425  -2.573 -33.872  1.00  0.00     0.007 A 
HETATM   23  C   UNL     1      -5.313  -3.526 -34.372  1.00  0.00    -0.062 A 
HETATM   24  C   UNL     1      -4.906  -4.961 -34.520  1.00  0.00     0.048 C 
HETATM   25  C   UNL     1      -6.610  -3.128 -34.705  1.00  0.00     0.007 A 
HETATM   26  C   UNL     1      -7.007  -1.796 -34.548  1.00  0.00     0.014 A 
ENDBRANCH   1  20
TORSDOF 5
ENDMDL
MODEL 3
REMARK VINA RESULT:      -8.3      1.800      2.419
REMARK  5 active torsions:
REMARK  status: ('A' for Active; 'I' for Inactive)
REMARK    1  A    between atoms: C_5  and  C_6 
REMARK    2  A    between atoms: C_10  and  C_11 
REMARK       I    between atoms: C_11  and  N_12 
REMARK    3  A    between atoms: N_12  and  C_13 
REMARK    4  A    between atoms: C_13  and  C_14 
REMARK    5  A    between atoms: C_14  and  O_15 
ROOT
HETATM    1  C   UNL     1      -5.333   0.945 -32.524  1.00  0.00     0.068 A 
HETATM    2  N   UNL     1      -6.362   1.365 -31.749  1.00  0.00    -0.248 NA
HETATM    3  C   UNL     1      -6.264   2.519 -31.067  1.00  0.00     0.068 A 
HETATM    4  C   UNL     1      -5.136   3.359 -31.131  1.00  0.00     0.008 A 
HETATM    5  C   UNL     1      -4.105   2.932 -31.994  1.00  0.00     0.046 A 
HETATM    6  C   UNL     1      -4.197   1.717 -32.677  1.00  0.00     0.050 A 
HETATM    7  C   UNL     1      -7.331   2.888 -30.258  1.00  0.00     0.032 A 
HETATM    8  C   UNL     1      -7.311   4.053 -29.489  1.00  0.00     0.002 A 
HETATM    9  C   UNL     1      -6.192   4.872 -29.516  1.00  0.00     0.001 A 
HETATM   10  C   UNL     1      -5.109   4.528 -30.323  1.00  0.00     0.015 A 
ENDROOT
BRANCH   5  11
HETATM   11  C   UNL     1      -2.870   3.706 -32.275  1.00  0.00     0.252 C 
HETATM   12  N   UNL     1      -2.095   4.042 -31.187  1.00  0.00    -0.354 N 
HETATM   13  H   UNL     1      -2.493   3.858 -30.273  1.00  0.00     0.162 HD
HETATM   14  O   UNL     1      -2.644   4.078 -33.420  1.00  0.00    -0.268 OA
BRANCH  12  15
HETATM   15  C   UNL     1      -1.061   5.075 -31.230  1.00  0.00     0.154 C 
BRANCH  15  16
HETATM   16  C   UNL     1      -0.087   5.099 -30.034  1.00  0.00     0.132 C 
HETATM   17  C   UNL     1       0.464   6.501 -29.809  1.00  0.00     0.041 C 
BRANCH  16  18
HETATM   18  O   UNL     1       1.037   4.254 -30.283  1.00  0.00    -0.394 OA
HETATM   19  H   UNL     1       1.133   3.691 -29.482  1.00  0.00     0.210 HD
ENDBRANCH  16  18
ENDBRANCH  15  16
ENDBRANCH  12  15
ENDBRANCH   5  11
BRANCH   1  20
HETATM   20  C   UNL     1      -5.512  -0.358 -33.200  1.00  0.00    -0.007 A 
HETATM   21  C   UNL     1      -6.772  -0.756 -33.680  1.00  0.00     0.014 A 
HETATM   22  C   UNL     1      -6.953  -1.979 -34.339  1.00  0.00     0.007 A 
HETATM   23  C   UNL     1      -5.878  -2.849 -34.525  1.00  0.00    -0.062 A 
HETATM   24  C   UNL     1      -6.050  -4.149 -35.252  1.00  0.00     0.048 C 
HETATM   25  C   UNL     1      -4.619  -2.475 -34.050  1.00  0.00     0.007 A 
HETATM   26  C   UNL     1      -4.442  -1.253 -33.392  1.00  0.00     0.014 A 
ENDBRANCH   1  20
TORSDOF 5
ENDMDL
MODEL 4
REMARK VINA RESULT:      -8.2      2.697      4.670
REMARK  5 active torsions:
REMARK  status: ('A' for Active; 'I' for Inactive)
REMARK    1  A    between atoms: C_5  and  C_6 
REMARK    2  A    between atoms: C_10  and  C_11 
REMARK       I    between atoms: C_11  and  N_12 
REMARK    3  A    between atoms: N_12  and  C_13 
REMARK    4  A    between atoms: C_13  and  C_14 
REMARK    5  A    between atoms: C_14  and  O_15 
ROOT
HETATM    1  C   UNL     1      -5.682   0.712 -33.454  1.00  0.00     0.068 A 
HETATM    2  N   UNL     1      -4.553   1.123 -32.827  1.00  0.00    -0.248 NA
HETATM    3  C   UNL     1      -4.420   2.407 -32.450  1.00  0.00     0.068 A 
HETATM    4  C   UNL     1      -5.423   3.375 -32.646  1.00  0.00     0.008 A 
HETATM    5  C   UNL     1      -6.615   2.909 -33.241  1.00  0.00     0.046 A 
HETATM    6  C   UNL     1      -6.736   1.582 -33.660  1.00  0.00     0.050 A 
HETATM    7  C   UNL     1      -3.229   2.786 -31.845  1.00  0.00     0.032 A 
HETATM    8  C   UNL     1      -2.986   4.101 -31.445  1.00  0.00     0.002 A 
HETATM    9  C   UNL     1      -3.952   5.073 -31.662  1.00  0.00     0.001 A 
HETATM   10  C   UNL     1      -5.159   4.718 -32.264  1.00  0.00     0.015 A 
ENDROOT
BRANCH   5  11
HETATM   11  C   UNL     1      -7.825   3.739 -33.460  1.00  0.00     0.252 C 
HETATM   12  N   UNL     1      -8.952   3.380 -32.754  1.00  0.00    -0.354 N 
HETATM   13  H   UNL     1      -8.910   2.502 -32.249  1.00  0.00     0.162 HD
HETATM   14  O   UNL     1      -7.796   4.630 -34.301  1.00  0.00    -0.268 OA
BRANCH  12  15
HETATM   15  C   UNL     1     -10.294   3.848 -33.097  1.00  0.00     0.154 C 
BRANCH  15  16
HETATM   16  C   UNL     1     -11.009   3.071 -34.221  1.00  0.00     0.132 C 
HETATM   17  C   UNL     1     -10.716   1.579 -34.122  1.00  0.00     0.041 C 
BRANCH  16  18
HETATM   18  O   UNL     1     -10.541   3.494 -35.502  1.00  0.00    -0.394 OA
HETATM   19  H   UNL     1     -11.240   3.230 -36.144  1.00  0.00     0.210 HD
ENDBRANCH  16  18
ENDBRANCH  15  16
ENDBRANCH  12  15
ENDBRANCH   5  11
BRANCH   1  20
HETATM   20  C   UNL     1      -5.719  -0.705 -33.873  1.00  0.00    -0.007 A 
HETATM   21  C   UNL     1      -4.558  -1.497 -33.848  1.00  0.00     0.014 A 
HETATM   22  C   UNL     1      -4.582  -2.846 -34.224  1.00  0.00     0.007 A 
HETATM   23  C   UNL     1      -5.770  -3.441 -34.652  1.00  0.00    -0.062 A 
HETATM   24  C   UNL     1      -5.817  -4.890 -35.032  1.00  0.00     0.048 C 
HETATM   25  C   UNL     1      -6.933  -2.669 -34.690  1.00  0.00     0.007 A 
HETATM   26  C   UNL     1      -6.905  -1.322 -34.313  1.00  0.00     0.014 A 
ENDBRANCH   1  20
TORSDOF 5
ENDMDL
MODEL 5
REMARK VINA RESULT:      -8.2      2.307      3.036
REMARK  5 active torsions:
REMARK  status: ('A' for Active; 'I' for Inactive)
REMARK    1  A    between atoms: C_5  and  C_6 
REMARK    2  A    between atoms: C_10  and  C_11 
REMARK       I    between atoms: C_11  and  N_12 
REMARK    3  A    between atoms: N_12  and  C_13 
REMARK    4  A    between atoms: C_13  and  C_14 
REMARK    5  A    between atoms: C_14  and  O_15 
ROOT
HETATM    1  C   UNL     1      -6.860   0.146 -34.138  1.00  0.00     0.068 A 
HETATM    2  N   UNL     1      -8.203   0.253 -34.282  1.00  0.00    -0.248 NA
HETATM    3  C   UNL     1      -8.800   1.451 -34.163  1.00  0.00     0.068 A 
HETATM    4  C   UNL     1      -8.093   2.644 -33.918  1.00  0.00     0.008 A 
HETATM    5  C   UNL     1      -6.690   2.517 -33.837  1.00  0.00     0.046 A 
HETATM    6  C   UNL     1      -6.077   1.265 -33.930  1.00  0.00     0.050 A 
HETATM    7  C   UNL     1     -10.183   1.502 -34.282  1.00  0.00     0.032 A 
HETATM    8  C   UNL     1     -10.895   2.695 -34.145  1.00  0.00     0.002 A 
HETATM    9  C   UNL     1     -10.215   3.872 -33.871  1.00  0.00     0.001 A 
HETATM   10  C   UNL     1      -8.826   3.849 -33.750  1.00  0.00     0.015 A 
ENDROOT
BRANCH   5  11
HETATM   11  C   UNL     1      -5.751   3.654 -33.671  1.00  0.00     0.252 C 
HETATM   12  N   UNL     1      -4.989   3.660 -32.524  1.00  0.00    -0.354 N 
HETATM   13  H   UNL     1      -5.223   2.968 -31.821  1.00  0.00     0.162 HD
HETATM   14  O   UNL     1      -5.757   4.560 -34.496  1.00  0.00    -0.268 OA
BRANCH  12  15
HETATM   15  C   UNL     1      -4.289   4.846 -32.034  1.00  0.00     0.154 C 
BRANCH  15  16
HETATM   16  C   UNL     1      -2.751   4.747 -31.989  1.00  0.00     0.132 C 
HETATM   17  C   UNL     1      -2.181   4.482 -33.377  1.00  0.00     0.041 C 
BRANCH  16  18
HETATM   18  O   UNL     1      -2.340   3.655 -31.165  1.00  0.00    -0.394 OA
HETATM   19  H   UNL     1      -3.052   3.541 -30.496  1.00  0.00     0.210 HD
ENDBRANCH  16  18
ENDBRANCH  15  16
ENDBRANCH  12  15
ENDBRANCH   5  11
BRANCH   1  20
HETATM   20  C   UNL     1      -6.297  -1.218 -34.239  1.00  0.00    -0.007 A 
HETATM   21  C   UNL     1      -4.962  -1.476 -33.884  1.00  0.00     0.014 A 
HETATM   22  C   UNL     1      -4.419  -2.765 -33.956  1.00  0.00     0.007 A 
HETATM   23  C   UNL     1      -5.197  -3.836 -34.400  1.00  0.00    -0.062 A 
HETATM   24  C   UNL     1      -4.639  -5.227 -34.457  1.00  0.00     0.048 C 
HETATM   25  C   UNL     1      -6.524  -3.599 -34.762  1.00  0.00     0.007 A 
HETATM   26  C   UNL     1      -7.062  -2.310 -34.689  1.00  0.00     0.014 A 
ENDBRANCH   1  20
TORSDOF 5
ENDMDL
MODEL 6
REMARK VINA RESULT:      -7.9      2.731      4.924
REMARK  5 active torsions:
REMARK  status: ('A' for Active; 'I' for Inactive)
REMARK    1  A    between atoms: C_5  and  C_6 
REMARK    2  A    between atoms: C_10  and  C_11 
REMARK       I    between atoms: C_11  and  N_12 
REMARK    3  A    between atoms: N_12  and  C_13 
REMARK    4  A    between atoms: C_13  and  C_14 
REMARK    5  A    between atoms: C_14  and  O_15 
ROOT
HETATM    1  C   UNL     1      -5.784   0.671 -32.790  1.00  0.00     0.068 A 
HETATM    2  N   UNL     1      -4.549   1.223 -32.705  1.00  0.00    -0.248 NA
HETATM    3  C   UNL     1      -4.393   2.446 -32.169  1.00  0.00     0.068 A 
HETATM    4  C   UNL     1      -5.461   3.202 -31.649  1.00  0.00     0.008 A 
HETATM    5  C   UNL     1      -6.727   2.579 -31.689  1.00  0.00     0.046 A 
HETATM    6  C   UNL     1      -6.889   1.322 -32.276  1.00  0.00     0.050 A 
HETATM    7  C   UNL     1      -3.113   2.983 -32.139  1.00  0.00     0.032 A 
HETATM    8  C   UNL     1      -2.855   4.257 -31.629  1.00  0.00     0.002 A 
HETATM    9  C   UNL     1      -3.902   5.026 -31.144  1.00  0.00     0.001 A 
HETATM   10  C   UNL     1      -5.197   4.509 -31.159  1.00  0.00     0.015 A 
ENDROOT
BRANCH   5  11
HETATM   11  C   UNL     1      -7.968   3.160 -31.119  1.00  0.00     0.252 C 
HETATM   12  N   UNL     1      -8.781   3.848 -31.992  1.00  0.00    -0.354 N 
HETATM   13  H   UNL     1      -8.408   4.023 -32.917  1.00  0.00     0.162 HD
HETATM   14  O   UNL     1      -8.166   3.081 -29.913  1.00  0.00    -0.268 OA
BRANCH  12  15
HETATM   15  C   UNL     1      -9.833   4.764 -31.552  1.00  0.00     0.154 C 
BRANCH  15  16
HETATM   16  C   UNL     1     -11.212   4.124 -31.287  1.00  0.00     0.132 C 
HETATM   17  C   UNL     1     -12.317   5.171 -31.341  1.00  0.00     0.041 C 
BRANCH  16  18
HETATM   18  O   UNL     1     -11.257   3.550 -29.980  1.00  0.00    -0.394 OA
HETATM   19  H   UNL     1     -11.461   4.293 -29.367  1.00  0.00     0.210 HD
ENDBRANCH  16  18
ENDBRANCH  15  16
ENDBRANCH  12  15
ENDBRANCH   5  11
BRANCH   1  20
HETATM   20  C   UNL     1      -5.865  -0.656 -33.436  1.00  0.00    -0.007 A 
HETATM   21  C   UNL     1      -7.104  -1.199 -33.818  1.00  0.00     0.014 A 
HETATM   22  C   UNL     1      -7.195  -2.447 -34.448  1.00  0.00     0.007 A 
HETATM   23  C   UNL     1      -6.046  -3.197 -34.703  1.00  0.00    -0.062 A 
HETATM   24  C   UNL     1      -6.125  -4.521 -35.401  1.00  0.00     0.048 C 
HETATM   25  C   UNL     1      -4.806  -2.677 -34.326  1.00  0.00     0.007 A 
HETATM   26  C   UNL     1      -4.719  -1.431 -33.697  1.00  0.00     0.014 A 
ENDBRANCH   1  20
TORSDOF 5
ENDMDL
MODEL 7
REMARK VINA RESULT:      -7.7      2.742      4.061
REMARK  5 active torsions:
REMARK  status: ('A' for Active; 'I' for Inactive)
REMARK    1  A    between atoms: C_5  and  C_6 
REMARK    2  A    between atoms: C_10  and  C_11 
REMARK       I    between atoms: C_11  and  N_12 
REMARK    3  A    between atoms: N_12  and  C_13 
REMARK    4  A    between atoms: C_13  and  C_14 
REMARK    5  A    between atoms: C_14  and  O_15 
ROOT
HETATM    1  C   UNL     1      -7.725   0.348 -33.144  1.00  0.00     0.068 A 
HETATM    2  N   UNL     1      -8.918   0.311 -33.788  1.00  0.00    -0.248 NA
HETATM    3  C   UNL     1      -9.859   1.232 -33.516  1.00  0.00     0.068 A 
HETATM    4  C   UNL     1      -9.667   2.281 -32.596  1.00  0.00     0.008 A 
HETATM    5  C   UNL     1      -8.395   2.336 -31.988  1.00  0.00     0.046 A 
HETATM    6  C   UNL     1      -7.432   1.359 -32.250  1.00  0.00     0.050 A 
HETATM    7  C   UNL     1     -11.077   1.129 -34.174  1.00  0.00     0.032 A 
HETATM    8  C   UNL     1     -12.125   2.020 -33.937  1.00  0.00     0.002 A 
HETATM    9  C   UNL     1     -11.963   3.038 -33.009  1.00  0.00     0.001 A 
HETATM   10  C   UNL     1     -10.748   3.166 -32.337  1.00  0.00     0.015 A 
ENDROOT
BRANCH   5  11
HETATM   11  C   UNL     1      -7.955   3.405 -31.057  1.00  0.00     0.252 C 
HETATM   12  N   UNL     1      -7.149   4.388 -31.587  1.00  0.00    -0.354 N 
HETATM   13  H   UNL     1      -6.808   4.234 -32.529  1.00  0.00     0.162 HD
HETATM   14  O   UNL     1      -8.246   3.322 -29.870  1.00  0.00    -0.268 OA
BRANCH  12  15
HETATM   15  C   UNL     1      -6.352   5.299 -30.767  1.00  0.00     0.154 C 
BRANCH  15  16
HETATM   16  C   UNL     1      -5.047   4.714 -30.190  1.00  0.00     0.132 C 
HETATM   17  C   UNL     1      -4.400   3.750 -31.176  1.00  0.00     0.041 C 
BRANCH  16  18
HETATM   18  O   UNL     1      -5.311   3.967 -29.002  1.00  0.00    -0.394 OA
HETATM   19  H   UNL     1      -5.989   4.480 -28.507  1.00  0.00     0.210 HD
ENDBRANCH  16  18
ENDBRANCH  15  16
ENDBRANCH  12  15
ENDBRANCH   5  11
BRANCH   1  20
HETATM   20  C   UNL     1      -6.770  -0.732 -33.473  1.00  0.00    -0.007 A 
HETATM   21  C   UNL     1      -5.477  -0.744 -32.924  1.00  0.00     0.014 A 
HETATM   22  C   UNL     1      -4.567  -1.770 -33.211  1.00  0.00     0.007 A 
HETATM   23  C   UNL     1      -4.922  -2.811 -34.071  1.00  0.00    -0.062 A 
HETATM   24  C   UNL     1      -3.970  -3.930 -34.367  1.00  0.00     0.048 C 
HETATM   25  C   UNL     1      -6.201  -2.814 -34.632  1.00  0.00     0.007 A 
HETATM   26  C   UNL     1      -7.106  -1.787 -34.343  1.00  0.00     0.014 A 
ENDBRANCH   1  20
TORSDOF 5
ENDMDL
MODEL 8
REMARK VINA RESULT:      -7.6     15.720     17.204
REMARK  5 active torsions:
REMARK  status: ('A' for Active; 'I' for Inactive)
REMARK    1  A    between atoms: C_5  and  C_6 
REMARK    2  A    between atoms: C_10  and  C_11 
REMARK       I    between atoms: C_11  and  N_12 
REMARK    3  A    between atoms: N_12  and  C_13 
REMARK    4  A    between atoms: C_13  and  C_14 
REMARK    5  A    between atoms: C_14  and  O_15 
ROOT
HETATM    1  C   UNL     1      -3.698 -13.641 -38.284  1.00  0.00     0.068 A 
HETATM    2  N   UNL     1      -4.368 -13.159 -39.359  1.00  0.00    -0.248 NA
HETATM    3  C   UNL     1      -5.686 -12.911 -39.277  1.00  0.00     0.068 A 
HETATM    4  C   UNL     1      -6.434 -13.099 -38.099  1.00  0.00     0.008 A 
HETATM    5  C   UNL     1      -5.702 -13.539 -36.975  1.00  0.00     0.046 A 
HETATM    6  C   UNL     1      -4.338 -13.826 -37.074  1.00  0.00     0.050 A 
HETATM    7  C   UNL     1      -6.333 -12.454 -40.417  1.00  0.00     0.032 A 
HETATM    8  C   UNL     1      -7.705 -12.196 -40.438  1.00  0.00     0.002 A 
HETATM    9  C   UNL     1      -8.460 -12.409 -39.294  1.00  0.00     0.001 A 
HETATM   10  C   UNL     1      -7.834 -12.864 -38.134  1.00  0.00     0.015 A 
ENDROOT
BRANCH   5  11
HETATM   11  C   UNL     1      -6.274 -13.718 -35.617  1.00  0.00     0.252 C 
HETATM   12  N   UNL     1      -5.673 -13.014 -34.599  1.00  0.00    -0.354 N 
HETATM   13  H   UNL     1      -4.807 -12.538 -34.827  1.00  0.00     0.162 HD
HETATM   14  O   UNL     1      -7.177 -14.530 -35.451  1.00  0.00    -0.268 OA
BRANCH  12  15
HETATM   15  C   UNL     1      -5.868 -13.328 -33.184  1.00  0.00     0.154 C 
BRANCH  15  16
HETATM   16  C   UNL     1      -5.247 -14.654 -32.700  1.00  0.00     0.132 C 
HETATM   17  C   UNL     1      -6.329 -15.642 -32.284  1.00  0.00     0.041 C 
BRANCH  16  18
HETATM   18  O   UNL     1      -4.430 -14.437 -31.549  1.00  0.00    -0.394 OA
HETATM   19  H   UNL     1      -3.534 -14.218 -31.893  1.00  0.00     0.210 HD
ENDBRANCH  16  18
ENDBRANCH  15  16
ENDBRANCH  12  15
ENDBRANCH   5  11
BRANCH   1  20
HETATM   20  C   UNL     1      -2.261 -13.928 -38.482  1.00  0.00    -0.007 A 
HETATM   21  C   UNL     1      -1.452 -14.337 -37.408  1.00  0.00     0.014 A 
HETATM   22  C   UNL     1      -0.094 -14.631 -37.583  1.00  0.00     0.007 A 
HETATM   23  C   UNL     1       0.500 -14.510 -38.840  1.00  0.00    -0.062 A 
HETATM   24  C   UNL     1       1.946 -14.847 -39.049  1.00  0.00     0.048 C 
HETATM   25  C   UNL     1      -0.286 -14.099 -39.919  1.00  0.00     0.007 A 
HETATM   26  C   UNL     1      -1.642 -13.806 -39.740  1.00  0.00     0.014 A 
ENDBRANCH   1  20
TORSDOF 5
ENDMDL
MODEL 9
REMARK VINA RESULT:      -7.6      4.091      5.475
REMARK  5 active torsions:
REMARK  status: ('A' for Active; 'I' for Inactive)
REMARK    1  A    between atoms: C_5  and  C_6 
REMARK    2  A    between atoms: C_10  and  C_11 
REMARK       I    between atoms: C_11  and  N_12 
REMARK    3  A    between atoms: N_12  and  C_13 
REMARK    4  A    between atoms: C_13  and  C_14 
REMARK    5  A    between atoms: C_14  and  O_15 
ROOT
HETATM    1  C   UNL     1      -7.442   0.207 -32.947  1.00  0.00     0.068 A 
HETATM    2  N   UNL     1      -7.062   0.916 -31.857  1.00  0.00    -0.248 NA
HETATM    3  C   UNL     1      -7.802   1.957 -31.438  1.00  0.00     0.068 A 
HETATM    4  C   UNL     1      -8.999   2.353 -32.065  1.00  0.00     0.008 A 
HETATM    5  C   UNL     1      -9.408   1.560 -33.158  1.00  0.00     0.046 A 
HETATM    6  C   UNL     1      -8.619   0.498 -33.609  1.00  0.00     0.050 A 
HETATM    7  C   UNL     1      -7.350   2.675 -30.339  1.00  0.00     0.032 A 
HETATM    8  C   UNL     1      -8.034   3.789 -29.848  1.00  0.00     0.002 A 
HETATM    9  C   UNL     1      -9.197   4.210 -30.475  1.00  0.00     0.001 A 
HETATM   10  C   UNL     1      -9.675   3.505 -31.580  1.00  0.00     0.015 A 
ENDROOT
BRANCH   5  11
HETATM   11  C   UNL     1     -10.677   1.747 -33.904  1.00  0.00     0.252 C 
HETATM   12  N   UNL     1     -10.664   2.685 -34.912  1.00  0.00    -0.354 N 
HETATM   13  H   UNL     1      -9.838   3.269 -34.977  1.00  0.00     0.162 HD
HETATM   14  O   UNL     1     -11.678   1.140 -33.544  1.00  0.00    -0.268 OA
BRANCH  12  15
HETATM   15  C   UNL     1     -11.880   3.243 -35.502  1.00  0.00     0.154 C 
BRANCH  15  16
HETATM   16  C   UNL     1     -12.468   4.477 -34.787  1.00  0.00     0.132 C 
HETATM   17  C   UNL     1     -13.040   5.468 -35.792  1.00  0.00     0.041 C 
BRANCH  16  18
HETATM   18  O   UNL     1     -11.451   5.171 -34.063  1.00  0.00    -0.394 OA
HETATM   19  H   UNL     1     -10.601   4.930 -34.496  1.00  0.00     0.210 HD
ENDBRANCH  16  18
ENDBRANCH  15  16
ENDBRANCH  12  15
ENDBRANCH   5  11
BRANCH   1  20
HETATM   20  C   UNL     1      -6.542  -0.891 -33.361  1.00  0.00    -0.007 A 
HETATM   21  C   UNL     1      -5.228  -0.972 -32.868  1.00  0.00     0.014 A 
HETATM   22  C   UNL     1      -4.370  -2.016 -33.236  1.00  0.00     0.007 A 
HETATM   23  C   UNL     1      -4.799  -3.007 -34.121  1.00  0.00    -0.062 A 
HETATM   24  C   UNL     1      -3.902  -4.145 -34.502  1.00  0.00     0.048 C 
HETATM   25  C   UNL     1      -6.099  -2.941 -34.626  1.00  0.00     0.007 A 
HETATM   26  C   UNL     1      -6.953  -1.896 -34.257  1.00  0.00     0.014 A 
ENDBRANCH   1  20
TORSDOF 5
ENDMDL
MODEL 10
REMARK VINA RESULT:      -7.6      4.344      6.423
REMARK  5 active torsions:
REMARK  status: ('A' for Active; 'I' for Inactive)
REMARK    1  A    between atoms: C_5  and  C_6 
REMARK    2  A    between atoms: C_10  and  C_11 
REMARK       I    between atoms: C_11  and  N_12 
REMARK    3  A    between atoms: N_12  and  C_13 
REMARK    4  A    between atoms: C_13  and  C_14 
REMARK    5  A    between atoms: C_14  and  O_15 
ROOT
HETATM    1  C   UNL     1      -7.125   1.186 -33.812  1.00  0.00     0.068 A 
HETATM    2  N   UNL     1      -6.410   2.179 -33.229  1.00  0.00    -0.248 NA
HETATM    3  C   UNL     1      -6.940   3.409 -33.107  1.00  0.00     0.068 A 
HETATM    4  C   UNL     1      -8.242   3.733 -33.534  1.00  0.00     0.008 A 
HETATM    5  C   UNL     1      -8.990   2.667 -34.078  1.00  0.00     0.046 A 
HETATM    6  C   UNL     1      -8.424   1.399 -34.232  1.00  0.00     0.050 A 
HETATM    7  C   UNL     1      -6.153   4.401 -32.536  1.00  0.00     0.032 A 
HETATM    8  C   UNL     1      -6.605   5.714 -32.393  1.00  0.00     0.002 A 
HETATM    9  C   UNL     1      -7.872   6.056 -32.839  1.00  0.00     0.001 A 
HETATM   10  C   UNL     1      -8.684   5.077 -33.412  1.00  0.00     0.015 A 
ENDROOT
BRANCH   5  11
HETATM   11  C   UNL     1     -10.406   2.769 -34.508  1.00  0.00     0.252 C 
HETATM   12  N   UNL     1     -11.279   1.847 -33.974  1.00  0.00    -0.354 N 
HETATM   13  H   UNL     1     -10.867   1.091 -33.439  1.00  0.00     0.162 HD
HETATM   14  O   UNL     1     -10.714   3.589 -35.365  1.00  0.00    -0.268 OA
BRANCH  12  15
HETATM   15  C   UNL     1     -12.602   1.577 -34.536  1.00  0.00     0.154 C 
BRANCH  15  16
HETATM   16  C   UNL     1     -13.607   0.895 -33.587  1.00  0.00     0.132 C 
HETATM   17  C   UNL     1     -14.931   0.633 -34.293  1.00  0.00     0.041 C 
BRANCH  16  18
HETATM   18  O   UNL     1     -13.899   1.738 -32.471  1.00  0.00    -0.394 OA
HETATM   19  H   UNL     1     -13.157   1.613 -31.838  1.00  0.00     0.210 HD
ENDBRANCH  16  18
ENDBRANCH  15  16
ENDBRANCH  12  15
ENDBRANCH   5  11
BRANCH   1  20
HETATM   20  C   UNL     1      -6.444  -0.119 -33.946  1.00  0.00    -0.007 A 
HETATM   21  C   UNL     1      -7.082  -1.206 -34.568  1.00  0.00     0.014 A 
HETATM   22  C   UNL     1      -6.444  -2.444 -34.719  1.00  0.00     0.007 A 
HETATM   23  C   UNL     1      -5.147  -2.634 -34.238  1.00  0.00    -0.062 A 
HETATM   24  C   UNL     1      -4.440  -3.944 -34.416  1.00  0.00     0.048 C 
HETATM   25  C   UNL     1      -4.498  -1.568 -33.611  1.00  0.00     0.007 A 
HETATM   26  C   UNL     1      -5.140  -0.334 -33.462  1.00  0.00     0.014 A 
ENDBRANCH   1  20
TORSDOF 5
ENDMDL
