MODEL 1
REMARK VINA RESULT:      -8.9      0.000      0.000
REMARK  5 active torsions:
REMARK  status: ('A' for Active; 'I' for Inactive)
REMARK    1  A    between atoms: O_2  and  C_3 
REMARK    2  A    between atoms: C_6  and  C_7 
REMARK    3  A    between atoms: C_12  and  C_13 
REMARK    4  A    between atoms: N_14  and  N_15 
REMARK       I    between atoms: N_15  and  C_16 
REMARK    5  A    between atoms: C_16  and  C_17 
ROOT
HETATM    1  C   UNL     1      -6.654   2.287 -31.994  1.00  0.00     0.154 C 
HETATM    2  N   UNL     1      -5.997   2.763 -33.003  1.00  0.00    -0.183 NA
ENDROOT
BRANCH   1   3
HETATM    3  C   UNL     1      -7.855   1.520 -32.250  1.00  0.00     0.031 A 
HETATM    4  C   UNL     1      -7.993   0.217 -32.828  1.00  0.00     0.100 A 
HETATM    5  N   UNL     1      -9.291  -0.118 -32.941  1.00  0.00    -0.174 NA
HETATM    6  N   UNL     1      -9.957   0.920 -32.423  1.00  0.00    -0.288 N 
HETATM    7  H   UNL     1     -10.970   0.876 -32.399  1.00  0.00     0.188 HD
HETATM    8  C   UNL     1      -9.150   1.925 -31.994  1.00  0.00     0.124 A 
BRANCH   4   9
HETATM    9  C   UNL     1      -6.953  -0.710 -33.279  1.00  0.00    -0.005 A 
HETATM   10  C   UNL     1      -5.752  -0.813 -32.565  1.00  0.00     0.016 A 
HETATM   11  C   UNL     1      -4.744  -1.695 -32.975  1.00  0.00     0.037 A 
HETATM   12  C   UNL     1      -4.924  -2.483 -34.110  1.00  0.00     0.068 A 
HETATM   13  C   UNL     1      -6.113  -2.373 -34.834  1.00  0.00     0.037 A 
HETATM   14  C   UNL     1      -7.118  -1.488 -34.430  1.00  0.00     0.016 A 
BRANCH  12  15
HETATM   15  O   UNL     1      -4.028  -3.383 -34.618  1.00  0.00    -0.356 OA
HETATM   16  C   UNL     1      -3.735  -4.519 -33.814  1.00  0.00     0.210 C 
ENDBRANCH  12  15
ENDBRANCH   4   9
ENDBRANCH   1   3
BRANCH   2  17
HETATM   17  N   UNL     1      -4.848   3.483 -32.779  1.00  0.00    -0.243 N 
HETATM   18  C   UNL     1      -4.334   4.488 -33.589  1.00  0.00     0.271 C 
HETATM   19  O   UNL     1      -4.823   4.882 -34.642  1.00  0.00    -0.266 OA
HETATM   20  H   UNL     1      -4.532   3.426 -31.816  1.00  0.00     0.192 HD
BRANCH  18  21
HETATM   21  C   UNL     1      -3.097   5.152 -33.080  1.00  0.00     0.036 A 
HETATM   22  C   UNL     1      -2.253   4.534 -32.146  1.00  0.00     0.057 A 
HETATM   23  C   UNL     1      -1.127   5.226 -31.747  1.00  0.00     0.106 A 
HETATM   24  C   UNL     1      -0.819   6.472 -32.244  1.00  0.00     0.105 A 
HETATM   25  O   UNL     1      -0.203   4.782 -30.853  1.00  0.00    -0.323 OA
HETATM   26  O   UNL     1       0.335   6.968 -31.722  1.00  0.00    -0.323 OA
HETATM   27  C   UNL     1      -1.617   7.099 -33.173  1.00  0.00     0.041 A 
HETATM   28  C   UNL     1       0.723   5.892 -30.843  1.00  0.00     0.352 A 
HETATM   29  C   UNL     1      -2.768   6.427 -33.597  1.00  0.00     0.020 A 
ENDBRANCH  18  21
ENDBRANCH   2  17
TORSDOF 5
ENDMDL
MODEL 2
REMARK VINA RESULT:      -8.6      2.104      8.413
REMARK  5 active torsions:
REMARK  status: ('A' for Active; 'I' for Inactive)
REMARK    1  A    between atoms: O_2  and  C_3 
REMARK    2  A    between atoms: C_6  and  C_7 
REMARK    3  A    between atoms: C_12  and  C_13 
REMARK    4  A    between atoms: N_14  and  N_15 
REMARK       I    between atoms: N_15  and  C_16 
REMARK    5  A    between atoms: C_16  and  C_17 
ROOT
HETATM    1  C   UNL     1      -5.758   2.780 -33.480  1.00  0.00     0.154 C 
HETATM    2  N   UNL     1      -6.701   1.900 -33.605  1.00  0.00    -0.183 NA
ENDROOT
BRANCH   1   3
HETATM    3  C   UNL     1      -6.126   4.174 -33.351  1.00  0.00     0.031 A 
HETATM    4  C   UNL     1      -5.322   5.291 -32.956  1.00  0.00     0.100 A 
HETATM    5  N   UNL     1      -6.058   6.416 -32.912  1.00  0.00    -0.174 NA
HETATM    6  N   UNL     1      -7.281   6.037 -33.300  1.00  0.00    -0.288 N 
HETATM    7  H   UNL     1      -8.008   6.742 -33.349  1.00  0.00     0.188 HD
HETATM    8  C   UNL     1      -7.378   4.710 -33.575  1.00  0.00     0.124 A 
BRANCH   4   9
HETATM    9  C   UNL     1      -3.898   5.331 -32.612  1.00  0.00    -0.005 A 
HETATM   10  C   UNL     1      -2.934   5.159 -33.614  1.00  0.00     0.016 A 
HETATM   11  C   UNL     1      -1.566   5.196 -33.311  1.00  0.00     0.037 A 
HETATM   12  C   UNL     1      -1.147   5.403 -31.998  1.00  0.00     0.068 A 
HETATM   13  C   UNL     1      -2.105   5.560 -30.994  1.00  0.00     0.037 A 
HETATM   14  C   UNL     1      -3.471   5.516 -31.294  1.00  0.00     0.016 A 
BRANCH  12  15
HETATM   15  O   UNL     1       0.149   5.466 -31.566  1.00  0.00    -0.356 OA
HETATM   16  C   UNL     1       0.574   6.694 -30.991  1.00  0.00     0.210 C 
ENDBRANCH  12  15
ENDBRANCH   4   9
ENDBRANCH   1   3
BRANCH   2  17
HETATM   17  N   UNL     1      -6.372   0.571 -33.716  1.00  0.00    -0.243 N 
HETATM   18  C   UNL     1      -6.923  -0.343 -34.606  1.00  0.00     0.271 C 
HETATM   19  O   UNL     1      -7.804  -0.106 -35.426  1.00  0.00    -0.266 OA
HETATM   20  H   UNL     1      -5.479   0.351 -33.286  1.00  0.00     0.192 HD
BRANCH  18  21
HETATM   21  C   UNL     1      -6.340  -1.717 -34.559  1.00  0.00     0.036 A 
HETATM   22  C   UNL     1      -5.068  -1.965 -34.020  1.00  0.00     0.057 A 
HETATM   23  C   UNL     1      -4.623  -3.272 -34.011  1.00  0.00     0.106 A 
HETATM   24  C   UNL     1      -5.386  -4.309 -34.497  1.00  0.00     0.105 A 
HETATM   25  O   UNL     1      -3.422  -3.693 -33.532  1.00  0.00    -0.323 OA
HETATM   26  O   UNL     1      -4.759  -5.511 -34.386  1.00  0.00    -0.323 OA
HETATM   27  C   UNL     1      -6.643  -4.101 -35.017  1.00  0.00     0.041 A 
HETATM   28  C   UNL     1      -3.516  -5.115 -33.771  1.00  0.00     0.352 A 
HETATM   29  C   UNL     1      -7.124  -2.788 -35.044  1.00  0.00     0.020 A 
ENDBRANCH  18  21
ENDBRANCH   2  17
TORSDOF 5
ENDMDL
MODEL 3
REMARK VINA RESULT:      -8.4      4.560      8.536
REMARK  5 active torsions:
REMARK  status: ('A' for Active; 'I' for Inactive)
REMARK    1  A    between atoms: O_2  and  C_3 
REMARK    2  A    between atoms: C_6  and  C_7 
REMARK    3  A    between atoms: C_12  and  C_13 
REMARK    4  A    between atoms: N_14  and  N_15 
REMARK       I    between atoms: N_15  and  C_16 
REMARK    5  A    between atoms: C_16  and  C_17 
ROOT
HETATM    1  C   UNL     1      -7.796   1.639 -31.576  1.00  0.00     0.154 C 
HETATM    2  N   UNL     1      -8.448   2.454 -32.343  1.00  0.00    -0.183 NA
ENDROOT
BRANCH   1   3
HETATM    3  C   UNL     1      -6.369   1.825 -31.422  1.00  0.00     0.031 A 
HETATM    4  C   UNL     1      -5.290   1.057 -31.968  1.00  0.00     0.100 A 
HETATM    5  N   UNL     1      -4.105   1.531 -31.542  1.00  0.00    -0.174 NA
HETATM    6  N   UNL     1      -4.415   2.585 -30.779  1.00  0.00    -0.288 N 
HETATM    7  H   UNL     1      -3.658   3.109 -30.354  1.00  0.00     0.188 HD
HETATM    8  C   UNL     1      -5.751   2.807 -30.674  1.00  0.00     0.124 A 
BRANCH   4   9
HETATM    9  C   UNL     1      -5.339  -0.103 -32.861  1.00  0.00    -0.005 A 
HETATM   10  C   UNL     1      -4.428  -1.154 -32.691  1.00  0.00     0.016 A 
HETATM   11  C   UNL     1      -4.458  -2.275 -33.530  1.00  0.00     0.037 A 
HETATM   12  C   UNL     1      -5.398  -2.356 -34.555  1.00  0.00     0.068 A 
HETATM   13  C   UNL     1      -6.298  -1.304 -34.738  1.00  0.00     0.037 A 
HETATM   14  C   UNL     1      -6.266  -0.181 -33.905  1.00  0.00     0.016 A 
BRANCH  12  15
HETATM   15  O   UNL     1      -5.539  -3.389 -35.440  1.00  0.00    -0.356 OA
HETATM   16  C   UNL     1      -6.335  -4.490 -35.019  1.00  0.00     0.210 C 
ENDBRANCH  12  15
ENDBRANCH   4   9
ENDBRANCH   1   3
BRANCH   2  17
HETATM   17  N   UNL     1      -9.805   2.300 -32.491  1.00  0.00    -0.243 N 
HETATM   18  C   UNL     1     -10.546   2.572 -33.635  1.00  0.00     0.271 C 
HETATM   19  O   UNL     1     -10.100   3.007 -34.692  1.00  0.00    -0.266 OA
HETATM   20  H   UNL     1     -10.210   1.696 -31.783  1.00  0.00     0.192 HD
BRANCH  18  21
HETATM   21  C   UNL     1     -12.003   2.258 -33.546  1.00  0.00     0.036 A 
HETATM   22  C   UNL     1     -12.855   2.936 -32.662  1.00  0.00     0.057 A 
HETATM   23  C   UNL     1     -14.189   2.580 -32.664  1.00  0.00     0.106 A 
HETATM   24  C   UNL     1     -14.687   1.608 -33.501  1.00  0.00     0.105 A 
HETATM   25  O   UNL     1     -15.153   3.128 -31.875  1.00  0.00    -0.323 OA
HETATM   26  O   UNL     1     -16.025   1.422 -33.342  1.00  0.00    -0.323 OA
HETATM   27  C   UNL     1     -13.881   0.937 -34.391  1.00  0.00     0.041 A 
HETATM   28  C   UNL     1     -16.316   2.390 -32.312  1.00  0.00     0.352 A 
HETATM   29  C   UNL     1     -12.523   1.270 -34.414  1.00  0.00     0.020 A 
ENDBRANCH  18  21
ENDBRANCH   2  17
TORSDOF 5
ENDMDL
MODEL 4
REMARK VINA RESULT:      -8.0      2.517      7.836
REMARK  5 active torsions:
REMARK  status: ('A' for Active; 'I' for Inactive)
REMARK    1  A    between atoms: O_2  and  C_3 
REMARK    2  A    between atoms: C_6  and  C_7 
REMARK    3  A    between atoms: C_12  and  C_13 
REMARK    4  A    between atoms: N_14  and  N_15 
REMARK       I    between atoms: N_15  and  C_16 
REMARK    5  A    between atoms: C_16  and  C_17 
ROOT
HETATM    1  C   UNL     1      -8.150   1.861 -31.438  1.00  0.00     0.154 C 
HETATM    2  N   UNL     1      -8.218   1.518 -32.685  1.00  0.00    -0.183 NA
ENDROOT
BRANCH   1   3
HETATM    3  C   UNL     1      -8.738   3.120 -31.033  1.00  0.00     0.031 A 
HETATM    4  C   UNL     1      -8.249   4.453 -31.223  1.00  0.00     0.100 A 
HETATM    5  N   UNL     1      -9.072   5.349 -30.649  1.00  0.00    -0.174 NA
HETATM    6  N   UNL     1     -10.070   4.617 -30.141  1.00  0.00    -0.288 N 
HETATM    7  H   UNL     1     -10.822   5.099 -29.661  1.00  0.00     0.188 HD
HETATM    8  C   UNL     1      -9.923   3.282 -30.342  1.00  0.00     0.124 A 
BRANCH   4   9
HETATM    9  C   UNL     1      -7.038   4.904 -31.913  1.00  0.00    -0.005 A 
HETATM   10  C   UNL     1      -6.938   4.772 -33.304  1.00  0.00     0.016 A 
HETATM   11  C   UNL     1      -5.791   5.200 -33.987  1.00  0.00     0.037 A 
HETATM   12  C   UNL     1      -4.728   5.762 -33.283  1.00  0.00     0.068 A 
HETATM   13  C   UNL     1      -4.817   5.882 -31.894  1.00  0.00     0.037 A 
HETATM   14  C   UNL     1      -5.959   5.449 -31.211  1.00  0.00     0.016 A 
BRANCH  12  15
HETATM   15  O   UNL     1      -3.558   6.222 -33.821  1.00  0.00    -0.356 OA
HETATM   16  C   UNL     1      -3.018   5.483 -34.910  1.00  0.00     0.210 C 
ENDBRANCH  12  15
ENDBRANCH   4   9
ENDBRANCH   1   3
BRANCH   2  17
HETATM   17  N   UNL     1      -7.677   0.321 -33.085  1.00  0.00    -0.243 N 
HETATM   18  C   UNL     1      -6.365   0.104 -33.491  1.00  0.00     0.271 C 
HETATM   19  O   UNL     1      -5.487   0.957 -33.567  1.00  0.00    -0.266 OA
HETATM   20  H   UNL     1      -8.233  -0.477 -32.795  1.00  0.00     0.192 HD
BRANCH  18  21
HETATM   21  C   UNL     1      -6.020  -1.312 -33.817  1.00  0.00     0.036 A 
HETATM   22  C   UNL     1      -4.795  -1.883 -33.439  1.00  0.00     0.057 A 
HETATM   23  C   UNL     1      -4.577  -3.203 -33.777  1.00  0.00     0.106 A 
HETATM   24  C   UNL     1      -5.515  -3.952 -34.449  1.00  0.00     0.105 A 
HETATM   25  O   UNL     1      -3.452  -3.915 -33.494  1.00  0.00    -0.323 OA
HETATM   26  O   UNL     1      -5.097  -5.227 -34.675  1.00  0.00    -0.323 OA
HETATM   27  C   UNL     1      -6.731  -3.427 -34.820  1.00  0.00     0.041 A 
HETATM   28  C   UNL     1      -3.790  -5.198 -34.065  1.00  0.00     0.352 A 
HETATM   29  C   UNL     1      -6.985  -2.091 -34.495  1.00  0.00     0.020 A 
ENDBRANCH  18  21
ENDBRANCH   2  17
TORSDOF 5
ENDMDL
MODEL 5
REMARK VINA RESULT:      -7.9      3.117      4.563
REMARK  5 active torsions:
REMARK  status: ('A' for Active; 'I' for Inactive)
REMARK    1  A    between atoms: O_2  and  C_3 
REMARK    2  A    between atoms: C_6  and  C_7 
REMARK    3  A    between atoms: C_12  and  C_13 
REMARK    4  A    between atoms: N_14  and  N_15 
REMARK       I    between atoms: N_15  and  C_16 
REMARK    5  A    between atoms: C_16  and  C_17 
ROOT
HETATM    1  C   UNL     1      -3.780   1.852 -31.241  1.00  0.00     0.154 C 
HETATM    2  N   UNL     1      -2.802   2.637 -31.566  1.00  0.00    -0.183 NA
ENDROOT
BRANCH   1   3
HETATM    3  C   UNL     1      -3.671   0.444 -31.555  1.00  0.00     0.031 A 
HETATM    4  C   UNL     1      -4.613  -0.415 -32.209  1.00  0.00     0.100 A 
HETATM    5  N   UNL     1      -4.149  -1.677 -32.262  1.00  0.00    -0.174 NA
HETATM    6  N   UNL     1      -2.939  -1.619 -31.694  1.00  0.00    -0.288 N 
HETATM    7  H   UNL     1      -2.396  -2.473 -31.635  1.00  0.00     0.188 HD
HETATM    8  C   UNL     1      -2.603  -0.378 -31.255  1.00  0.00     0.124 A 
BRANCH   4   9
HETATM    9  C   UNL     1      -5.926  -0.091 -32.771  1.00  0.00    -0.005 A 
HETATM   10  C   UNL     1      -7.027   0.078 -31.920  1.00  0.00     0.016 A 
HETATM   11  C   UNL     1      -8.292   0.392 -32.434  1.00  0.00     0.037 A 
HETATM   12  C   UNL     1      -8.472   0.538 -33.808  1.00  0.00     0.068 A 
HETATM   13  C   UNL     1      -7.381   0.357 -34.661  1.00  0.00     0.037 A 
HETATM   14  C   UNL     1      -6.118   0.037 -34.150  1.00  0.00     0.016 A 
BRANCH  12  15
HETATM   15  O   UNL     1      -9.645   0.845 -34.440  1.00  0.00    -0.356 OA
HETATM   16  C   UNL     1     -10.691   1.367 -33.630  1.00  0.00     0.210 C 
ENDBRANCH  12  15
ENDBRANCH   4   9
ENDBRANCH   1   3
BRANCH   2  17
HETATM   17  N   UNL     1      -2.882   3.974 -31.264  1.00  0.00    -0.243 N 
HETATM   18  C   UNL     1      -1.828   4.880 -31.244  1.00  0.00     0.271 C 
HETATM   19  O   UNL     1      -0.653   4.619 -31.482  1.00  0.00    -0.266 OA
HETATM   20  H   UNL     1      -3.829   4.334 -31.327  1.00  0.00     0.192 HD
BRANCH  18  21
HETATM   21  C   UNL     1      -2.201   6.293 -30.941  1.00  0.00     0.036 A 
HETATM   22  C   UNL     1      -1.494   7.064 -30.006  1.00  0.00     0.057 A 
HETATM   23  C   UNL     1      -1.911   8.364 -29.806  1.00  0.00     0.106 A 
HETATM   24  C   UNL     1      -2.970   8.908 -30.494  1.00  0.00     0.105 A 
HETATM   25  O   UNL     1      -1.345   9.250 -28.941  1.00  0.00    -0.323 OA
HETATM   26  O   UNL     1      -3.205  10.202 -30.148  1.00  0.00    -0.323 OA
HETATM   27  C   UNL     1      -3.674   8.185 -31.429  1.00  0.00     0.041 A 
HETATM   28  C   UNL     1      -2.171  10.414 -29.164  1.00  0.00     0.352 A 
HETATM   29  C   UNL     1      -3.281   6.862 -31.655  1.00  0.00     0.020 A 
ENDBRANCH  18  21
ENDBRANCH   2  17
TORSDOF 5
ENDMDL
MODEL 6
REMARK VINA RESULT:      -7.9      4.243      8.141
REMARK  5 active torsions:
REMARK  status: ('A' for Active; 'I' for Inactive)
REMARK    1  A    between atoms: O_2  and  C_3 
REMARK    2  A    between atoms: C_6  and  C_7 
REMARK    3  A    between atoms: C_12  and  C_13 
REMARK    4  A    between atoms: N_14  and  N_15 
REMARK       I    between atoms: N_15  and  C_16 
REMARK    5  A    between atoms: C_16  and  C_17 
ROOT
HETATM    1  C   UNL     1      -6.856   2.566 -32.655  1.00  0.00     0.154 C 
HETATM    2  N   UNL     1      -6.259   2.090 -33.701  1.00  0.00    -0.183 NA
ENDROOT
BRANCH   1   3
HETATM    3  C   UNL     1      -7.128   3.987 -32.600  1.00  0.00     0.031 A 
HETATM    4  C   UNL     1      -8.308   4.700 -32.987  1.00  0.00     0.100 A 
HETATM    5  N   UNL     1      -8.139   6.024 -32.826  1.00  0.00    -0.174 NA
HETATM    6  N   UNL     1      -6.906   6.151 -32.321  1.00  0.00    -0.288 N 
HETATM    7  H   UNL     1      -6.568   7.083 -32.110  1.00  0.00     0.188 HD
HETATM    8  C   UNL     1      -6.259   4.967 -32.165  1.00  0.00     0.124 A 
BRANCH   4   9
HETATM    9  C   UNL     1      -9.575   4.179 -33.507  1.00  0.00    -0.005 A 
HETATM   10  C   UNL     1     -10.343   3.305 -32.727  1.00  0.00     0.016 A 
HETATM   11  C   UNL     1     -11.560   2.797 -33.201  1.00  0.00     0.037 A 
HETATM   12  C   UNL     1     -12.021   3.155 -34.467  1.00  0.00     0.068 A 
HETATM   13  C   UNL     1     -11.252   4.015 -35.254  1.00  0.00     0.037 A 
HETATM   14  C   UNL     1     -10.033   4.518 -34.784  1.00  0.00     0.016 A 
BRANCH  12  15
HETATM   15  O   UNL     1     -13.186   2.738 -35.048  1.00  0.00    -0.356 OA
HETATM   16  C   UNL     1     -13.908   1.715 -34.375  1.00  0.00     0.210 C 
ENDBRANCH  12  15
ENDBRANCH   4   9
ENDBRANCH   1   3
BRANCH   2  17
HETATM   17  N   UNL     1      -6.004   0.742 -33.776  1.00  0.00    -0.243 N 
HETATM   18  C   UNL     1      -6.632  -0.170 -34.615  1.00  0.00     0.271 C 
HETATM   19  O   UNL     1      -7.526   0.087 -35.414  1.00  0.00    -0.266 OA
HETATM   20  H   UNL     1      -5.110   0.489 -33.366  1.00  0.00     0.192 HD
BRANCH  18  21
HETATM   21  C   UNL     1      -6.120  -1.571 -34.537  1.00  0.00     0.036 A 
HETATM   22  C   UNL     1      -4.888  -1.879 -33.941  1.00  0.00     0.057 A 
HETATM   23  C   UNL     1      -4.510  -3.207 -33.909  1.00  0.00     0.106 A 
HETATM   24  C   UNL     1      -5.301  -4.206 -34.426  1.00  0.00     0.105 A 
HETATM   25  O   UNL     1      -3.353  -3.685 -33.375  1.00  0.00    -0.323 OA
HETATM   26  O   UNL     1      -4.741  -5.438 -34.284  1.00  0.00    -0.323 OA
HETATM   27  C   UNL     1      -6.521  -3.940 -35.003  1.00  0.00     0.041 A 
HETATM   28  C   UNL     1      -3.508  -5.101 -33.615  1.00  0.00     0.352 A 
HETATM   29  C   UNL     1      -6.935  -2.605 -35.054  1.00  0.00     0.020 A 
ENDBRANCH  18  21
ENDBRANCH   2  17
TORSDOF 5
ENDMDL
MODEL 7
REMARK VINA RESULT:      -7.8      3.817      7.631
REMARK  5 active torsions:
REMARK  status: ('A' for Active; 'I' for Inactive)
REMARK    1  A    between atoms: O_2  and  C_3 
REMARK    2  A    between atoms: C_6  and  C_7 
REMARK    3  A    between atoms: C_12  and  C_13 
REMARK    4  A    between atoms: N_14  and  N_15 
REMARK       I    between atoms: N_15  and  C_16 
REMARK    5  A    between atoms: C_16  and  C_17 
ROOT
HETATM    1  C   UNL     1      -7.686  -1.053 -34.126  1.00  0.00     0.154 C 
HETATM    2  N   UNL     1      -7.812  -0.190 -35.084  1.00  0.00    -0.183 NA
ENDROOT
BRANCH   1   3
HETATM    3  C   UNL     1      -6.618  -2.026 -34.208  1.00  0.00     0.031 A 
HETATM    4  C   UNL     1      -5.268  -1.934 -33.739  1.00  0.00     0.100 A 
HETATM    5  N   UNL     1      -4.576  -3.042 -34.059  1.00  0.00    -0.174 NA
HETATM    6  N   UNL     1      -5.462  -3.829 -34.680  1.00  0.00    -0.288 N 
HETATM    7  H   UNL     1      -5.151  -4.738 -35.005  1.00  0.00     0.188 HD
HETATM    8  C   UNL     1      -6.696  -3.274 -34.795  1.00  0.00     0.124 A 
BRANCH   4   9
HETATM    9  C   UNL     1      -4.613  -0.842 -33.015  1.00  0.00    -0.005 A 
HETATM   10  C   UNL     1      -3.634  -1.130 -32.054  1.00  0.00     0.016 A 
HETATM   11  C   UNL     1      -2.991  -0.103 -31.352  1.00  0.00     0.037 A 
HETATM   12  C   UNL     1      -3.324   1.228 -31.599  1.00  0.00     0.068 A 
HETATM   13  C   UNL     1      -4.309   1.519 -32.545  1.00  0.00     0.037 A 
HETATM   14  C   UNL     1      -4.957   0.494 -33.243  1.00  0.00     0.016 A 
BRANCH  12  15
HETATM   15  O   UNL     1      -2.775   2.323 -30.990  1.00  0.00    -0.356 OA
HETATM   16  C   UNL     1      -2.956   3.575 -31.639  1.00  0.00     0.210 C 
ENDBRANCH  12  15
ENDBRANCH   4   9
ENDBRANCH   1   3
BRANCH   2  17
HETATM   17  N   UNL     1      -8.812   0.750 -35.016  1.00  0.00    -0.243 N 
HETATM   18  C   UNL     1      -8.775   1.943 -34.306  1.00  0.00     0.271 C 
HETATM   19  O   UNL     1      -7.843   2.338 -33.613  1.00  0.00    -0.266 OA
HETATM   20  H   UNL     1      -9.494   0.650 -35.761  1.00  0.00     0.192 HD
BRANCH  18  21
HETATM   21  C   UNL     1      -9.978   2.815 -34.452  1.00  0.00     0.036 A 
HETATM   22  C   UNL     1      -9.883   4.215 -34.476  1.00  0.00     0.057 A 
HETATM   23  C   UNL     1     -11.053   4.931 -34.628  1.00  0.00     0.106 A 
HETATM   24  C   UNL     1     -12.276   4.316 -34.764  1.00  0.00     0.105 A 
HETATM   25  O   UNL     1     -11.147   6.288 -34.671  1.00  0.00    -0.323 OA
HETATM   26  O   UNL     1     -13.292   5.209 -34.907  1.00  0.00    -0.323 OA
HETATM   27  C   UNL     1     -12.402   2.946 -34.761  1.00  0.00     0.041 A 
HETATM   28  C   UNL     1     -12.571   6.457 -34.850  1.00  0.00     0.352 A 
HETATM   29  C   UNL     1     -11.237   2.189 -34.607  1.00  0.00     0.020 A 
ENDBRANCH  18  21
ENDBRANCH   2  17
TORSDOF 5
ENDMDL
MODEL 8
REMARK VINA RESULT:      -7.7      2.726      4.379
REMARK  5 active torsions:
REMARK  status: ('A' for Active; 'I' for Inactive)
REMARK    1  A    between atoms: O_2  and  C_3 
REMARK    2  A    between atoms: C_6  and  C_7 
REMARK    3  A    between atoms: C_12  and  C_13 
REMARK    4  A    between atoms: N_14  and  N_15 
REMARK       I    between atoms: N_15  and  C_16 
REMARK    5  A    between atoms: C_16  and  C_17 
ROOT
HETATM    1  C   UNL     1      -4.430   0.799 -32.079  1.00  0.00     0.154 C 
HETATM    2  N   UNL     1      -3.531   1.596 -32.562  1.00  0.00    -0.183 NA
ENDROOT
BRANCH   1   3
HETATM    3  C   UNL     1      -4.778  -0.388 -32.830  1.00  0.00     0.031 A 
HETATM    4  C   UNL     1      -6.050  -0.795 -33.347  1.00  0.00     0.100 A 
HETATM    5  N   UNL     1      -5.959  -1.996 -33.945  1.00  0.00    -0.174 NA
HETATM    6  N   UNL     1      -4.668  -2.330 -33.844  1.00  0.00    -0.288 N 
HETATM    7  H   UNL     1      -4.367  -3.212 -34.244  1.00  0.00     0.188 HD
HETATM    8  C   UNL     1      -3.917  -1.406 -33.189  1.00  0.00     0.124 A 
BRANCH   4   9
HETATM    9  C   UNL     1      -7.338  -0.099 -33.288  1.00  0.00    -0.005 A 
HETATM   10  C   UNL     1      -7.986   0.270 -34.475  1.00  0.00     0.016 A 
HETATM   11  C   UNL     1      -9.220   0.933 -34.444  1.00  0.00     0.037 A 
HETATM   12  C   UNL     1      -9.819   1.239 -33.224  1.00  0.00     0.068 A 
HETATM   13  C   UNL     1      -9.169   0.886 -32.039  1.00  0.00     0.037 A 
HETATM   14  C   UNL     1      -7.934   0.230 -32.067  1.00  0.00     0.016 A 
BRANCH  12  15
HETATM   15  O   UNL     1     -11.017   1.876 -33.051  1.00  0.00    -0.356 OA
HETATM   16  C   UNL     1     -12.088   1.466 -33.890  1.00  0.00     0.210 C 
ENDBRANCH  12  15
ENDBRANCH   4   9
ENDBRANCH   1   3
BRANCH   2  17
HETATM   17  N   UNL     1      -3.179   2.721 -31.856  1.00  0.00    -0.243 N 
HETATM   18  C   UNL     1      -2.594   3.870 -32.375  1.00  0.00     0.271 C 
HETATM   19  O   UNL     1      -2.287   4.052 -33.548  1.00  0.00    -0.266 OA
HETATM   20  H   UNL     1      -3.638   2.776 -30.952  1.00  0.00     0.192 HD
BRANCH  18  21
HETATM   21  C   UNL     1      -2.369   4.974 -31.395  1.00  0.00     0.036 A 
HETATM   22  C   UNL     1      -1.085   5.324 -30.953  1.00  0.00     0.057 A 
HETATM   23  C   UNL     1      -0.982   6.368 -30.055  1.00  0.00     0.106 A 
HETATM   24  C   UNL     1      -2.084   7.060 -29.607  1.00  0.00     0.105 A 
HETATM   25  O   UNL     1       0.178   6.839 -29.522  1.00  0.00    -0.323 OA
HETATM   26  O   UNL     1      -1.755   8.051 -28.735  1.00  0.00    -0.323 OA
HETATM   27  C   UNL     1      -3.355   6.752 -30.034  1.00  0.00     0.041 A 
HETATM   28  C   UNL     1      -0.320   7.908 -28.687  1.00  0.00     0.352 A 
HETATM   29  C   UNL     1      -3.496   5.698 -30.942  1.00  0.00     0.020 A 
ENDBRANCH  18  21
ENDBRANCH   2  17
TORSDOF 5
ENDMDL
MODEL 9
REMARK VINA RESULT:      -7.5      2.823      5.179
REMARK  5 active torsions:
REMARK  status: ('A' for Active; 'I' for Inactive)
REMARK    1  A    between atoms: O_2  and  C_3 
REMARK    2  A    between atoms: C_6  and  C_7 
REMARK    3  A    between atoms: C_12  and  C_13 
REMARK    4  A    between atoms: N_14  and  N_15 
REMARK       I    between atoms: N_15  and  C_16 
REMARK    5  A    between atoms: C_16  and  C_17 
ROOT
HETATM    1  C   UNL     1      -6.149   2.375 -33.540  1.00  0.00     0.154 C 
HETATM    2  N   UNL     1      -5.776   3.523 -34.009  1.00  0.00    -0.183 NA
ENDROOT
BRANCH   1   3
HETATM    3  C   UNL     1      -7.358   1.774 -34.062  1.00  0.00     0.031 A 
HETATM    4  C   UNL     1      -8.725   2.063 -33.745  1.00  0.00     0.100 A 
HETATM    5  N   UNL     1      -9.553   1.241 -34.414  1.00  0.00    -0.174 NA
HETATM    6  N   UNL     1      -8.745   0.478 -35.159  1.00  0.00    -0.288 N 
HETATM    7  H   UNL     1      -9.167  -0.221 -35.762  1.00  0.00     0.188 HD
HETATM    8  C   UNL     1      -7.426   0.754 -34.989  1.00  0.00     0.124 A 
BRANCH   4   9
HETATM    9  C   UNL     1      -9.270   3.071 -32.833  1.00  0.00    -0.005 A 
HETATM   10  C   UNL     1      -9.440   2.766 -31.476  1.00  0.00     0.016 A 
HETATM   11  C   UNL     1      -9.956   3.716 -30.584  1.00  0.00     0.037 A 
HETATM   12  C   UNL     1     -10.312   4.983 -31.041  1.00  0.00     0.068 A 
HETATM   13  C   UNL     1     -10.158   5.287 -32.395  1.00  0.00     0.037 A 
HETATM   14  C   UNL     1      -9.649   4.338 -33.289  1.00  0.00     0.016 A 
BRANCH  12  15
HETATM   15  O   UNL     1     -10.821   6.000 -30.282  1.00  0.00    -0.356 OA
HETATM   16  C   UNL     1     -11.041   7.242 -30.938  1.00  0.00     0.210 C 
ENDBRANCH  12  15
ENDBRANCH   4   9
ENDBRANCH   1   3
BRANCH   2  17
HETATM   17  N   UNL     1      -4.624   4.102 -33.534  1.00  0.00    -0.243 N 
HETATM   18  C   UNL     1      -3.803   4.988 -34.221  1.00  0.00     0.271 C 
HETATM   19  O   UNL     1      -3.974   5.382 -35.370  1.00  0.00    -0.266 OA
HETATM   20  H   UNL     1      -4.553   4.060 -32.522  1.00  0.00     0.192 HD
BRANCH  18  21
HETATM   21  C   UNL     1      -2.641   5.518 -33.448  1.00  0.00     0.036 A 
HETATM   22  C   UNL     1      -1.932   4.722 -32.534  1.00  0.00     0.057 A 
HETATM   23  C   UNL     1      -0.865   5.301 -31.878  1.00  0.00     0.106 A 
HETATM   24  C   UNL     1      -0.486   6.604 -32.104  1.00  0.00     0.105 A 
HETATM   25  O   UNL     1      -0.072   4.682 -30.962  1.00  0.00    -0.323 OA
HETATM   26  O   UNL     1       0.592   6.968 -31.358  1.00  0.00    -0.323 OA
HETATM   27  C   UNL     1      -1.149   7.406 -33.005  1.00  0.00     0.041 A 
HETATM   28  C   UNL     1       0.851   5.745 -30.638  1.00  0.00     0.352 A 
HETATM   29  C   UNL     1      -2.237   6.852 -33.686  1.00  0.00     0.020 A 
ENDBRANCH  18  21
ENDBRANCH   2  17
TORSDOF 5
ENDMDL
MODEL 10
REMARK VINA RESULT:      -7.4      2.251      8.422
REMARK  5 active torsions:
REMARK  status: ('A' for Active; 'I' for Inactive)
REMARK    1  A    between atoms: O_2  and  C_3 
REMARK    2  A    between atoms: C_6  and  C_7 
REMARK    3  A    between atoms: C_12  and  C_13 
REMARK    4  A    between atoms: N_14  and  N_15 
REMARK       I    between atoms: N_15  and  C_16 
REMARK    5  A    between atoms: C_16  and  C_17 
ROOT
HETATM    1  C   UNL     1      -6.163   3.455 -31.789  1.00  0.00     0.154 C 
HETATM    2  N   UNL     1      -7.046   2.512 -31.885  1.00  0.00    -0.183 NA
ENDROOT
BRANCH   1   3
HETATM    3  C   UNL     1      -6.585   4.750 -31.300  1.00  0.00     0.031 A 
HETATM    4  C   UNL     1      -5.819   5.948 -31.128  1.00  0.00     0.100 A 
HETATM    5  N   UNL     1      -6.576   6.925 -30.597  1.00  0.00    -0.174 NA
HETATM    6  N   UNL     1      -7.791   6.381 -30.467  1.00  0.00    -0.288 N 
HETATM    7  H   UNL     1      -8.536   6.955 -30.086  1.00  0.00     0.188 HD
HETATM    8  C   UNL     1      -7.854   5.086 -30.873  1.00  0.00     0.124 A 
BRANCH   4   9
HETATM    9  C   UNL     1      -4.408   6.197 -31.435  1.00  0.00    -0.005 A 
HETATM   10  C   UNL     1      -3.996   6.319 -32.769  1.00  0.00     0.016 A 
HETATM   11  C   UNL     1      -2.653   6.561 -33.088  1.00  0.00     0.037 A 
HETATM   12  C   UNL     1      -1.705   6.679 -32.074  1.00  0.00     0.068 A 
HETATM   13  C   UNL     1      -2.109   6.544 -30.744  1.00  0.00     0.037 A 
HETATM   14  C   UNL     1      -3.448   6.296 -30.424  1.00  0.00     0.016 A 
BRANCH  12  15
HETATM   15  O   UNL     1      -0.369   6.918 -32.244  1.00  0.00    -0.356 OA
HETATM   16  C   UNL     1       0.462   6.753 -31.102  1.00  0.00     0.210 C 
ENDBRANCH  12  15
ENDBRANCH   4   9
ENDBRANCH   1   3
BRANCH   2  17
HETATM   17  N   UNL     1      -6.661   1.272 -32.334  1.00  0.00    -0.243 N 
HETATM   18  C   UNL     1      -6.597   0.859 -33.660  1.00  0.00     0.271 C 
HETATM   19  O   UNL     1      -6.890   1.538 -34.638  1.00  0.00    -0.266 OA
HETATM   20  H   UNL     1      -6.145   0.745 -31.637  1.00  0.00     0.192 HD
BRANCH  18  21
HETATM   21  C   UNL     1      -6.086  -0.527 -33.876  1.00  0.00     0.036 A 
HETATM   22  C   UNL     1      -6.885  -1.534 -34.440  1.00  0.00     0.057 A 
HETATM   23  C   UNL     1      -6.315  -2.779 -34.610  1.00  0.00     0.106 A 
HETATM   24  C   UNL     1      -5.011  -3.043 -34.257  1.00  0.00     0.105 A 
HETATM   25  O   UNL     1      -6.939  -3.867 -35.137  1.00  0.00    -0.323 OA
HETATM   26  O   UNL     1      -4.654  -4.330 -34.516  1.00  0.00    -0.323 OA
HETATM   27  C   UNL     1      -4.197  -2.075 -33.717  1.00  0.00     0.041 A 
HETATM   28  C   UNL     1      -5.879  -4.847 -35.075  1.00  0.00     0.352 A 
HETATM   29  C   UNL     1      -4.743  -0.801 -33.529  1.00  0.00     0.020 A 
ENDBRANCH  18  21
ENDBRANCH   2  17
TORSDOF 5
ENDMDL
