MODEL 1
REMARK VINA RESULT:      -8.2      0.000      0.000
REMARK  4 active torsions:
REMARK  status: ('A' for Active; 'I' for Inactive)
REMARK    1  A    between atoms: N_2  and  C_4 
REMARK    2  A    between atoms: N_2  and  C_16 
REMARK    3  A    between atoms: C_4  and  C_5 
REMARK    4  A    between atoms: C_16  and  C_17 
ROOT
HETATM    1  C   UNL     1      -3.613   3.077 -32.656  1.00  0.00     0.270 C 
HETATM    2  N   UNL     1      -4.231   1.799 -32.167  1.00  0.00    -0.064 N 
HETATM    3  H   UNL     1      -5.123   1.693 -32.687  1.00  0.00     0.280 HD
ENDROOT
BRANCH   2   4
HETATM    4  C   UNL     1      -3.419   0.567 -32.532  1.00  0.00     0.312 C 
BRANCH   4   5
HETATM    5  C   UNL     1      -4.274  -0.501 -33.204  1.00  0.00     0.133 A 
HETATM    6  N   UNL     1      -3.836  -1.720 -33.251  1.00  0.00    -0.233 NA
HETATM    7  C   UNL     1      -4.661  -2.684 -33.869  1.00  0.00     0.074 A 
HETATM    8  C   UNL     1      -5.909  -2.367 -34.418  1.00  0.00     0.061 A 
HETATM    9  C   UNL     1      -4.224  -4.009 -33.931  1.00  0.00     0.032 A 
HETATM   10  C   UNL     1      -6.346  -0.966 -34.337  1.00  0.00     0.259 A 
HETATM   11  C   UNL     1      -6.715  -3.339 -35.016  1.00  0.00     0.019 A 
HETATM   12  O   UNL     1      -7.417  -0.573 -34.778  1.00  0.00    -0.267 OA
HETATM   13  N   UNL     1      -5.475  -0.104 -33.718  1.00  0.00    -0.309 N 
HETATM   14  H   UNL     1      -5.803   0.854 -33.692  1.00  0.00     0.170 HD
HETATM   15  C   UNL     1      -6.265  -4.656 -35.069  1.00  0.00     0.001 A 
HETATM   16  C   UNL     1      -5.023  -4.991 -34.529  1.00  0.00     0.002 A 
ENDBRANCH   4   5
ENDBRANCH   2   4
BRANCH   2  17
HETATM   17  C   UNL     1      -4.592   1.825 -30.705  1.00  0.00     0.276 C 
BRANCH  17  18
HETATM   18  C   UNL     1      -5.793   2.670 -30.383  1.00  0.00     0.003 A 
HETATM   19  C   UNL     1      -7.074   2.298 -30.820  1.00  0.00     0.088 A 
HETATM   20  C   UNL     1      -8.187   3.104 -30.556  1.00  0.00     0.001 A 
HETATM   21  O   UNL     1      -7.172   1.137 -31.545  1.00  0.00    -0.325 OA
HETATM   22  C   UNL     1      -9.539   2.693 -31.057  1.00  0.00     0.212 C 
HETATM   23  C   UNL     1      -8.028   4.275 -29.805  1.00  0.00     0.036 A 
HETATM   24  O   UNL     1      -9.385   1.779 -32.136  1.00  0.00    -0.362 OA
HETATM   25  C   UNL     1      -8.530   0.717 -31.746  1.00  0.00     0.345 C 
HETATM   26  C   UNL     1      -6.763   4.643 -29.352  1.00  0.00     0.035 A 
HETATM   27 CL   UNL     1      -6.565   6.088 -28.445  1.00  0.00    -0.084 Cl
HETATM   28  C   UNL     1      -5.649   3.853 -29.638  1.00  0.00     0.035 A 
ENDBRANCH  17  18
ENDBRANCH   2  17
TORSDOF 4
ENDMDL
MODEL 2
REMARK VINA RESULT:      -8.2      3.247      6.754
REMARK  4 active torsions:
REMARK  status: ('A' for Active; 'I' for Inactive)
REMARK    1  A    between atoms: N_2  and  C_4 
REMARK    2  A    between atoms: N_2  and  C_16 
REMARK    3  A    between atoms: C_4  and  C_5 
REMARK    4  A    between atoms: C_16  and  C_17 
ROOT
HETATM    1  C   UNL     1      -5.973   0.360 -29.667  1.00  0.00     0.270 C 
HETATM    2  N   UNL     1      -5.534   1.266 -30.781  1.00  0.00    -0.064 N 
HETATM    3  H   UNL     1      -6.366   1.405 -31.384  1.00  0.00     0.280 HD
ENDROOT
BRANCH   2   4
HETATM    4  C   UNL     1      -5.162   2.659 -30.304  1.00  0.00     0.312 C 
BRANCH   4   5
HETATM    5  C   UNL     1      -4.546   3.498 -31.417  1.00  0.00     0.133 A 
HETATM    6  N   UNL     1      -3.296   3.832 -31.337  1.00  0.00    -0.233 NA
HETATM    7  C   UNL     1      -2.758   4.598 -32.393  1.00  0.00     0.074 A 
HETATM    8  C   UNL     1      -3.519   4.996 -33.498  1.00  0.00     0.061 A 
HETATM    9  C   UNL     1      -1.413   4.968 -32.343  1.00  0.00     0.032 A 
HETATM   10  C   UNL     1      -4.932   4.590 -33.527  1.00  0.00     0.259 A 
HETATM   11  C   UNL     1      -2.964   5.746 -34.538  1.00  0.00     0.019 A 
HETATM   12  O   UNL     1      -5.691   4.878 -34.442  1.00  0.00    -0.267 OA
HETATM   13  N   UNL     1      -5.362   3.849 -32.455  1.00  0.00    -0.309 N 
HETATM   14  H   UNL     1      -6.342   3.599 -32.502  1.00  0.00     0.170 HD
HETATM   15  C   UNL     1      -1.620   6.107 -34.474  1.00  0.00     0.001 A 
HETATM   16  C   UNL     1      -0.846   5.720 -33.380  1.00  0.00     0.002 A 
ENDBRANCH   4   5
ENDBRANCH   2   4
BRANCH   2  17
HETATM   17  C   UNL     1      -4.468   0.666 -31.661  1.00  0.00     0.276 C 
BRANCH  17  18
HETATM   18  C   UNL     1      -4.998  -0.232 -32.744  1.00  0.00     0.003 A 
HETATM   19  C   UNL     1      -6.093   0.158 -33.531  1.00  0.00     0.088 A 
HETATM   20  C   UNL     1      -6.613  -0.693 -34.513  1.00  0.00     0.001 A 
HETATM   21  O   UNL     1      -6.646   1.386 -33.265  1.00  0.00    -0.325 OA
HETATM   22  C   UNL     1      -7.800  -0.260 -35.321  1.00  0.00     0.212 C 
HETATM   23  C   UNL     1      -6.004  -1.932 -34.745  1.00  0.00     0.036 A 
HETATM   24  O   UNL     1      -8.498   0.765 -34.624  1.00  0.00    -0.362 OA
HETATM   25  C   UNL     1      -7.596   1.797 -34.260  1.00  0.00     0.345 C 
HETATM   26  C   UNL     1      -4.906  -2.320 -33.980  1.00  0.00     0.035 A 
HETATM   27 CL   UNL     1      -4.168  -3.848 -34.253  1.00  0.00    -0.084 Cl
HETATM   28  C   UNL     1      -4.404  -1.483 -32.983  1.00  0.00     0.035 A 
ENDBRANCH  17  18
ENDBRANCH   2  17
TORSDOF 4
ENDMDL
MODEL 3
REMARK VINA RESULT:      -8.0      2.494      4.028
REMARK  4 active torsions:
REMARK  status: ('A' for Active; 'I' for Inactive)
REMARK    1  A    between atoms: N_2  and  C_4 
REMARK    2  A    between atoms: N_2  and  C_16 
REMARK    3  A    between atoms: C_4  and  C_5 
REMARK    4  A    between atoms: C_16  and  C_17 
ROOT
HETATM    1  C   UNL     1      -9.946   0.909 -34.125  1.00  0.00     0.270 C 
HETATM    2  N   UNL     1      -8.460   1.041 -33.959  1.00  0.00    -0.064 N 
HETATM    3  H   UNL     1      -8.201   0.415 -33.174  1.00  0.00     0.280 HD
ENDROOT
BRANCH   2   4
HETATM    4  C   UNL     1      -7.679   0.515 -35.152  1.00  0.00     0.312 C 
BRANCH   4   5
HETATM    5  C   UNL     1      -6.696  -0.578 -34.751  1.00  0.00     0.133 A 
HETATM    6  N   UNL     1      -6.947  -1.805 -35.086  1.00  0.00    -0.233 NA
HETATM    7  C   UNL     1      -6.008  -2.788 -34.710  1.00  0.00     0.074 A 
HETATM    8  C   UNL     1      -4.839  -2.481 -34.003  1.00  0.00     0.061 A 
HETATM    9  C   UNL     1      -6.242  -4.119 -35.061  1.00  0.00     0.032 A 
HETATM   10  C   UNL     1      -4.614  -1.072 -33.648  1.00  0.00     0.259 A 
HETATM   11  C   UNL     1      -3.916  -3.468 -33.648  1.00  0.00     0.019 A 
HETATM   12  O   UNL     1      -3.629  -0.687 -33.035  1.00  0.00    -0.267 OA
HETATM   13  N   UNL     1      -5.585  -0.192 -34.057  1.00  0.00    -0.309 N 
HETATM   14  H   UNL     1      -5.404   0.766 -33.785  1.00  0.00     0.170 HD
HETATM   15  C   UNL     1      -4.165  -4.791 -34.006  1.00  0.00     0.001 A 
HETATM   16  C   UNL     1      -5.325  -5.116 -34.710  1.00  0.00     0.002 A 
ENDBRANCH   4   5
ENDBRANCH   2   4
BRANCH   2  17
HETATM   17  C   UNL     1      -8.019   2.426 -33.561  1.00  0.00     0.276 C 
BRANCH  17  18
HETATM   18  C   UNL     1      -6.818   2.453 -32.657  1.00  0.00     0.003 A 
HETATM   19  C   UNL     1      -5.731   3.297 -32.931  1.00  0.00     0.088 A 
HETATM   20  C   UNL     1      -4.594   3.296 -32.114  1.00  0.00     0.001 A 
HETATM   21  O   UNL     1      -5.821   4.087 -34.050  1.00  0.00    -0.325 OA
HETATM   22  C   UNL     1      -3.438   4.190 -32.445  1.00  0.00     0.212 C 
HETATM   23  C   UNL     1      -4.561   2.474 -30.980  1.00  0.00     0.036 A 
HETATM   24  O   UNL     1      -3.498   4.552 -33.819  1.00  0.00    -0.362 OA
HETATM   25  C   UNL     1      -4.782   5.076 -34.121  1.00  0.00     0.345 C 
HETATM   26  C   UNL     1      -5.643   1.646 -30.692  1.00  0.00     0.035 A 
HETATM   27 CL   UNL     1      -5.597   0.624 -29.311  1.00  0.00    -0.084 Cl
HETATM   28  C   UNL     1      -6.765   1.628 -31.522  1.00  0.00     0.035 A 
ENDBRANCH  17  18
ENDBRANCH   2  17
TORSDOF 4
ENDMDL
MODEL 4
REMARK VINA RESULT:      -8.0      4.412      7.893
REMARK  4 active torsions:
REMARK  status: ('A' for Active; 'I' for Inactive)
REMARK    1  A    between atoms: N_2  and  C_4 
REMARK    2  A    between atoms: N_2  and  C_16 
REMARK    3  A    between atoms: C_4  and  C_5 
REMARK    4  A    between atoms: C_16  and  C_17 
ROOT
HETATM    1  C   UNL     1      -8.421   0.323 -32.666  1.00  0.00     0.270 C 
HETATM    2  N   UNL     1      -8.431   0.823 -34.081  1.00  0.00    -0.064 N 
HETATM    3  H   UNL     1      -9.097   0.217 -34.596  1.00  0.00     0.280 HD
ENDROOT
BRANCH   2   4
HETATM    4  C   UNL     1      -8.997   2.226 -34.213  1.00  0.00     0.312 C 
BRANCH   4   5
HETATM    5  C   UNL     1     -10.466   2.288 -33.811  1.00  0.00     0.133 A 
HETATM    6  N   UNL     1     -11.302   1.457 -34.350  1.00  0.00    -0.233 NA
HETATM    7  C   UNL     1     -12.651   1.536 -33.944  1.00  0.00     0.074 A 
HETATM    8  C   UNL     1     -13.100   2.464 -32.997  1.00  0.00     0.061 A 
HETATM    9  C   UNL     1     -13.578   0.651 -34.498  1.00  0.00     0.032 A 
HETATM   10  C   UNL     1     -12.103   3.382 -32.426  1.00  0.00     0.259 A 
HETATM   11  C   UNL     1     -14.438   2.519 -32.600  1.00  0.00     0.019 A 
HETATM   12  O   UNL     1     -12.378   4.231 -31.590  1.00  0.00    -0.267 OA
HETATM   13  N   UNL     1     -10.818   3.228 -32.885  1.00  0.00    -0.309 N 
HETATM   14  H   UNL     1     -10.162   3.885 -32.481  1.00  0.00     0.170 HD
HETATM   15  C   UNL     1     -15.350   1.629 -33.162  1.00  0.00     0.001 A 
HETATM   16  C   UNL     1     -14.922   0.697 -34.109  1.00  0.00     0.002 A 
ENDBRANCH   4   5
ENDBRANCH   2   4
BRANCH   2  17
HETATM   17  C   UNL     1      -7.103   0.681 -34.779  1.00  0.00     0.276 C 
BRANCH  17  18
HETATM   18  C   UNL     1      -6.367  -0.588 -34.449  1.00  0.00     0.003 A 
HETATM   19  C   UNL     1      -5.260  -0.574 -33.586  1.00  0.00     0.088 A 
HETATM   20  C   UNL     1      -4.549  -1.747 -33.308  1.00  0.00     0.001 A 
HETATM   21  O   UNL     1      -4.891   0.641 -33.064  1.00  0.00    -0.325 OA
HETATM   22  C   UNL     1      -3.355  -1.697 -32.402  1.00  0.00     0.212 C 
HETATM   23  C   UNL     1      -4.975  -2.960 -33.863  1.00  0.00     0.036 A 
HETATM   24  O   UNL     1      -2.857  -0.366 -32.349  1.00  0.00    -0.362 OA
HETATM   25  C   UNL     1      -3.910   0.527 -32.022  1.00  0.00     0.345 C 
HETATM   26  C   UNL     1      -6.083  -2.985 -34.707  1.00  0.00     0.035 A 
HETATM   27 CL   UNL     1      -6.597  -4.470 -35.402  1.00  0.00    -0.084 Cl
HETATM   28  C   UNL     1      -6.777  -1.811 -35.005  1.00  0.00     0.035 A 
ENDBRANCH  17  18
ENDBRANCH   2  17
TORSDOF 4
ENDMDL
MODEL 5
REMARK VINA RESULT:      -8.0      1.903      2.494
REMARK  4 active torsions:
REMARK  status: ('A' for Active; 'I' for Inactive)
REMARK    1  A    between atoms: N_2  and  C_4 
REMARK    2  A    between atoms: N_2  and  C_16 
REMARK    3  A    between atoms: C_4  and  C_5 
REMARK    4  A    between atoms: C_16  and  C_17 
ROOT
HETATM    1  C   UNL     1      -4.349   2.997 -32.588  1.00  0.00     0.270 C 
HETATM    2  N   UNL     1      -4.658   1.646 -32.011  1.00  0.00    -0.064 N 
HETATM    3  H   UNL     1      -5.211   1.145 -32.731  1.00  0.00     0.280 HD
ENDROOT
BRANCH   2   4
HETATM    4  C   UNL     1      -3.420   0.789 -31.805  1.00  0.00     0.312 C 
BRANCH   4   5
HETATM    5  C   UNL     1      -3.633  -0.643 -32.278  1.00  0.00     0.133 A 
HETATM    6  N   UNL     1      -4.440  -0.867 -33.267  1.00  0.00    -0.233 NA
HETATM    7  C   UNL     1      -4.602  -2.205 -33.686  1.00  0.00     0.074 A 
HETATM    8  C   UNL     1      -3.929  -3.271 -33.077  1.00  0.00     0.061 A 
HETATM    9  C   UNL     1      -5.458  -2.482 -34.753  1.00  0.00     0.032 A 
HETATM   10  C   UNL     1      -3.032  -2.952 -31.957  1.00  0.00     0.259 A 
HETATM   11  C   UNL     1      -4.096  -4.588 -33.513  1.00  0.00     0.019 A 
HETATM   12  O   UNL     1      -2.391  -3.800 -31.352  1.00  0.00    -0.267 OA
HETATM   13  N   UNL     1      -2.942  -1.623 -31.624  1.00  0.00    -0.309 N 
HETATM   14  H   UNL     1      -2.326  -1.442 -30.841  1.00  0.00     0.170 HD
HETATM   15  C   UNL     1      -4.953  -4.847 -34.580  1.00  0.00     0.001 A 
HETATM   16  C   UNL     1      -5.633  -3.798 -35.199  1.00  0.00     0.002 A 
ENDBRANCH   4   5
ENDBRANCH   2   4
BRANCH   2  17
HETATM   17  C   UNL     1      -5.519   1.701 -30.776  1.00  0.00     0.276 C 
BRANCH  17  18
HETATM   18  C   UNL     1      -6.910   2.218 -31.019  1.00  0.00     0.003 A 
HETATM   19  C   UNL     1      -7.772   1.572 -31.920  1.00  0.00     0.088 A 
HETATM   20  C   UNL     1      -9.052   2.074 -32.178  1.00  0.00     0.001 A 
HETATM   21  O   UNL     1      -7.285   0.458 -32.557  1.00  0.00    -0.325 OA
HETATM   22  C   UNL     1      -9.941   1.377 -33.164  1.00  0.00     0.212 C 
HETATM   23  C   UNL     1      -9.498   3.211 -31.492  1.00  0.00     0.036 A 
HETATM   24  O   UNL     1      -9.147   0.580 -34.034  1.00  0.00    -0.362 OA
HETATM   25  C   UNL     1      -8.300  -0.265 -33.271  1.00  0.00     0.345 C 
HETATM   26  C   UNL     1      -8.656   3.848 -30.584  1.00  0.00     0.035 A 
HETATM   27 CL   UNL     1      -9.195   5.254 -29.755  1.00  0.00    -0.084 Cl
HETATM   28  C   UNL     1      -7.369   3.363 -30.347  1.00  0.00     0.035 A 
ENDBRANCH  17  18
ENDBRANCH   2  17
TORSDOF 4
ENDMDL
MODEL 6
REMARK VINA RESULT:      -7.9      2.475      3.775
REMARK  4 active torsions:
REMARK  status: ('A' for Active; 'I' for Inactive)
REMARK    1  A    between atoms: N_2  and  C_4 
REMARK    2  A    between atoms: N_2  and  C_16 
REMARK    3  A    between atoms: C_4  and  C_5 
REMARK    4  A    between atoms: C_16  and  C_17 
ROOT
HETATM    1  C   UNL     1      -9.514   0.776 -33.216  1.00  0.00     0.270 C 
HETATM    2  N   UNL     1      -8.206   1.319 -33.715  1.00  0.00    -0.064 N 
HETATM    3  H   UNL     1      -7.507   1.107 -32.979  1.00  0.00     0.280 HD
ENDROOT
BRANCH   2   4
HETATM    4  C   UNL     1      -7.697   0.602 -34.954  1.00  0.00     0.312 C 
BRANCH   4   5
HETATM    5  C   UNL     1      -6.700  -0.496 -34.608  1.00  0.00     0.133 A 
HETATM    6  N   UNL     1      -6.969  -1.720 -34.940  1.00  0.00    -0.233 NA
HETATM    7  C   UNL     1      -6.016  -2.708 -34.615  1.00  0.00     0.074 A 
HETATM    8  C   UNL     1      -4.816  -2.409 -33.959  1.00  0.00     0.061 A 
HETATM    9  C   UNL     1      -6.270  -4.035 -34.965  1.00  0.00     0.032 A 
HETATM   10  C   UNL     1      -4.571  -1.004 -33.604  1.00  0.00     0.259 A 
HETATM   11  C   UNL     1      -3.880  -3.401 -33.655  1.00  0.00     0.019 A 
HETATM   12  O   UNL     1      -3.558  -0.625 -33.033  1.00  0.00    -0.267 OA
HETATM   13  N   UNL     1      -5.557  -0.118 -33.962  1.00  0.00    -0.309 N 
HETATM   14  H   UNL     1      -5.361   0.838 -33.690  1.00  0.00     0.170 HD
HETATM   15  C   UNL     1      -4.148  -4.721 -34.012  1.00  0.00     0.001 A 
HETATM   16  C   UNL     1      -5.340  -5.038 -34.665  1.00  0.00     0.002 A 
ENDBRANCH   4   5
ENDBRANCH   2   4
BRANCH   2  17
HETATM   17  C   UNL     1      -8.202   2.816 -33.886  1.00  0.00     0.276 C 
BRANCH  17  18
HETATM   18  C   UNL     1      -6.957   3.490 -33.379  1.00  0.00     0.003 A 
HETATM   19  C   UNL     1      -6.721   3.623 -32.002  1.00  0.00     0.088 A 
HETATM   20  C   UNL     1      -5.583   4.285 -31.527  1.00  0.00     0.001 A 
HETATM   21  O   UNL     1      -7.672   3.112 -31.154  1.00  0.00    -0.325 OA
HETATM   22  C   UNL     1      -5.370   4.435 -30.050  1.00  0.00     0.212 C 
HETATM   23  C   UNL     1      -4.643   4.781 -32.439  1.00  0.00     0.036 A 
HETATM   24  O   UNL     1      -6.614   4.288 -29.376  1.00  0.00    -0.362 OA
HETATM   25  C   UNL     1      -7.241   3.083 -29.784  1.00  0.00     0.345 C 
HETATM   26  C   UNL     1      -4.861   4.638 -33.807  1.00  0.00     0.035 A 
HETATM   27 CL   UNL     1      -3.717   5.261 -34.927  1.00  0.00    -0.084 Cl
HETATM   28  C   UNL     1      -6.009   4.001 -34.280  1.00  0.00     0.035 A 
ENDBRANCH  17  18
ENDBRANCH   2  17
TORSDOF 4
ENDMDL
MODEL 7
REMARK VINA RESULT:      -7.7      3.521      7.315
REMARK  4 active torsions:
REMARK  status: ('A' for Active; 'I' for Inactive)
REMARK    1  A    between atoms: N_2  and  C_4 
REMARK    2  A    between atoms: N_2  and  C_16 
REMARK    3  A    between atoms: C_4  and  C_5 
REMARK    4  A    between atoms: C_16  and  C_17 
ROOT
HETATM    1  C   UNL     1      -7.960   0.103 -32.630  1.00  0.00     0.270 C 
HETATM    2  N   UNL     1      -7.804   0.937 -33.868  1.00  0.00    -0.064 N 
HETATM    3  H   UNL     1      -8.607   0.700 -34.479  1.00  0.00     0.280 HD
ENDROOT
BRANCH   2   4
HETATM    4  C   UNL     1      -7.943   2.427 -33.603  1.00  0.00     0.312 C 
BRANCH   4   5
HETATM    5  C   UNL     1      -6.598   3.083 -33.318  1.00  0.00     0.133 A 
HETATM    6  N   UNL     1      -6.012   3.755 -34.259  1.00  0.00    -0.233 NA
HETATM    7  C   UNL     1      -4.774   4.359 -33.955  1.00  0.00     0.074 A 
HETATM    8  C   UNL     1      -4.176   4.257 -32.693  1.00  0.00     0.061 A 
HETATM    9  C   UNL     1      -4.118   5.097 -34.943  1.00  0.00     0.032 A 
HETATM   10  C   UNL     1      -4.888   3.478 -31.669  1.00  0.00     0.259 A 
HETATM   11  C   UNL     1      -2.954   4.872 -32.408  1.00  0.00     0.019 A 
HETATM   12  O   UNL     1      -4.465   3.323 -30.533  1.00  0.00    -0.267 OA
HETATM   13  N   UNL     1      -6.084   2.928 -32.062  1.00  0.00    -0.309 N 
HETATM   14  H   UNL     1      -6.539   2.388 -31.337  1.00  0.00     0.170 HD
HETATM   15  C   UNL     1      -2.314   5.605 -33.404  1.00  0.00     0.001 A 
HETATM   16  C   UNL     1      -2.894   5.716 -34.669  1.00  0.00     0.002 A 
ENDBRANCH   4   5
ENDBRANCH   2   4
BRANCH   2  17
HETATM   17  C   UNL     1      -6.561   0.617 -34.657  1.00  0.00     0.276 C 
BRANCH  17  18
HETATM   18  C   UNL     1      -5.967  -0.730 -34.350  1.00  0.00     0.003 A 
HETATM   19  C   UNL     1      -4.912  -0.859 -33.433  1.00  0.00     0.088 A 
HETATM   20  C   UNL     1      -4.331  -2.106 -33.176  1.00  0.00     0.001 A 
HETATM   21  O   UNL     1      -4.458   0.292 -32.839  1.00  0.00    -0.325 OA
HETATM   22  C   UNL     1      -3.188  -2.210 -32.210  1.00  0.00     0.212 C 
HETATM   23  C   UNL     1      -4.840  -3.248 -33.806  1.00  0.00     0.036 A 
HETATM   24  O   UNL     1      -2.570  -0.936 -32.071  1.00  0.00    -0.362 OA
HETATM   25  C   UNL     1      -3.549   0.040 -31.756  1.00  0.00     0.345 C 
HETATM   26  C   UNL     1      -5.899  -3.130 -34.704  1.00  0.00     0.035 A 
HETATM   27 CL   UNL     1      -6.513  -4.529 -35.492  1.00  0.00    -0.084 Cl
HETATM   28  C   UNL     1      -6.461  -1.884 -34.981  1.00  0.00     0.035 A 
ENDBRANCH  17  18
ENDBRANCH   2  17
TORSDOF 4
ENDMDL
MODEL 8
REMARK VINA RESULT:      -7.6      3.542      5.613
REMARK  4 active torsions:
REMARK  status: ('A' for Active; 'I' for Inactive)
REMARK    1  A    between atoms: N_2  and  C_4 
REMARK    2  A    between atoms: N_2  and  C_16 
REMARK    3  A    between atoms: C_4  and  C_5 
REMARK    4  A    between atoms: C_16  and  C_17 
ROOT
HETATM    1  C   UNL     1      -5.809   4.902 -29.264  1.00  0.00     0.270 C 
HETATM    2  N   UNL     1      -5.171   4.915 -30.624  1.00  0.00    -0.064 N 
HETATM    3  H   UNL     1      -4.320   4.326 -30.548  1.00  0.00     0.280 HD
ENDROOT
BRANCH   2   4
HETATM    4  C   UNL     1      -6.020   4.239 -31.686  1.00  0.00     0.312 C 
BRANCH   4   5
HETATM    5  C   UNL     1      -5.510   2.843 -32.020  1.00  0.00     0.133 A 
HETATM    6  N   UNL     1      -6.191   2.101 -32.837  1.00  0.00    -0.233 NA
HETATM    7  C   UNL     1      -5.680   0.820 -33.133  1.00  0.00     0.074 A 
HETATM    8  C   UNL     1      -4.486   0.339 -32.583  1.00  0.00     0.061 A 
HETATM    9  C   UNL     1      -6.384  -0.003 -34.016  1.00  0.00     0.032 A 
HETATM   10  C   UNL     1      -3.763   1.226 -31.659  1.00  0.00     0.259 A 
HETATM   11  C   UNL     1      -3.992  -0.929 -32.897  1.00  0.00     0.019 A 
HETATM   12  O   UNL     1      -2.710   0.915 -31.122  1.00  0.00    -0.267 OA
HETATM   13  N   UNL     1      -4.340   2.451 -31.434  1.00  0.00    -0.309 N 
HETATM   14  H   UNL     1      -3.822   3.029 -30.784  1.00  0.00     0.170 HD
HETATM   15  C   UNL     1      -4.706  -1.737 -33.779  1.00  0.00     0.001 A 
HETATM   16  C   UNL     1      -5.899  -1.276 -34.337  1.00  0.00     0.002 A 
ENDBRANCH   4   5
ENDBRANCH   2   4
BRANCH   2  17
HETATM   17  C   UNL     1      -4.705   6.281 -31.057  1.00  0.00     0.276 C 
BRANCH  17  18
HETATM   18  C   UNL     1      -3.260   6.336 -31.468  1.00  0.00     0.003 A 
HETATM   19  C   UNL     1      -2.868   5.988 -32.771  1.00  0.00     0.088 A 
HETATM   20  C   UNL     1      -1.519   6.000 -33.145  1.00  0.00     0.001 A 
HETATM   21  O   UNL     1      -3.860   5.603 -33.638  1.00  0.00    -0.325 OA
HETATM   22  C   UNL     1      -1.129   5.599 -34.536  1.00  0.00     0.212 C 
HETATM   23  C   UNL     1      -0.551   6.409 -32.219  1.00  0.00     0.036 A 
HETATM   24  O   UNL     1      -2.166   4.812 -35.109  1.00  0.00    -0.362 OA
HETATM   25  C   UNL     1      -3.404   5.494 -34.995  1.00  0.00     0.345 C 
HETATM   26  C   UNL     1      -0.933   6.772 -30.930  1.00  0.00     0.035 A 
HETATM   27 CL   UNL     1       0.257   7.257 -29.789  1.00  0.00    -0.084 Cl
HETATM   28  C   UNL     1      -2.275   6.735 -30.549  1.00  0.00     0.035 A 
ENDBRANCH  17  18
ENDBRANCH   2  17
TORSDOF 4
ENDMDL
MODEL 9
REMARK VINA RESULT:      -7.6      4.505      8.058
REMARK  4 active torsions:
REMARK  status: ('A' for Active; 'I' for Inactive)
REMARK    1  A    between atoms: N_2  and  C_4 
REMARK    2  A    between atoms: N_2  and  C_16 
REMARK    3  A    between atoms: C_4  and  C_5 
REMARK    4  A    between atoms: C_16  and  C_17 
ROOT
HETATM    1  C   UNL     1      -8.899   1.512 -32.115  1.00  0.00     0.270 C 
HETATM    2  N   UNL     1      -8.855   1.528 -33.616  1.00  0.00    -0.064 N 
HETATM    3  H   UNL     1      -9.231   0.612 -33.924  1.00  0.00     0.280 HD
ENDROOT
BRANCH   2   4
HETATM    4  C   UNL     1      -9.788   2.559 -34.228  1.00  0.00     0.312 C 
BRANCH   4   5
HETATM    5  C   UNL     1     -11.234   2.347 -33.797  1.00  0.00     0.133 A 
HETATM    6  N   UNL     1     -11.891   3.339 -33.283  1.00  0.00    -0.233 NA
HETATM    7  C   UNL     1     -13.231   3.108 -32.908  1.00  0.00     0.074 A 
HETATM    8  C   UNL     1     -13.856   1.866 -33.073  1.00  0.00     0.061 A 
HETATM    9  C   UNL     1     -13.971   4.157 -32.359  1.00  0.00     0.032 A 
HETATM   10  C   UNL     1     -13.055   0.779 -33.656  1.00  0.00     0.259 A 
HETATM   11  C   UNL     1     -15.188   1.661 -32.704  1.00  0.00     0.019 A 
HETATM   12  O   UNL     1     -13.495  -0.345 -33.850  1.00  0.00    -0.267 OA
HETATM   13  N   UNL     1     -11.763   1.102 -33.987  1.00  0.00    -0.309 N 
HETATM   14  H   UNL     1     -11.238   0.327 -34.374  1.00  0.00     0.170 HD
HETATM   15  C   UNL     1     -15.912   2.717 -32.158  1.00  0.00     0.001 A 
HETATM   16  C   UNL     1     -15.306   3.962 -31.985  1.00  0.00     0.002 A 
ENDBRANCH   4   5
ENDBRANCH   2   4
BRANCH   2  17
HETATM   17  C   UNL     1      -7.460   1.625 -34.176  1.00  0.00     0.276 C 
BRANCH  17  18
HETATM   18  C   UNL     1      -6.608   0.413 -33.918  1.00  0.00     0.003 A 
HETATM   19  C   UNL     1      -5.454   0.500 -33.123  1.00  0.00     0.088 A 
HETATM   20  C   UNL     1      -4.637  -0.617 -32.914  1.00  0.00     0.001 A 
HETATM   21  O   UNL     1      -5.150   1.732 -32.599  1.00  0.00    -0.325 OA
HETATM   22  C   UNL     1      -3.397  -0.488 -32.081  1.00  0.00     0.212 C 
HETATM   23  C   UNL     1      -5.002  -1.851 -33.468  1.00  0.00     0.036 A 
HETATM   24  O   UNL     1      -3.003   0.878 -32.030  1.00  0.00    -0.362 OA
HETATM   25  C   UNL     1      -4.100   1.679 -31.621  1.00  0.00     0.345 C 
HETATM   26  C   UNL     1      -6.154  -1.950 -34.244  1.00  0.00     0.035 A 
HETATM   27 CL   UNL     1      -6.593  -3.459 -34.938  1.00  0.00    -0.084 Cl
HETATM   28  C   UNL     1      -6.954  -0.830 -34.474  1.00  0.00     0.035 A 
ENDBRANCH  17  18
ENDBRANCH   2  17
TORSDOF 4
ENDMDL
MODEL 10
REMARK VINA RESULT:      -7.5      3.273      5.014
REMARK  4 active torsions:
REMARK  status: ('A' for Active; 'I' for Inactive)
REMARK    1  A    between atoms: N_2  and  C_4 
REMARK    2  A    between atoms: N_2  and  C_16 
REMARK    3  A    between atoms: C_4  and  C_5 
REMARK    4  A    between atoms: C_16  and  C_17 
ROOT
HETATM    1  C   UNL     1      -5.547   3.118 -30.088  1.00  0.00     0.270 C 
HETATM    2  N   UNL     1      -5.244   3.857 -31.360  1.00  0.00    -0.064 N 
HETATM    3  H   UNL     1      -4.430   3.376 -31.785  1.00  0.00     0.280 HD
ENDROOT
BRANCH   2   4
HETATM    4  C   UNL     1      -6.350   3.739 -32.394  1.00  0.00     0.312 C 
BRANCH   4   5
HETATM    5  C   UNL     1      -6.420   2.342 -32.998  1.00  0.00     0.133 A 
HETATM    6  N   UNL     1      -5.397   1.553 -32.881  1.00  0.00    -0.233 NA
HETATM    7  C   UNL     1      -5.502   0.263 -33.442  1.00  0.00     0.074 A 
HETATM    8  C   UNL     1      -6.654  -0.179 -34.103  1.00  0.00     0.061 A 
HETATM    9  C   UNL     1      -4.423  -0.615 -33.328  1.00  0.00     0.032 A 
HETATM   10  C   UNL     1      -7.778   0.764 -34.207  1.00  0.00     0.259 A 
HETATM   11  C   UNL     1      -6.743  -1.465 -34.643  1.00  0.00     0.019 A 
HETATM   12  O   UNL     1      -8.833   0.488 -34.759  1.00  0.00    -0.267 OA
HETATM   13  N   UNL     1      -7.578   1.995 -33.632  1.00  0.00    -0.309 N 
HETATM   14  H   UNL     1      -8.367   2.622 -33.734  1.00  0.00     0.170 HD
HETATM   15  C   UNL     1      -5.657  -2.329 -34.520  1.00  0.00     0.001 A 
HETATM   16  C   UNL     1      -4.500  -1.906 -33.865  1.00  0.00     0.002 A 
ENDBRANCH   4   5
ENDBRANCH   2   4
BRANCH   2  17
HETATM   17  C   UNL     1      -4.825   5.287 -31.140  1.00  0.00     0.276 C 
BRANCH  17  18
HETATM   18  C   UNL     1      -3.394   5.572 -31.502  1.00  0.00     0.003 A 
HETATM   19  C   UNL     1      -2.965   5.516 -32.838  1.00  0.00     0.088 A 
HETATM   20  C   UNL     1      -1.625   5.741 -33.174  1.00  0.00     0.001 A 
HETATM   21  O   UNL     1      -3.908   5.193 -33.782  1.00  0.00    -0.325 OA
HETATM   22  C   UNL     1      -1.191   5.649 -34.606  1.00  0.00     0.212 C 
HETATM   23  C   UNL     1      -0.709   6.073 -32.168  1.00  0.00     0.036 A 
HETATM   24  O   UNL     1      -2.134   4.875 -35.337  1.00  0.00    -0.362 OA
HETATM   25  C   UNL     1      -3.440   5.387 -35.126  1.00  0.00     0.345 C 
HETATM   26  C   UNL     1      -1.130   6.148 -30.843  1.00  0.00     0.035 A 
HETATM   27 CL   UNL     1      -0.003   6.539 -29.606  1.00  0.00    -0.084 Cl
HETATM   28  C   UNL     1      -2.460   5.898 -30.505  1.00  0.00     0.035 A 
ENDBRANCH  17  18
ENDBRANCH   2  17
TORSDOF 4
ENDMDL
