MODEL 1
REMARK VINA RESULT:      -8.4      0.000      0.000
REMARK  7 active torsions:
REMARK  status: ('A' for Active; 'I' for Inactive)
REMARK       I    between atoms: N_2  and  C_3 
REMARK    1  A    between atoms: N_2  and  C_17 
REMARK       I    between atoms: C_3  and  N_4 
REMARK    2  A    between atoms: N_4  and  C_5 
REMARK    3  A    between atoms: N_6  and  C_7 
REMARK    4  A    between atoms: C_17  and  C_18 
REMARK    5  A    between atoms: C_18  and  C_19 
REMARK    6  A    between atoms: C_19  and  O_20 
REMARK    7  A    between atoms: C_19  and  C_21 
ROOT
HETATM    1  C   UNL     1      -6.285   2.913 -31.262  1.00  0.00     0.154 C 
HETATM    2  N   UNL     1      -5.215   2.087 -31.801  1.00  0.00    -0.343 N 
HETATM    3  C   UNL     1      -4.014   2.603 -32.283  1.00  0.00     0.301 C 
HETATM    4  N   UNL     1      -4.147   3.882 -32.803  1.00  0.00    -0.194 NA
HETATM    5  O   UNL     1      -2.979   1.941 -32.317  1.00  0.00    -0.254 OA
HETATM    6  H   UNL     1      -4.990   3.946 -33.358  1.00  0.00     0.140 HD
ENDROOT
BRANCH   2   7
HETATM    7  C   UNL     1      -5.386   0.637 -31.729  1.00  0.00     0.129 C 
BRANCH   7   8
HETATM    8  C   UNL     1      -6.026   0.029 -32.975  1.00  0.00     0.056 C 
BRANCH   8   9
HETATM    9  C   UNL     1      -4.997  -0.724 -33.833  1.00  0.00     0.152 C 
BRANCH   9  10
HETATM   10  O   UNL     1      -3.750  -0.737 -33.136  1.00  0.00    -0.391 OA
HETATM   11  H   UNL     1      -3.438   0.182 -33.092  1.00  0.00     0.210 HD
ENDBRANCH   9  10
BRANCH   9  12
HETATM   12  C   UNL     1      -5.303  -2.163 -34.201  1.00  0.00    -0.030 A 
HETATM   13  C   UNL     1      -6.563  -2.602 -34.636  1.00  0.00     0.010 A 
HETATM   14  C   UNL     1      -6.794  -3.951 -34.923  1.00  0.00     0.001 A 
HETATM   15  C   UNL     1      -5.775  -4.886 -34.768  1.00  0.00     0.000 A 
HETATM   16  C   UNL     1      -4.522  -4.475 -34.325  1.00  0.00     0.001 A 
HETATM   17  C   UNL     1      -4.289  -3.126 -34.044  1.00  0.00     0.010 A 
ENDBRANCH   9  12
ENDBRANCH   8   9
ENDBRANCH   7   8
ENDBRANCH   2   7
BRANCH   4  18
HETATM   18  C   UNL     1      -3.039   4.512 -33.353  1.00  0.00     0.109 A 
HETATM   19  N   UNL     1      -1.915   4.936 -32.665  1.00  0.00    -0.254 N 
HETATM   20  N   UNL     1      -0.993   5.482 -33.494  1.00  0.00    -0.183 NA
HETATM   21  C   UNL     1      -1.573   5.466 -34.692  1.00  0.00     0.142 A 
HETATM   22  C   UNL     1      -2.866   4.922 -34.655  1.00  0.00     0.065 A 
BRANCH  19  23
HETATM   23  C   UNL     1      -1.741   5.033 -31.211  1.00  0.00     0.111 C 
HETATM   24  C   UNL     1      -0.272   5.110 -30.733  1.00  0.00     0.027 C 
HETATM   25  C   UNL     1       0.383   6.484 -30.924  1.00  0.00     0.002 C 
HETATM   26  C   UNL     1      -0.472   7.624 -30.383  1.00  0.00     0.000 C 
HETATM   27  C   UNL     1      -1.902   7.562 -30.906  1.00  0.00     0.002 C 
HETATM   28  C   UNL     1      -2.539   6.206 -30.609  1.00  0.00     0.027 C 
ENDBRANCH  19  23
ENDBRANCH   4  18
TORSDOF 7
ENDMDL
MODEL 2
REMARK VINA RESULT:      -8.1      1.800      8.957
REMARK  7 active torsions:
REMARK  status: ('A' for Active; 'I' for Inactive)
REMARK       I    between atoms: N_2  and  C_3 
REMARK    1  A    between atoms: N_2  and  C_17 
REMARK       I    between atoms: C_3  and  N_4 
REMARK    2  A    between atoms: N_4  and  C_5 
REMARK    3  A    between atoms: N_6  and  C_7 
REMARK    4  A    between atoms: C_17  and  C_18 
REMARK    5  A    between atoms: C_18  and  C_19 
REMARK    6  A    between atoms: C_19  and  O_20 
REMARK    7  A    between atoms: C_19  and  C_21 
ROOT
HETATM    1  C   UNL     1      -4.278   4.858 -33.902  1.00  0.00     0.154 C 
HETATM    2  N   UNL     1      -3.493   4.232 -32.848  1.00  0.00    -0.343 N 
HETATM    3  C   UNL     1      -3.800   2.991 -32.294  1.00  0.00     0.301 C 
HETATM    4  N   UNL     1      -5.158   2.711 -32.319  1.00  0.00    -0.194 NA
HETATM    5  O   UNL     1      -2.952   2.279 -31.762  1.00  0.00    -0.254 OA
HETATM    6  H   UNL     1      -5.688   3.533 -32.059  1.00  0.00     0.140 HD
ENDROOT
BRANCH   2   7
HETATM    7  C   UNL     1      -2.264   4.908 -32.437  1.00  0.00     0.129 C 
BRANCH   7   8
HETATM    8  C   UNL     1      -1.461   5.486 -33.600  1.00  0.00     0.056 C 
BRANCH   8   9
HETATM    9  C   UNL     1      -0.853   6.853 -33.248  1.00  0.00     0.152 C 
BRANCH   9  10
HETATM   10  O   UNL     1      -1.630   7.871 -33.884  1.00  0.00    -0.391 OA
HETATM   11  H   UNL     1      -1.620   7.683 -34.837  1.00  0.00     0.210 HD
ENDBRANCH   9  10
BRANCH   9  12
HETATM   12  C   UNL     1      -0.764   7.230 -31.782  1.00  0.00    -0.030 A 
HETATM   13  C   UNL     1      -1.715   8.026 -31.126  1.00  0.00     0.010 A 
HETATM   14  C   UNL     1      -1.557   8.373 -29.781  1.00  0.00     0.001 A 
HETATM   15  C   UNL     1      -0.441   7.940 -29.071  1.00  0.00     0.000 A 
HETATM   16  C   UNL     1       0.521   7.160 -29.704  1.00  0.00     0.001 A 
HETATM   17  C   UNL     1       0.360   6.809 -31.048  1.00  0.00     0.010 A 
ENDBRANCH   9  12
ENDBRANCH   8   9
ENDBRANCH   7   8
ENDBRANCH   2   7
BRANCH   4  18
HETATM   18  C   UNL     1      -5.619   1.523 -31.768  1.00  0.00     0.109 A 
HETATM   19  N   UNL     1      -5.544   0.269 -32.350  1.00  0.00    -0.254 N 
HETATM   20  N   UNL     1      -6.050  -0.693 -31.541  1.00  0.00    -0.183 NA
HETATM   21  C   UNL     1      -6.508  -0.029 -30.483  1.00  0.00     0.142 A 
HETATM   22  C   UNL     1      -6.314   1.356 -30.592  1.00  0.00     0.065 A 
BRANCH  19  23
HETATM   23  C   UNL     1      -5.191  -0.052 -33.738  1.00  0.00     0.111 C 
HETATM   24  C   UNL     1      -4.323  -1.320 -33.915  1.00  0.00     0.027 C 
HETATM   25  C   UNL     1      -5.098  -2.638 -33.785  1.00  0.00     0.002 C 
HETATM   26  C   UNL     1      -6.360  -2.666 -34.638  1.00  0.00     0.000 C 
HETATM   27  C   UNL     1      -7.228  -1.434 -34.412  1.00  0.00     0.002 C 
HETATM   28  C   UNL     1      -6.435  -0.151 -34.644  1.00  0.00     0.027 C 
ENDBRANCH  19  23
ENDBRANCH   4  18
TORSDOF 7
ENDMDL
MODEL 3
REMARK VINA RESULT:      -7.9      1.639      2.547
REMARK  7 active torsions:
REMARK  status: ('A' for Active; 'I' for Inactive)
REMARK       I    between atoms: N_2  and  C_3 
REMARK    1  A    between atoms: N_2  and  C_17 
REMARK       I    between atoms: C_3  and  N_4 
REMARK    2  A    between atoms: N_4  and  C_5 
REMARK    3  A    between atoms: N_6  and  C_7 
REMARK    4  A    between atoms: C_17  and  C_18 
REMARK    5  A    between atoms: C_18  and  C_19 
REMARK    6  A    between atoms: C_19  and  O_20 
REMARK    7  A    between atoms: C_19  and  C_21 
ROOT
HETATM    1  C   UNL     1      -4.944   1.241 -30.531  1.00  0.00     0.154 C 
HETATM    2  N   UNL     1      -5.697   1.905 -31.585  1.00  0.00    -0.343 N 
HETATM    3  C   UNL     1      -5.477   3.226 -31.971  1.00  0.00     0.301 C 
HETATM    4  N   UNL     1      -5.008   4.020 -30.935  1.00  0.00    -0.194 NA
HETATM    5  O   UNL     1      -5.764   3.641 -33.092  1.00  0.00    -0.254 OA
HETATM    6  H   UNL     1      -5.512   3.813 -30.082  1.00  0.00     0.140 HD
ENDROOT
BRANCH   2   7
HETATM    7  C   UNL     1      -6.656   1.096 -32.335  1.00  0.00     0.129 C 
BRANCH   7   8
HETATM    8  C   UNL     1      -6.307  -0.389 -32.379  1.00  0.00     0.056 C 
BRANCH   8   9
HETATM    9  C   UNL     1      -5.547  -0.757 -33.663  1.00  0.00     0.152 C 
BRANCH   9  10
HETATM   10  O   UNL     1      -4.169  -0.419 -33.486  1.00  0.00    -0.391 OA
HETATM   11  H   UNL     1      -3.886   0.051 -34.287  1.00  0.00     0.210 HD
ENDBRANCH   9  10
BRANCH   9  12
HETATM   12  C   UNL     1      -5.582  -2.205 -34.114  1.00  0.00    -0.030 A 
HETATM   13  C   UNL     1      -6.735  -2.835 -34.608  1.00  0.00     0.010 A 
HETATM   14  C   UNL     1      -6.715  -4.185 -34.971  1.00  0.00     0.001 A 
HETATM   15  C   UNL     1      -5.548  -4.932 -34.836  1.00  0.00     0.000 A 
HETATM   16  C   UNL     1      -4.397  -4.330 -34.337  1.00  0.00     0.001 A 
HETATM   17  C   UNL     1      -4.416  -2.979 -33.979  1.00  0.00     0.010 A 
ENDBRANCH   9  12
ENDBRANCH   8   9
ENDBRANCH   7   8
ENDBRANCH   2   7
BRANCH   4  18
HETATM   18  C   UNL     1      -4.778   5.369 -31.162  1.00  0.00     0.109 A 
HETATM   19  N   UNL     1      -3.618   5.925 -31.675  1.00  0.00    -0.254 N 
HETATM   20  N   UNL     1      -3.720   7.270 -31.811  1.00  0.00    -0.183 NA
HETATM   21  C   UNL     1      -4.919   7.562 -31.312  1.00  0.00     0.142 A 
HETATM   22  C   UNL     1      -5.599   6.427 -30.846  1.00  0.00     0.065 A 
BRANCH  19  23
HETATM   23  C   UNL     1      -2.321   5.267 -31.868  1.00  0.00     0.111 C 
HETATM   24  C   UNL     1      -2.268   4.258 -33.040  1.00  0.00     0.027 C 
HETATM   25  C   UNL     1      -2.168   4.907 -34.427  1.00  0.00     0.002 C 
HETATM   26  C   UNL     1      -1.070   5.960 -34.507  1.00  0.00     0.000 C 
HETATM   27  C   UNL     1      -1.169   6.975 -33.374  1.00  0.00     0.002 C 
HETATM   28  C   UNL     1      -1.171   6.283 -32.013  1.00  0.00     0.027 C 
ENDBRANCH  19  23
ENDBRANCH   4  18
TORSDOF 7
ENDMDL
MODEL 4
REMARK VINA RESULT:      -7.6      2.524      8.589
REMARK  7 active torsions:
REMARK  status: ('A' for Active; 'I' for Inactive)
REMARK       I    between atoms: N_2  and  C_3 
REMARK    1  A    between atoms: N_2  and  C_17 
REMARK       I    between atoms: C_3  and  N_4 
REMARK    2  A    between atoms: N_4  and  C_5 
REMARK    3  A    between atoms: N_6  and  C_7 
REMARK    4  A    between atoms: C_17  and  C_18 
REMARK    5  A    between atoms: C_18  and  C_19 
REMARK    6  A    between atoms: C_19  and  O_20 
REMARK    7  A    between atoms: C_19  and  C_21 
ROOT
HETATM    1  C   UNL     1      -4.388   5.571 -31.265  1.00  0.00     0.154 C 
HETATM    2  N   UNL     1      -4.721   5.402 -32.671  1.00  0.00    -0.343 N 
HETATM    3  C   UNL     1      -5.891   4.790 -33.117  1.00  0.00     0.301 C 
HETATM    4  N   UNL     1      -6.364   3.828 -32.236  1.00  0.00    -0.194 NA
HETATM    5  O   UNL     1      -6.382   5.028 -34.218  1.00  0.00    -0.254 OA
HETATM    6  H   UNL     1      -5.596   3.270 -31.885  1.00  0.00     0.140 HD
ENDROOT
BRANCH   2   7
HETATM    7  C   UNL     1      -3.819   6.007 -33.651  1.00  0.00     0.129 C 
BRANCH   7   8
HETATM    8  C   UNL     1      -2.490   5.270 -33.801  1.00  0.00     0.056 C 
BRANCH   8   9
HETATM    9  C   UNL     1      -1.293   6.196 -33.535  1.00  0.00     0.152 C 
BRANCH   9  10
HETATM   10  O   UNL     1      -1.632   7.511 -33.979  1.00  0.00    -0.391 OA
HETATM   11  H   UNL     1      -0.822   8.047 -33.928  1.00  0.00     0.210 HD
ENDBRANCH   9  10
BRANCH   9  12
HETATM   12  C   UNL     1      -0.812   6.333 -32.103  1.00  0.00    -0.030 A 
HETATM   13  C   UNL     1      -1.040   7.471 -31.314  1.00  0.00     0.010 A 
HETATM   14  C   UNL     1      -0.535   7.555 -30.012  1.00  0.00     0.001 A 
HETATM   15  C   UNL     1       0.216   6.510 -29.481  1.00  0.00     0.000 A 
HETATM   16  C   UNL     1       0.465   5.378 -30.251  1.00  0.00     0.001 A 
HETATM   17  C   UNL     1      -0.044   5.292 -31.550  1.00  0.00     0.010 A 
ENDBRANCH   9  12
ENDBRANCH   8   9
ENDBRANCH   7   8
ENDBRANCH   2   7
BRANCH   4  18
HETATM   18  C   UNL     1      -7.504   3.107 -32.564  1.00  0.00     0.109 A 
HETATM   19  N   UNL     1      -7.548   1.948 -33.321  1.00  0.00    -0.254 N 
HETATM   20  N   UNL     1      -8.810   1.466 -33.431  1.00  0.00    -0.183 NA
HETATM   21  C   UNL     1      -9.564   2.367 -32.804  1.00  0.00     0.142 A 
HETATM   22  C   UNL     1      -8.812   3.434 -32.291  1.00  0.00     0.065 A 
BRANCH  19  23
HETATM   23  C   UNL     1      -6.468   1.364 -34.125  1.00  0.00     0.111 C 
HETATM   24  C   UNL     1      -5.415   0.565 -33.322  1.00  0.00     0.027 C 
HETATM   25  C   UNL     1      -5.878  -0.833 -32.890  1.00  0.00     0.002 C 
HETATM   26  C   UNL     1      -6.476  -1.636 -34.039  1.00  0.00     0.000 C 
HETATM   27  C   UNL     1      -7.548  -0.852 -34.785  1.00  0.00     0.002 C 
HETATM   28  C   UNL     1      -7.010   0.490 -35.274  1.00  0.00     0.027 C 
ENDBRANCH  19  23
ENDBRANCH   4  18
TORSDOF 7
ENDMDL
MODEL 5
REMARK VINA RESULT:      -7.5      4.629      7.996
REMARK  7 active torsions:
REMARK  status: ('A' for Active; 'I' for Inactive)
REMARK       I    between atoms: N_2  and  C_3 
REMARK    1  A    between atoms: N_2  and  C_17 
REMARK       I    between atoms: C_3  and  N_4 
REMARK    2  A    between atoms: N_4  and  C_5 
REMARK    3  A    between atoms: N_6  and  C_7 
REMARK    4  A    between atoms: C_17  and  C_18 
REMARK    5  A    between atoms: C_18  and  C_19 
REMARK    6  A    between atoms: C_19  and  O_20 
REMARK    7  A    between atoms: C_19  and  C_21 
ROOT
HETATM    1  C   UNL     1      -6.725   3.974 -33.804  1.00  0.00     0.154 C 
HETATM    2  N   UNL     1      -7.052   3.185 -32.626  1.00  0.00    -0.343 N 
HETATM    3  C   UNL     1      -8.353   3.002 -32.160  1.00  0.00     0.301 C 
HETATM    4  N   UNL     1      -9.187   4.071 -32.456  1.00  0.00    -0.194 NA
HETATM    5  O   UNL     1      -8.680   2.031 -31.482  1.00  0.00    -0.254 OA
HETATM    6  H   UNL     1      -8.703   4.945 -32.293  1.00  0.00     0.140 HD
ENDROOT
BRANCH   2   7
HETATM    7  C   UNL     1      -5.957   2.471 -31.972  1.00  0.00     0.129 C 
BRANCH   7   8
HETATM    8  C   UNL     1      -5.308   1.403 -32.849  1.00  0.00     0.056 C 
BRANCH   8   9
HETATM    9  C   UNL     1      -5.447   0.001 -32.235  1.00  0.00     0.152 C 
BRANCH   9  10
HETATM   10  O   UNL     1      -6.650  -0.039 -31.466  1.00  0.00    -0.391 OA
HETATM   11  H   UNL     1      -7.352   0.350 -32.014  1.00  0.00     0.210 HD
ENDBRANCH   9  10
BRANCH   9  12
HETATM   12  C   UNL     1      -5.498  -1.183 -33.182  1.00  0.00    -0.030 A 
HETATM   13  C   UNL     1      -4.364  -1.902 -33.587  1.00  0.00     0.010 A 
HETATM   14  C   UNL     1      -4.471  -2.960 -34.495  1.00  0.00     0.001 A 
HETATM   15  C   UNL     1      -5.710  -3.310 -35.023  1.00  0.00     0.000 A 
HETATM   16  C   UNL     1      -6.846  -2.602 -34.644  1.00  0.00     0.001 A 
HETATM   17  C   UNL     1      -6.740  -1.547 -33.733  1.00  0.00     0.010 A 
ENDBRANCH   9  12
ENDBRANCH   8   9
ENDBRANCH   7   8
ENDBRANCH   2   7
BRANCH   4  18
HETATM   18  C   UNL     1     -10.505   4.046 -32.022  1.00  0.00     0.109 A 
HETATM   19  N   UNL     1     -11.559   3.402 -32.648  1.00  0.00    -0.254 N 
HETATM   20  N   UNL     1     -12.715   3.536 -31.954  1.00  0.00    -0.183 NA
HETATM   21  C   UNL     1     -12.398   4.327 -30.933  1.00  0.00     0.142 A 
HETATM   22  C   UNL     1     -11.051   4.718 -30.953  1.00  0.00     0.065 A 
BRANCH  19  23
HETATM   23  C   UNL     1     -11.576   2.816 -33.994  1.00  0.00     0.111 C 
HETATM   24  C   UNL     1     -11.026   1.373 -34.086  1.00  0.00     0.027 C 
HETATM   25  C   UNL     1     -11.995   0.295 -33.582  1.00  0.00     0.002 C 
HETATM   26  C   UNL     1     -13.390   0.433 -34.179  1.00  0.00     0.000 C 
HETATM   27  C   UNL     1     -13.936   1.847 -34.033  1.00  0.00     0.002 C 
HETATM   28  C   UNL     1     -12.978   2.873 -34.633  1.00  0.00     0.027 C 
ENDBRANCH  19  23
ENDBRANCH   4  18
TORSDOF 7
ENDMDL
MODEL 6
REMARK VINA RESULT:      -7.4      2.817      9.043
REMARK  7 active torsions:
REMARK  status: ('A' for Active; 'I' for Inactive)
REMARK       I    between atoms: N_2  and  C_3 
REMARK    1  A    between atoms: N_2  and  C_17 
REMARK       I    between atoms: C_3  and  N_4 
REMARK    2  A    between atoms: N_4  and  C_5 
REMARK    3  A    between atoms: N_6  and  C_7 
REMARK    4  A    between atoms: C_17  and  C_18 
REMARK    5  A    between atoms: C_18  and  C_19 
REMARK    6  A    between atoms: C_19  and  O_20 
REMARK    7  A    between atoms: C_19  and  C_21 
ROOT
HETATM    1  C   UNL     1      -1.834   4.779 -33.314  1.00  0.00     0.154 C 
HETATM    2  N   UNL     1      -2.449   5.638 -32.313  1.00  0.00    -0.343 N 
HETATM    3  C   UNL     1      -3.638   5.325 -31.657  1.00  0.00     0.301 C 
HETATM    4  N   UNL     1      -4.489   4.545 -32.427  1.00  0.00    -0.194 NA
HETATM    5  O   UNL     1      -3.921   5.780 -30.552  1.00  0.00    -0.254 OA
HETATM    6  H   UNL     1      -4.503   4.883 -33.381  1.00  0.00     0.140 HD
ENDROOT
BRANCH   2   7
HETATM    7  C   UNL     1      -1.711   6.834 -31.911  1.00  0.00     0.129 C 
BRANCH   7   8
HETATM    8  C   UNL     1      -0.359   6.536 -31.267  1.00  0.00     0.056 C 
BRANCH   8   9
HETATM    9  C   UNL     1      -0.518   5.982 -29.842  1.00  0.00     0.152 C 
BRANCH   9  10
HETATM   10  O   UNL     1       0.029   4.662 -29.808  1.00  0.00    -0.391 OA
HETATM   11  H   UNL     1       0.996   4.754 -29.813  1.00  0.00     0.210 HD
ENDBRANCH   9  10
BRANCH   9  12
HETATM   12  C   UNL     1       0.134   6.750 -28.709  1.00  0.00    -0.030 A 
HETATM   13  C   UNL     1       0.949   7.876 -28.903  1.00  0.00     0.010 A 
HETATM   14  C   UNL     1       1.555   8.519 -27.819  1.00  0.00     0.001 A 
HETATM   15  C   UNL     1       1.369   8.041 -26.525  1.00  0.00     0.000 A 
HETATM   16  C   UNL     1       0.576   6.918 -26.312  1.00  0.00     0.001 A 
HETATM   17  C   UNL     1      -0.035   6.278 -27.394  1.00  0.00     0.010 A 
ENDBRANCH   9  12
ENDBRANCH   8   9
ENDBRANCH   7   8
ENDBRANCH   2   7
BRANCH   4  18
HETATM   18  C   UNL     1      -5.729   4.185 -31.919  1.00  0.00     0.109 A 
HETATM   19  N   UNL     1      -5.988   3.114 -31.081  1.00  0.00    -0.254 N 
HETATM   20  N   UNL     1      -7.296   3.052 -30.731  1.00  0.00    -0.183 NA
HETATM   21  C   UNL     1      -7.867   4.043 -31.412  1.00  0.00     0.142 A 
HETATM   22  C   UNL     1      -6.951   4.747 -32.207  1.00  0.00     0.065 A 
BRANCH  19  23
HETATM   23  C   UNL     1      -5.086   2.008 -30.738  1.00  0.00     0.111 C 
HETATM   24  C   UNL     1      -5.724   0.883 -29.889  1.00  0.00     0.027 C 
HETATM   25  C   UNL     1      -6.627  -0.071 -30.683  1.00  0.00     0.002 C 
HETATM   26  C   UNL     1      -5.961  -0.595 -31.949  1.00  0.00     0.000 C 
HETATM   27  C   UNL     1      -5.384   0.530 -32.798  1.00  0.00     0.002 C 
HETATM   28  C   UNL     1      -4.421   1.394 -31.987  1.00  0.00     0.027 C 
ENDBRANCH  19  23
ENDBRANCH   4  18
TORSDOF 7
ENDMDL
MODEL 7
REMARK VINA RESULT:      -7.3      2.010      2.837
REMARK  7 active torsions:
REMARK  status: ('A' for Active; 'I' for Inactive)
REMARK       I    between atoms: N_2  and  C_3 
REMARK    1  A    between atoms: N_2  and  C_17 
REMARK       I    between atoms: C_3  and  N_4 
REMARK    2  A    between atoms: N_4  and  C_5 
REMARK    3  A    between atoms: N_6  and  C_7 
REMARK    4  A    between atoms: C_17  and  C_18 
REMARK    5  A    between atoms: C_18  and  C_19 
REMARK    6  A    between atoms: C_19  and  O_20 
REMARK    7  A    between atoms: C_19  and  C_21 
ROOT
HETATM    1  C   UNL     1      -6.859   5.581 -29.975  1.00  0.00     0.154 C 
HETATM    2  N   UNL     1      -6.477   4.282 -30.509  1.00  0.00    -0.343 N 
HETATM    3  C   UNL     1      -5.305   4.060 -31.229  1.00  0.00     0.301 C 
HETATM    4  N   UNL     1      -4.886   5.180 -31.934  1.00  0.00    -0.194 NA
HETATM    5  O   UNL     1      -4.769   2.957 -31.292  1.00  0.00    -0.254 OA
HETATM    6  H   UNL     1      -5.678   5.631 -32.372  1.00  0.00     0.140 HD
ENDROOT
BRANCH   2   7
HETATM    7  C   UNL     1      -7.329   3.143 -30.171  1.00  0.00     0.129 C 
BRANCH   7   8
HETATM    8  C   UNL     1      -8.099   2.576 -31.362  1.00  0.00     0.056 C 
BRANCH   8   9
HETATM    9  C   UNL     1      -7.996   1.044 -31.429  1.00  0.00     0.152 C 
BRANCH   9  10
HETATM   10  O   UNL     1      -9.272   0.490 -31.105  1.00  0.00    -0.391 OA
HETATM   11  H   UNL     1      -9.740   1.148 -30.565  1.00  0.00     0.210 HD
ENDBRANCH   9  10
BRANCH   9  12
HETATM   12  C   UNL     1      -7.576   0.423 -32.748  1.00  0.00    -0.030 A 
HETATM   13  C   UNL     1      -8.083   0.827 -33.992  1.00  0.00     0.010 A 
HETATM   14  C   UNL     1      -7.687   0.188 -35.171  1.00  0.00     0.001 A 
HETATM   15  C   UNL     1      -6.789  -0.874 -35.126  1.00  0.00     0.000 A 
HETATM   16  C   UNL     1      -6.284  -1.301 -33.902  1.00  0.00     0.001 A 
HETATM   17  C   UNL     1      -6.676  -0.658 -32.724  1.00  0.00     0.010 A 
ENDBRANCH   9  12
ENDBRANCH   8   9
ENDBRANCH   7   8
ENDBRANCH   2   7
BRANCH   4  18
HETATM   18  C   UNL     1      -3.750   5.098 -32.727  1.00  0.00     0.109 A 
HETATM   19  N   UNL     1      -2.441   5.052 -32.278  1.00  0.00    -0.254 N 
HETATM   20  N   UNL     1      -1.561   4.937 -33.302  1.00  0.00    -0.183 NA
HETATM   21  C   UNL     1      -2.317   4.986 -34.396  1.00  0.00     0.142 A 
HETATM   22  C   UNL     1      -3.680   5.138 -34.101  1.00  0.00     0.065 A 
BRANCH  19  23
HETATM   23  C   UNL     1      -1.953   5.311 -30.918  1.00  0.00     0.111 C 
HETATM   24  C   UNL     1      -0.530   4.782 -30.623  1.00  0.00     0.027 C 
HETATM   25  C   UNL     1       0.597   5.640 -31.213  1.00  0.00     0.002 C 
HETATM   26  C   UNL     1       0.440   7.121 -30.889  1.00  0.00     0.000 C 
HETATM   27  C   UNL     1      -0.951   7.636 -31.234  1.00  0.00     0.002 C 
HETATM   28  C   UNL     1      -2.033   6.805 -30.548  1.00  0.00     0.027 C 
ENDBRANCH  19  23
ENDBRANCH   4  18
TORSDOF 7
ENDMDL
MODEL 8
REMARK VINA RESULT:      -7.3      1.919      2.857
REMARK  7 active torsions:
REMARK  status: ('A' for Active; 'I' for Inactive)
REMARK       I    between atoms: N_2  and  C_3 
REMARK    1  A    between atoms: N_2  and  C_17 
REMARK       I    between atoms: C_3  and  N_4 
REMARK    2  A    between atoms: N_4  and  C_5 
REMARK    3  A    between atoms: N_6  and  C_7 
REMARK    4  A    between atoms: C_17  and  C_18 
REMARK    5  A    between atoms: C_18  and  C_19 
REMARK    6  A    between atoms: C_19  and  O_20 
REMARK    7  A    between atoms: C_19  and  C_21 
ROOT
HETATM    1  C   UNL     1      -7.217   4.480 -33.298  1.00  0.00     0.154 C 
HETATM    2  N   UNL     1      -6.098   3.730 -32.746  1.00  0.00    -0.343 N 
HETATM    3  C   UNL     1      -5.322   4.180 -31.680  1.00  0.00     0.301 C 
HETATM    4  N   UNL     1      -5.248   5.564 -31.614  1.00  0.00    -0.194 NA
HETATM    5  O   UNL     1      -4.704   3.414 -30.945  1.00  0.00    -0.254 OA
HETATM    6  H   UNL     1      -5.119   5.950 -32.541  1.00  0.00     0.140 HD
ENDROOT
BRANCH   2   7
HETATM    7  C   UNL     1      -5.858   2.392 -33.283  1.00  0.00     0.129 C 
BRANCH   7   8
HETATM    8  C   UNL     1      -6.696   1.302 -32.617  1.00  0.00     0.056 C 
BRANCH   8   9
HETATM    9  C   UNL     1      -5.839   0.091 -32.217  1.00  0.00     0.152 C 
BRANCH   9  10
HETATM   10  O   UNL     1      -6.340  -0.430 -30.984  1.00  0.00    -0.391 OA
HETATM   11  H   UNL     1      -6.316   0.295 -30.337  1.00  0.00     0.210 HD
ENDBRANCH   9  10
BRANCH   9  12
HETATM   12  C   UNL     1      -5.771  -1.076 -33.183  1.00  0.00    -0.030 A 
HETATM   13  C   UNL     1      -6.887  -1.587 -33.862  1.00  0.00     0.010 A 
HETATM   14  C   UNL     1      -6.768  -2.692 -34.710  1.00  0.00     0.001 A 
HETATM   15  C   UNL     1      -5.535  -3.313 -34.886  1.00  0.00     0.000 A 
HETATM   16  C   UNL     1      -4.417  -2.830 -34.213  1.00  0.00     0.001 A 
HETATM   17  C   UNL     1      -4.535  -1.722 -33.369  1.00  0.00     0.010 A 
ENDBRANCH   9  12
ENDBRANCH   8   9
ENDBRANCH   7   8
ENDBRANCH   2   7
BRANCH   4  18
HETATM   18  C   UNL     1      -4.479   6.158 -30.624  1.00  0.00     0.109 A 
HETATM   19  N   UNL     1      -3.172   6.596 -30.757  1.00  0.00    -0.254 N 
HETATM   20  N   UNL     1      -2.712   7.165 -29.616  1.00  0.00    -0.183 NA
HETATM   21  C   UNL     1      -3.709   7.015 -28.746  1.00  0.00     0.142 A 
HETATM   22  C   UNL     1      -4.811   6.350 -29.302  1.00  0.00     0.065 A 
BRANCH  19  23
HETATM   23  C   UNL     1      -2.248   6.328 -31.865  1.00  0.00     0.111 C 
HETATM   24  C   UNL     1      -1.106   7.359 -32.028  1.00  0.00     0.027 C 
HETATM   25  C   UNL     1       0.034   7.204 -31.012  1.00  0.00     0.002 C 
HETATM   26  C   UNL     1       0.544   5.771 -30.914  1.00  0.00     0.000 C 
HETATM   27  C   UNL     1      -0.589   4.776 -30.701  1.00  0.00     0.002 C 
HETATM   28  C   UNL     1      -1.651   4.908 -31.791  1.00  0.00     0.027 C 
ENDBRANCH  19  23
ENDBRANCH   4  18
TORSDOF 7
ENDMDL
MODEL 9
REMARK VINA RESULT:      -7.2      2.255      3.724
REMARK  7 active torsions:
REMARK  status: ('A' for Active; 'I' for Inactive)
REMARK       I    between atoms: N_2  and  C_3 
REMARK    1  A    between atoms: N_2  and  C_17 
REMARK       I    between atoms: C_3  and  N_4 
REMARK    2  A    between atoms: N_4  and  C_5 
REMARK    3  A    between atoms: N_6  and  C_7 
REMARK    4  A    between atoms: C_17  and  C_18 
REMARK    5  A    between atoms: C_18  and  C_19 
REMARK    6  A    between atoms: C_19  and  O_20 
REMARK    7  A    between atoms: C_19  and  C_21 
ROOT
HETATM    1  C   UNL     1      -8.693   4.869 -31.274  1.00  0.00     0.154 C 
HETATM    2  N   UNL     1      -7.663   3.939 -30.835  1.00  0.00    -0.343 N 
HETATM    3  C   UNL     1      -6.401   4.339 -30.399  1.00  0.00     0.301 C 
HETATM    4  N   UNL     1      -5.975   5.518 -30.993  1.00  0.00    -0.194 NA
HETATM    5  O   UNL     1      -5.719   3.655 -29.641  1.00  0.00    -0.254 OA
HETATM    6  H   UNL     1      -6.198   5.511 -31.980  1.00  0.00     0.140 HD
ENDROOT
BRANCH   2   7
HETATM    7  C   UNL     1      -8.026   2.525 -30.756  1.00  0.00     0.129 C 
BRANCH   7   8
HETATM    8  C   UNL     1      -7.565   1.702 -31.956  1.00  0.00     0.056 C 
BRANCH   8   9
HETATM    9  C   UNL     1      -6.575   0.601 -31.545  1.00  0.00     0.152 C 
BRANCH   9  10
HETATM   10  O   UNL     1      -7.107  -0.084 -30.409  1.00  0.00    -0.391 OA
HETATM   11  H   UNL     1      -8.051  -0.235 -30.584  1.00  0.00     0.210 HD
ENDBRANCH   9  10
BRANCH   9  12
HETATM   12  C   UNL     1      -6.236  -0.463 -32.571  1.00  0.00    -0.030 A 
HETATM   13  C   UNL     1      -4.959  -1.028 -32.710  1.00  0.00     0.010 A 
HETATM   14  C   UNL     1      -4.698  -1.977 -33.703  1.00  0.00     0.001 A 
HETATM   15  C   UNL     1      -5.704  -2.369 -34.582  1.00  0.00     0.000 A 
HETATM   16  C   UNL     1      -6.974  -1.813 -34.470  1.00  0.00     0.001 A 
HETATM   17  C   UNL     1      -7.237  -0.868 -33.474  1.00  0.00     0.010 A 
ENDBRANCH   9  12
ENDBRANCH   8   9
ENDBRANCH   7   8
ENDBRANCH   2   7
BRANCH   4  18
HETATM   18  C   UNL     1      -4.719   6.021 -30.683  1.00  0.00     0.109 A 
HETATM   19  N   UNL     1      -3.521   5.640 -31.263  1.00  0.00    -0.254 N 
HETATM   20  N   UNL     1      -2.475   6.345 -30.767  1.00  0.00    -0.183 NA
HETATM   21  C   UNL     1      -3.011   7.114 -29.823  1.00  0.00     0.142 A 
HETATM   22  C   UNL     1      -4.394   6.918 -29.691  1.00  0.00     0.065 A 
BRANCH  19  23
HETATM   23  C   UNL     1      -3.279   4.488 -32.139  1.00  0.00     0.111 C 
HETATM   24  C   UNL     1      -4.243   4.367 -33.342  1.00  0.00     0.027 C 
HETATM   25  C   UNL     1      -3.939   5.334 -34.494  1.00  0.00     0.002 C 
HETATM   26  C   UNL     1      -2.473   5.311 -34.910  1.00  0.00     0.000 C 
HETATM   27  C   UNL     1      -1.539   5.483 -33.719  1.00  0.00     0.002 C 
HETATM   28  C   UNL     1      -1.822   4.439 -32.642  1.00  0.00     0.027 C 
ENDBRANCH  19  23
ENDBRANCH   4  18
TORSDOF 7
ENDMDL
MODEL 10
REMARK VINA RESULT:      -7.2      5.061      7.382
REMARK  7 active torsions:
REMARK  status: ('A' for Active; 'I' for Inactive)
REMARK       I    between atoms: N_2  and  C_3 
REMARK    1  A    between atoms: N_2  and  C_17 
REMARK       I    between atoms: C_3  and  N_4 
REMARK    2  A    between atoms: N_4  and  C_5 
REMARK    3  A    between atoms: N_6  and  C_7 
REMARK    4  A    between atoms: C_17  and  C_18 
REMARK    5  A    between atoms: C_18  and  C_19 
REMARK    6  A    between atoms: C_19  and  O_20 
REMARK    7  A    between atoms: C_19  and  C_21 
ROOT
HETATM    1  C   UNL     1      -9.404   2.151 -31.779  1.00  0.00     0.154 C 
HETATM    2  N   UNL     1      -8.715   2.636 -32.966  1.00  0.00    -0.343 N 
HETATM    3  C   UNL     1      -7.327   2.684 -33.084  1.00  0.00     0.301 C 
HETATM    4  N   UNL     1      -6.689   2.865 -31.865  1.00  0.00    -0.194 NA
HETATM    5  O   UNL     1      -6.757   2.659 -34.171  1.00  0.00    -0.254 OA
HETATM    6  H   UNL     1      -7.181   3.558 -31.315  1.00  0.00     0.140 HD
ENDROOT
BRANCH   2   7
HETATM    7  C   UNL     1      -9.538   2.988 -34.122  1.00  0.00     0.129 C 
BRANCH   7   8
HETATM    8  C   UNL     1     -10.549   1.911 -34.508  1.00  0.00     0.056 C 
BRANCH   8   9
HETATM    9  C   UNL     1     -11.863   2.522 -35.021  1.00  0.00     0.152 C 
BRANCH   9  10
HETATM   10  O   UNL     1     -12.174   1.931 -36.284  1.00  0.00    -0.391 OA
HETATM   11  H   UNL     1     -13.130   2.039 -36.422  1.00  0.00     0.210 HD
ENDBRANCH   9  10
BRANCH   9  12
HETATM   12  C   UNL     1     -13.098   2.369 -34.155  1.00  0.00    -0.030 A 
HETATM   13  C   UNL     1     -13.428   3.246 -33.111  1.00  0.00     0.010 A 
HETATM   14  C   UNL     1     -14.561   3.029 -32.321  1.00  0.00     0.001 A 
HETATM   15  C   UNL     1     -15.377   1.926 -32.552  1.00  0.00     0.000 A 
HETATM   16  C   UNL     1     -15.062   1.036 -33.573  1.00  0.00     0.001 A 
HETATM   17  C   UNL     1     -13.932   1.256 -34.367  1.00  0.00     0.010 A 
ENDBRANCH   9  12
ENDBRANCH   8   9
ENDBRANCH   7   8
ENDBRANCH   2   7
BRANCH   4  18
HETATM   18  C   UNL     1      -5.306   2.969 -31.830  1.00  0.00     0.109 A 
HETATM   19  N   UNL     1      -4.415   1.937 -31.585  1.00  0.00    -0.254 N 
HETATM   20  N   UNL     1      -3.128   2.355 -31.656  1.00  0.00    -0.183 NA
HETATM   21  C   UNL     1      -3.217   3.665 -31.872  1.00  0.00     0.142 A 
HETATM   22  C   UNL     1      -4.545   4.110 -31.937  1.00  0.00     0.065 A 
BRANCH  19  23
HETATM   23  C   UNL     1      -4.722   0.591 -31.086  1.00  0.00     0.111 C 
HETATM   24  C   UNL     1      -5.914  -0.107 -31.782  1.00  0.00     0.027 C 
HETATM   25  C   UNL     1      -5.590  -0.673 -33.171  1.00  0.00     0.002 C 
HETATM   26  C   UNL     1      -4.324  -1.520 -33.181  1.00  0.00     0.000 C 
HETATM   27  C   UNL     1      -3.148  -0.796 -32.539  1.00  0.00     0.002 C 
HETATM   28  C   UNL     1      -3.490  -0.335 -31.124  1.00  0.00     0.027 C 
ENDBRANCH  19  23
ENDBRANCH   4  18
TORSDOF 7
ENDMDL
