MODEL 1
REMARK VINA RESULT:      -8.8      0.000      0.000
REMARK  8 active torsions:
REMARK  status: ('A' for Active; 'I' for Inactive)
REMARK    1  A    between atoms: O_2  and  C_3 
REMARK    2  A    between atoms: C_6  and  C_7 
REMARK    3  A    between atoms: C_7  and  N_8 
REMARK       I    between atoms: N_8  and  C_9 
REMARK    4  A    between atoms: C_9  and  C_10 
REMARK    5  A    between atoms: C_10  and  C_11 
REMARK    6  A    between atoms: C_11  and  N_12 
REMARK    7  A    between atoms: N_12  and  S_13 
REMARK    8  A    between atoms: S_13  and  C_14 
ROOT
HETATM    1  N   UNL     1      -5.095   2.360 -30.357  1.00  0.00    -0.315 N 
HETATM    2  H   UNL     1      -5.399   1.405 -30.170  1.00  0.00     0.172 HD
ENDROOT
BRANCH   1   3
HETATM    3  C   UNL     1      -6.021   3.470 -30.091  1.00  0.00     0.141 C 
BRANCH   3   4
HETATM    4  C   UNL     1      -7.432   2.919 -29.966  1.00  0.00     0.123 C 
BRANCH   4   5
HETATM    5  C   UNL     1      -7.786   2.093 -31.178  1.00  0.00     0.219 C 
HETATM    6  N   UNL     1      -8.103   2.817 -32.301  1.00  0.00    -0.357 N 
HETATM    7  H   UNL     1      -8.080   3.828 -32.287  1.00  0.00     0.162 HD
HETATM    8  O   UNL     1      -7.801   0.866 -31.131  1.00  0.00    -0.274 OA
BRANCH   6   9
HETATM    9  C   UNL     1      -8.362   2.173 -33.572  1.00  0.00     0.161 C 
BRANCH   9  10
HETATM   10  C   UNL     1      -9.831   2.049 -33.887  1.00  0.00    -0.040 A 
HETATM   11  C   UNL     1     -10.452   3.009 -34.700  1.00  0.00     0.011 A 
HETATM   12  C   UNL     1     -11.789   2.868 -35.091  1.00  0.00     0.037 A 
HETATM   13  C   UNL     1     -12.522   1.756 -34.682  1.00  0.00     0.068 A 
HETATM   14  C   UNL     1     -11.919   0.805 -33.859  1.00  0.00     0.037 A 
HETATM   15  C   UNL     1     -10.581   0.939 -33.477  1.00  0.00     0.011 A 
BRANCH  13  16
HETATM   16  O   UNL     1     -13.825   1.495 -35.011  1.00  0.00    -0.356 OA
HETATM   17  C   UNL     1     -14.552   0.686 -34.094  1.00  0.00     0.210 C 
ENDBRANCH  13  16
ENDBRANCH   9  10
ENDBRANCH   6   9
ENDBRANCH   4   5
ENDBRANCH   3   4
ENDBRANCH   1   3
BRANCH   1  18
HETATM   18  S   UNL     1      -4.123   2.432 -31.727  1.00  0.00     0.258 S 
HETATM   19  O   UNL     1      -4.844   3.240 -32.684  1.00  0.00    -0.201 OA
HETATM   20  O   UNL     1      -2.785   2.773 -31.295  1.00  0.00    -0.201 OA
BRANCH  18  21
HETATM   21  C   UNL     1      -4.133   0.766 -32.325  1.00  0.00     0.080 A 
HETATM   22  C   UNL     1      -5.115   0.352 -33.226  1.00  0.00     0.034 A 
HETATM   23  C   UNL     1      -5.196  -0.991 -33.667  1.00  0.00    -0.030 A 
HETATM   24  C   UNL     1      -4.237  -1.906 -33.211  1.00  0.00     0.041 A 
HETATM   25  C   UNL     1      -6.313  -1.287 -34.631  1.00  0.00     0.041 C 
HETATM   26  N   UNL     1      -4.143  -3.270 -33.533  1.00  0.00    -0.327 N 
HETATM   27  C   UNL     1      -3.244  -1.460 -32.309  1.00  0.00     0.031 A 
HETATM   28  C   UNL     1      -4.848  -4.125 -34.311  1.00  0.00     0.222 C 
HETATM   29  H   UNL     1      -3.388  -3.779 -33.085  1.00  0.00     0.169 HD
HETATM   30  O   UNL     1      -4.461  -5.298 -34.357  1.00  0.00    -0.273 OA
HETATM   31  C   UNL     1      -6.007  -3.694 -35.161  1.00  0.00     0.103 C 
HETATM   32  C   UNL     1      -6.911  -2.675 -34.511  1.00  0.00     0.014 C 
HETATM   33  C   UNL     1      -3.191  -0.139 -31.859  1.00  0.00     0.027 A 
ENDBRANCH  18  21
ENDBRANCH   1  18
TORSDOF 8
ENDMDL
MODEL 2
REMARK VINA RESULT:      -8.7      4.358      7.982
REMARK  8 active torsions:
REMARK  status: ('A' for Active; 'I' for Inactive)
REMARK    1  A    between atoms: O_2  and  C_3 
REMARK    2  A    between atoms: C_6  and  C_7 
REMARK    3  A    between atoms: C_7  and  N_8 
REMARK       I    between atoms: N_8  and  C_9 
REMARK    4  A    between atoms: C_9  and  C_10 
REMARK    5  A    between atoms: C_10  and  C_11 
REMARK    6  A    between atoms: C_11  and  N_12 
REMARK    7  A    between atoms: N_12  and  S_13 
REMARK    8  A    between atoms: S_13  and  C_14 
ROOT
HETATM    1  N   UNL     1      -4.482   3.930 -32.990  1.00  0.00    -0.315 N 
HETATM    2  H   UNL     1      -3.786   3.879 -32.247  1.00  0.00     0.172 HD
ENDROOT
BRANCH   1   3
HETATM    3  C   UNL     1      -4.669   5.199 -33.708  1.00  0.00     0.141 C 
BRANCH   3   4
HETATM    4  C   UNL     1      -3.855   5.167 -34.991  1.00  0.00     0.123 C 
BRANCH   4   5
HETATM    5  C   UNL     1      -2.431   5.585 -34.723  1.00  0.00     0.219 C 
HETATM    6  N   UNL     1      -2.287   6.598 -33.806  1.00  0.00    -0.357 N 
HETATM    7  H   UNL     1      -3.096   7.003 -33.353  1.00  0.00     0.162 HD
HETATM    8  O   UNL     1      -1.490   5.058 -35.309  1.00  0.00    -0.274 OA
BRANCH   6   9
HETATM    9  C   UNL     1      -0.982   7.041 -33.362  1.00  0.00     0.161 C 
BRANCH   9  10
HETATM   10  C   UNL     1      -0.692   6.691 -31.924  1.00  0.00    -0.040 A 
HETATM   11  C   UNL     1      -0.160   5.432 -31.608  1.00  0.00     0.011 A 
HETATM   12  C   UNL     1       0.211   5.114 -30.297  1.00  0.00     0.037 A 
HETATM   13  C   UNL     1       0.065   6.057 -29.281  1.00  0.00     0.068 A 
HETATM   14  C   UNL     1      -0.480   7.306 -29.582  1.00  0.00     0.037 A 
HETATM   15  C   UNL     1      -0.841   7.628 -30.893  1.00  0.00     0.011 A 
BRANCH  13  16
HETATM   16  O   UNL     1       0.407   5.875 -27.969  1.00  0.00    -0.356 OA
HETATM   17  C   UNL     1       0.916   7.018 -27.290  1.00  0.00     0.210 C 
ENDBRANCH  13  16
ENDBRANCH   9  10
ENDBRANCH   6   9
ENDBRANCH   4   5
ENDBRANCH   3   4
ENDBRANCH   1   3
BRANCH   1  18
HETATM   18  S   UNL     1      -5.837   3.006 -32.620  1.00  0.00     0.258 S 
HETATM   19  O   UNL     1      -6.005   3.103 -31.188  1.00  0.00    -0.201 OA
HETATM   20  O   UNL     1      -6.888   3.385 -33.539  1.00  0.00    -0.201 OA
BRANCH  18  21
HETATM   21  C   UNL     1      -5.318   1.354 -32.982  1.00  0.00     0.080 A 
HETATM   22  C   UNL     1      -6.127   0.520 -33.756  1.00  0.00     0.034 A 
HETATM   23  C   UNL     1      -5.776  -0.830 -34.004  1.00  0.00    -0.030 A 
HETATM   24  C   UNL     1      -4.566  -1.315 -33.487  1.00  0.00     0.041 A 
HETATM   25  C   UNL     1      -6.752  -1.605 -34.846  1.00  0.00     0.041 C 
HETATM   26  N   UNL     1      -4.042  -2.610 -33.624  1.00  0.00    -0.327 N 
HETATM   27  C   UNL     1      -3.758  -0.448 -32.718  1.00  0.00     0.031 A 
HETATM   28  C   UNL     1      -4.445  -3.751 -34.233  1.00  0.00     0.222 C 
HETATM   29  H   UNL     1      -3.157  -2.781 -33.159  1.00  0.00     0.169 HD
HETATM   30  O   UNL     1      -3.701  -4.734 -34.142  1.00  0.00    -0.273 OA
HETATM   31  C   UNL     1      -5.693  -3.842 -35.061  1.00  0.00     0.103 C 
HETATM   32  C   UNL     1      -6.868  -3.077 -34.501  1.00  0.00     0.014 C 
HETATM   33  C   UNL     1      -4.127   0.874 -32.457  1.00  0.00     0.027 A 
ENDBRANCH  18  21
ENDBRANCH   1  18
TORSDOF 8
ENDMDL
MODEL 3
REMARK VINA RESULT:      -8.2      5.737      9.857
REMARK  8 active torsions:
REMARK  status: ('A' for Active; 'I' for Inactive)
REMARK    1  A    between atoms: O_2  and  C_3 
REMARK    2  A    between atoms: C_6  and  C_7 
REMARK    3  A    between atoms: C_7  and  N_8 
REMARK       I    between atoms: N_8  and  C_9 
REMARK    4  A    between atoms: C_9  and  C_10 
REMARK    5  A    between atoms: C_10  and  C_11 
REMARK    6  A    between atoms: C_11  and  N_12 
REMARK    7  A    between atoms: N_12  and  S_13 
REMARK    8  A    between atoms: S_13  and  C_14 
ROOT
HETATM    1  N   UNL     1      -1.800   4.738 -31.412  1.00  0.00    -0.315 N 
HETATM    2  H   UNL     1      -1.824   4.155 -30.576  1.00  0.00     0.172 HD
ENDROOT
BRANCH   1   3
HETATM    3  C   UNL     1      -2.294   4.187 -32.682  1.00  0.00     0.141 C 
BRANCH   3   4
HETATM    4  C   UNL     1      -3.752   3.790 -32.517  1.00  0.00     0.123 C 
BRANCH   4   5
HETATM    5  C   UNL     1      -3.861   2.469 -31.796  1.00  0.00     0.219 C 
HETATM    6  N   UNL     1      -5.117   1.914 -31.791  1.00  0.00    -0.357 N 
HETATM    7  H   UNL     1      -5.888   2.376 -32.255  1.00  0.00     0.162 HD
HETATM    8  O   UNL     1      -2.888   1.960 -31.247  1.00  0.00    -0.274 OA
BRANCH   6   9
HETATM    9  C   UNL     1      -5.365   0.600 -31.233  1.00  0.00     0.161 C 
BRANCH   9  10
HETATM   10  C   UNL     1      -5.444  -0.484 -32.278  1.00  0.00    -0.040 A 
HETATM   11  C   UNL     1      -6.654  -0.715 -32.950  1.00  0.00     0.011 A 
HETATM   12  C   UNL     1      -6.734  -1.645 -33.992  1.00  0.00     0.037 A 
HETATM   13  C   UNL     1      -5.600  -2.351 -34.387  1.00  0.00     0.068 A 
HETATM   14  C   UNL     1      -4.396  -2.142 -33.713  1.00  0.00     0.037 A 
HETATM   15  C   UNL     1      -4.312  -1.205 -32.678  1.00  0.00     0.011 A 
BRANCH  13  16
HETATM   16  O   UNL     1      -5.544  -3.270 -35.399  1.00  0.00    -0.356 OA
HETATM   17  C   UNL     1      -6.264  -4.479 -35.188  1.00  0.00     0.210 C 
ENDBRANCH  13  16
ENDBRANCH   9  10
ENDBRANCH   6   9
ENDBRANCH   4   5
ENDBRANCH   3   4
ENDBRANCH   1   3
BRANCH   1  18
HETATM   18  S   UNL     1      -0.431   5.714 -31.435  1.00  0.00     0.258 S 
HETATM   19  O   UNL     1       0.693   4.826 -31.248  1.00  0.00    -0.201 OA
HETATM   20  O   UNL     1      -0.535   6.583 -32.587  1.00  0.00    -0.201 OA
BRANCH  18  21
HETATM   21  C   UNL     1      -0.594   6.682 -29.962  1.00  0.00     0.080 A 
HETATM   22  C   UNL     1       0.524   7.312 -29.412  1.00  0.00     0.034 A 
HETATM   23  C   UNL     1       0.443   8.033 -28.196  1.00  0.00    -0.030 A 
HETATM   24  C   UNL     1      -0.802   8.140 -27.561  1.00  0.00     0.041 A 
HETATM   25  C   UNL     1       1.732   8.649 -27.725  1.00  0.00     0.041 C 
HETATM   26  N   UNL     1      -1.088   8.810 -26.360  1.00  0.00    -0.327 N 
HETATM   27  C   UNL     1      -1.922   7.504 -28.143  1.00  0.00     0.031 A 
HETATM   28  C   UNL     1      -0.369   9.525 -25.462  1.00  0.00     0.222 C 
HETATM   29  H   UNL     1      -2.051   8.760 -26.044  1.00  0.00     0.169 HD
HETATM   30  O   UNL     1      -0.975   9.983 -24.487  1.00  0.00    -0.273 OA
HETATM   31  C   UNL     1       1.087   9.840 -25.643  1.00  0.00     0.103 C 
HETATM   32  C   UNL     1       1.902   8.708 -26.219  1.00  0.00     0.014 C 
HETATM   33  C   UNL     1      -1.825   6.773 -29.329  1.00  0.00     0.027 A 
ENDBRANCH  18  21
ENDBRANCH   1  18
TORSDOF 8
ENDMDL
MODEL 4
REMARK VINA RESULT:      -8.1      4.994      9.083
REMARK  8 active torsions:
REMARK  status: ('A' for Active; 'I' for Inactive)
REMARK    1  A    between atoms: O_2  and  C_3 
REMARK    2  A    between atoms: C_6  and  C_7 
REMARK    3  A    between atoms: C_7  and  N_8 
REMARK       I    between atoms: N_8  and  C_9 
REMARK    4  A    between atoms: C_9  and  C_10 
REMARK    5  A    between atoms: C_10  and  C_11 
REMARK    6  A    between atoms: C_11  and  N_12 
REMARK    7  A    between atoms: N_12  and  S_13 
REMARK    8  A    between atoms: S_13  and  C_14 
ROOT
HETATM    1  N   UNL     1      -3.235   2.560 -32.766  1.00  0.00    -0.315 N 
HETATM    2  H   UNL     1      -2.258   2.411 -33.016  1.00  0.00     0.172 HD
ENDROOT
BRANCH   1   3
HETATM    3  C   UNL     1      -3.779   3.926 -32.790  1.00  0.00     0.141 C 
BRANCH   3   4
HETATM    4  C   UNL     1      -3.413   4.628 -31.493  1.00  0.00     0.123 C 
BRANCH   4   5
HETATM    5  C   UNL     1      -1.924   4.857 -31.418  1.00  0.00     0.219 C 
HETATM    6  N   UNL     1      -1.480   5.395 -30.235  1.00  0.00    -0.357 N 
HETATM    7  H   UNL     1      -2.127   5.600 -29.485  1.00  0.00     0.162 HD
HETATM    8  O   UNL     1      -1.190   4.592 -32.364  1.00  0.00    -0.274 OA
BRANCH   6   9
HETATM    9  C   UNL     1      -0.068   5.577 -29.966  1.00  0.00     0.161 C 
BRANCH   9  10
HETATM   10  C   UNL     1       0.201   6.494 -28.799  1.00  0.00    -0.040 A 
HETATM   11  C   UNL     1      -0.050   6.050 -27.492  1.00  0.00     0.011 A 
HETATM   12  C   UNL     1       0.281   6.840 -26.386  1.00  0.00     0.037 A 
HETATM   13  C   UNL     1       0.882   8.084 -26.570  1.00  0.00     0.068 A 
HETATM   14  C   UNL     1       1.120   8.542 -27.866  1.00  0.00     0.037 A 
HETATM   15  C   UNL     1       0.799   7.750 -28.972  1.00  0.00     0.011 A 
BRANCH  13  16
HETATM   16  O   UNL     1       1.269   8.938 -25.574  1.00  0.00    -0.356 OA
HETATM   17  C   UNL     1       1.412  10.305 -25.941  1.00  0.00     0.210 C 
ENDBRANCH  13  16
ENDBRANCH   9  10
ENDBRANCH   6   9
ENDBRANCH   4   5
ENDBRANCH   3   4
ENDBRANCH   1   3
BRANCH   1  18
HETATM   18  S   UNL     1      -3.713   1.525 -31.531  1.00  0.00     0.258 S 
HETATM   19  O   UNL     1      -2.497   1.094 -30.880  1.00  0.00    -0.201 OA
HETATM   20  O   UNL     1      -4.779   2.177 -30.803  1.00  0.00    -0.201 OA
BRANCH  18  21
HETATM   21  C   UNL     1      -4.373   0.130 -32.399  1.00  0.00     0.080 A 
HETATM   22  C   UNL     1      -3.784  -1.127 -32.253  1.00  0.00     0.034 A 
HETATM   23  C   UNL     1      -4.241  -2.248 -32.988  1.00  0.00    -0.030 A 
HETATM   24  C   UNL     1      -5.335  -2.085 -33.849  1.00  0.00     0.041 A 
HETATM   25  C   UNL     1      -3.501  -3.533 -32.730  1.00  0.00     0.041 C 
HETATM   26  N   UNL     1      -5.935  -3.067 -34.655  1.00  0.00    -0.327 N 
HETATM   27  C   UNL     1      -5.923  -0.806 -33.971  1.00  0.00     0.031 A 
HETATM   28  C   UNL     1      -5.723  -4.384 -34.885  1.00  0.00     0.222 C 
HETATM   29  H   UNL     1      -6.709  -2.753 -35.231  1.00  0.00     0.169 HD
HETATM   30  O   UNL     1      -6.475  -4.947 -35.689  1.00  0.00    -0.273 OA
HETATM   31  C   UNL     1      -4.683  -5.186 -34.159  1.00  0.00     0.103 C 
HETATM   32  C   UNL     1      -3.383  -4.455 -33.928  1.00  0.00     0.014 C 
HETATM   33  C   UNL     1      -5.446   0.299 -33.261  1.00  0.00     0.027 A 
ENDBRANCH  18  21
ENDBRANCH   1  18
TORSDOF 8
ENDMDL
MODEL 5
REMARK VINA RESULT:      -8.0      3.126      7.209
REMARK  8 active torsions:
REMARK  status: ('A' for Active; 'I' for Inactive)
REMARK    1  A    between atoms: O_2  and  C_3 
REMARK    2  A    between atoms: C_6  and  C_7 
REMARK    3  A    between atoms: C_7  and  N_8 
REMARK       I    between atoms: N_8  and  C_9 
REMARK    4  A    between atoms: C_9  and  C_10 
REMARK    5  A    between atoms: C_10  and  C_11 
REMARK    6  A    between atoms: C_11  and  N_12 
REMARK    7  A    between atoms: N_12  and  S_13 
REMARK    8  A    between atoms: S_13  and  C_14 
ROOT
HETATM    1  N   UNL     1      -8.200   2.173 -31.713  1.00  0.00    -0.315 N 
HETATM    2  H   UNL     1      -7.641   1.947 -32.535  1.00  0.00     0.172 HD
ENDROOT
BRANCH   1   3
HETATM    3  C   UNL     1      -9.558   2.705 -31.897  1.00  0.00     0.141 C 
BRANCH   3   4
HETATM    4  C   UNL     1     -10.043   2.354 -33.294  1.00  0.00     0.123 C 
BRANCH   4   5
HETATM    5  C   UNL     1      -9.461   1.036 -33.740  1.00  0.00     0.219 C 
HETATM    6  N   UNL     1      -8.603   1.113 -34.809  1.00  0.00    -0.357 N 
HETATM    7  H   UNL     1      -8.389   2.005 -35.236  1.00  0.00     0.162 HD
HETATM    8  O   UNL     1      -9.763  -0.016 -33.184  1.00  0.00    -0.274 OA
BRANCH   6   9
HETATM    9  C   UNL     1      -7.881  -0.047 -35.290  1.00  0.00     0.161 C 
BRANCH   9  10
HETATM   10  C   UNL     1      -6.668  -0.378 -34.458  1.00  0.00    -0.040 A 
HETATM   11  C   UNL     1      -6.109  -1.664 -34.524  1.00  0.00     0.011 A 
HETATM   12  C   UNL     1      -4.927  -1.972 -33.840  1.00  0.00     0.037 A 
HETATM   13  C   UNL     1      -4.279  -0.995 -33.088  1.00  0.00     0.068 A 
HETATM   14  C   UNL     1      -4.836   0.281 -33.002  1.00  0.00     0.037 A 
HETATM   15  C   UNL     1      -6.011   0.594 -33.693  1.00  0.00     0.011 A 
BRANCH  13  16
HETATM   16  O   UNL     1      -3.113  -1.166 -32.393  1.00  0.00    -0.356 OA
HETATM   17  C   UNL     1      -2.854  -0.220 -31.362  1.00  0.00     0.210 C 
ENDBRANCH  13  16
ENDBRANCH   9  10
ENDBRANCH   6   9
ENDBRANCH   4   5
ENDBRANCH   3   4
ENDBRANCH   1   3
BRANCH   1  18
HETATM   18  S   UNL     1      -7.247   2.807 -30.483  1.00  0.00     0.258 S 
HETATM   19  O   UNL     1      -8.109   3.683 -29.722  1.00  0.00    -0.201 OA
HETATM   20  O   UNL     1      -6.542   1.705 -29.865  1.00  0.00    -0.201 OA
BRANCH  18  21
HETATM   21  C   UNL     1      -6.086   3.826 -31.348  1.00  0.00     0.080 A 
HETATM   22  C   UNL     1      -4.718   3.564 -31.252  1.00  0.00     0.034 A 
HETATM   23  C   UNL     1      -3.759   4.402 -31.871  1.00  0.00    -0.030 A 
HETATM   24  C   UNL     1      -4.210   5.494 -32.627  1.00  0.00     0.041 A 
HETATM   25  C   UNL     1      -2.324   3.997 -31.671  1.00  0.00     0.041 C 
HETATM   26  N   UNL     1      -3.424   6.432 -33.316  1.00  0.00    -0.327 N 
HETATM   27  C   UNL     1      -5.600   5.731 -32.720  1.00  0.00     0.031 A 
HETATM   28  C   UNL     1      -2.097   6.625 -33.500  1.00  0.00     0.222 C 
HETATM   29  H   UNL     1      -3.933   7.169 -33.793  1.00  0.00     0.169 HD
HETATM   30  O   UNL     1      -1.756   7.591 -34.192  1.00  0.00    -0.273 OA
HETATM   31  C   UNL     1      -1.051   5.687 -32.973  1.00  0.00     0.103 C 
HETATM   32  C   UNL     1      -1.339   5.147 -31.593  1.00  0.00     0.014 C 
HETATM   33  C   UNL     1      -6.536   4.913 -32.082  1.00  0.00     0.027 A 
ENDBRANCH  18  21
ENDBRANCH   1  18
TORSDOF 8
ENDMDL
MODEL 6
REMARK VINA RESULT:      -8.0      4.958      8.914
REMARK  8 active torsions:
REMARK  status: ('A' for Active; 'I' for Inactive)
REMARK    1  A    between atoms: O_2  and  C_3 
REMARK    2  A    between atoms: C_6  and  C_7 
REMARK    3  A    between atoms: C_7  and  N_8 
REMARK       I    between atoms: N_8  and  C_9 
REMARK    4  A    between atoms: C_9  and  C_10 
REMARK    5  A    between atoms: C_10  and  C_11 
REMARK    6  A    between atoms: C_11  and  N_12 
REMARK    7  A    between atoms: N_12  and  S_13 
REMARK    8  A    between atoms: S_13  and  C_14 
ROOT
HETATM    1  N   UNL     1      -4.731   3.776 -33.035  1.00  0.00    -0.315 N 
HETATM    2  H   UNL     1      -4.214   3.315 -33.783  1.00  0.00     0.172 HD
ENDROOT
BRANCH   1   3
HETATM    3  C   UNL     1      -4.004   4.637 -32.090  1.00  0.00     0.141 C 
BRANCH   3   4
HETATM    4  C   UNL     1      -2.792   3.885 -31.566  1.00  0.00     0.123 C 
BRANCH   4   5
HETATM    5  C   UNL     1      -1.560   4.752 -31.642  1.00  0.00     0.219 C 
HETATM    6  N   UNL     1      -0.981   5.044 -30.431  1.00  0.00    -0.357 N 
HETATM    7  H   UNL     1      -1.371   4.680 -29.571  1.00  0.00     0.162 HD
HETATM    8  O   UNL     1      -1.138   5.167 -32.717  1.00  0.00    -0.274 OA
BRANCH   6   9
HETATM    9  C   UNL     1       0.266   5.776 -30.342  1.00  0.00     0.161 C 
BRANCH   9  10
HETATM   10  C   UNL     1       0.436   6.502 -29.031  1.00  0.00    -0.040 A 
HETATM   11  C   UNL     1       0.927   7.816 -29.021  1.00  0.00     0.011 A 
HETATM   12  C   UNL     1       1.004   8.549 -27.832  1.00  0.00     0.037 A 
HETATM   13  C   UNL     1       0.578   7.982 -26.633  1.00  0.00     0.068 A 
HETATM   14  C   UNL     1       0.104   6.670 -26.629  1.00  0.00     0.037 A 
HETATM   15  C   UNL     1       0.017   5.940 -27.818  1.00  0.00     0.011 A 
BRANCH  13  16
HETATM   16  O   UNL     1       0.583   8.599 -25.412  1.00  0.00    -0.356 OA
HETATM   17  C   UNL     1       1.797   9.242 -25.041  1.00  0.00     0.210 C 
ENDBRANCH  13  16
ENDBRANCH   9  10
ENDBRANCH   6   9
ENDBRANCH   4   5
ENDBRANCH   3   4
ENDBRANCH   1   3
BRANCH   1  18
HETATM   18  S   UNL     1      -5.962   2.794 -32.449  1.00  0.00     0.258 S 
HETATM   19  O   UNL     1      -5.927   2.928 -31.010  1.00  0.00    -0.201 OA
HETATM   20  O   UNL     1      -7.154   3.085 -33.214  1.00  0.00    -0.201 OA
BRANCH  18  21
HETATM   21  C   UNL     1      -5.404   1.161 -32.842  1.00  0.00     0.080 A 
HETATM   22  C   UNL     1      -6.180   0.334 -33.657  1.00  0.00     0.034 A 
HETATM   23  C   UNL     1      -5.799  -1.002 -33.932  1.00  0.00    -0.030 A 
HETATM   24  C   UNL     1      -4.594  -1.480 -33.398  1.00  0.00     0.041 A 
HETATM   25  C   UNL     1      -6.741  -1.771 -34.818  1.00  0.00     0.041 C 
HETATM   26  N   UNL     1      -4.045  -2.762 -33.557  1.00  0.00    -0.327 N 
HETATM   27  C   UNL     1      -3.820  -0.620 -32.586  1.00  0.00     0.031 A 
HETATM   28  C   UNL     1      -4.412  -3.893 -34.205  1.00  0.00     0.222 C 
HETATM   29  H   UNL     1      -3.168  -2.931 -33.074  1.00  0.00     0.169 HD
HETATM   30  O   UNL     1      -3.653  -4.866 -34.122  1.00  0.00    -0.273 OA
HETATM   31  C   UNL     1      -5.638  -3.983 -35.066  1.00  0.00     0.103 C 
HETATM   32  C   UNL     1      -6.839  -3.253 -34.515  1.00  0.00     0.014 C 
HETATM   33  C   UNL     1      -4.219   0.687 -32.300  1.00  0.00     0.027 A 
ENDBRANCH  18  21
ENDBRANCH   1  18
TORSDOF 8
ENDMDL
MODEL 7
REMARK VINA RESULT:      -8.0      1.882      2.657
REMARK  8 active torsions:
REMARK  status: ('A' for Active; 'I' for Inactive)
REMARK    1  A    between atoms: O_2  and  C_3 
REMARK    2  A    between atoms: C_6  and  C_7 
REMARK    3  A    between atoms: C_7  and  N_8 
REMARK       I    between atoms: N_8  and  C_9 
REMARK    4  A    between atoms: C_9  and  C_10 
REMARK    5  A    between atoms: C_10  and  C_11 
REMARK    6  A    between atoms: C_11  and  N_12 
REMARK    7  A    between atoms: N_12  and  S_13 
REMARK    8  A    between atoms: S_13  and  C_14 
ROOT
HETATM    1  N   UNL     1      -3.465   2.654 -32.726  1.00  0.00    -0.315 N 
HETATM    2  H   UNL     1      -2.468   2.631 -32.940  1.00  0.00     0.172 HD
ENDROOT
BRANCH   1   3
HETATM    3  C   UNL     1      -4.178   3.939 -32.779  1.00  0.00     0.141 C 
BRANCH   3   4
HETATM    4  C   UNL     1      -5.111   3.939 -33.978  1.00  0.00     0.123 C 
BRANCH   4   5
HETATM    5  C   UNL     1      -6.515   4.294 -33.555  1.00  0.00     0.219 C 
HETATM    6  N   UNL     1      -6.993   3.584 -32.481  1.00  0.00    -0.357 N 
HETATM    7  H   UNL     1      -6.416   2.891 -32.022  1.00  0.00     0.162 HD
HETATM    8  O   UNL     1      -7.167   5.142 -34.156  1.00  0.00    -0.274 OA
BRANCH   6   9
HETATM    9  C   UNL     1      -8.281   3.879 -31.888  1.00  0.00     0.161 C 
BRANCH   9  10
HETATM   10  C   UNL     1      -9.393   3.010 -32.420  1.00  0.00    -0.040 A 
HETATM   11  C   UNL     1     -10.723   3.445 -32.322  1.00  0.00     0.011 A 
HETATM   12  C   UNL     1     -11.767   2.709 -32.893  1.00  0.00     0.037 A 
HETATM   13  C   UNL     1     -11.494   1.530 -33.583  1.00  0.00     0.068 A 
HETATM   14  C   UNL     1     -10.176   1.079 -33.671  1.00  0.00     0.037 A 
HETATM   15  C   UNL     1      -9.132   1.819 -33.110  1.00  0.00     0.011 A 
BRANCH  13  16
HETATM   16  O   UNL     1     -12.420   0.734 -34.200  1.00  0.00    -0.356 OA
HETATM   17  C   UNL     1     -13.581   1.391 -34.695  1.00  0.00     0.210 C 
ENDBRANCH  13  16
ENDBRANCH   9  10
ENDBRANCH   6   9
ENDBRANCH   4   5
ENDBRANCH   3   4
ENDBRANCH   1   3
BRANCH   1  18
HETATM   18  S   UNL     1      -3.851   1.568 -31.503  1.00  0.00     0.258 S 
HETATM   19  O   UNL     1      -2.593   1.168 -30.915  1.00  0.00    -0.201 OA
HETATM   20  O   UNL     1      -4.909   2.159 -30.713  1.00  0.00    -0.201 OA
BRANCH  18  21
HETATM   21  C   UNL     1      -4.493   0.173 -32.382  1.00  0.00     0.080 A 
HETATM   22  C   UNL     1      -3.883  -1.076 -32.254  1.00  0.00     0.034 A 
HETATM   23  C   UNL     1      -4.326  -2.196 -32.998  1.00  0.00    -0.030 A 
HETATM   24  C   UNL     1      -5.429  -2.042 -33.851  1.00  0.00     0.041 A 
HETATM   25  C   UNL     1      -3.563  -3.471 -32.760  1.00  0.00     0.041 C 
HETATM   26  N   UNL     1      -6.018  -3.024 -34.664  1.00  0.00    -0.327 N 
HETATM   27  C   UNL     1      -6.038  -0.771 -33.954  1.00  0.00     0.031 A 
HETATM   28  C   UNL     1      -5.786  -4.335 -34.910  1.00  0.00     0.222 C 
HETATM   29  H   UNL     1      -6.801  -2.717 -35.232  1.00  0.00     0.169 HD
HETATM   30  O   UNL     1      -6.534  -4.901 -35.715  1.00  0.00    -0.273 OA
HETATM   31  C   UNL     1      -4.728  -5.128 -34.200  1.00  0.00     0.103 C 
HETATM   32  C   UNL     1      -3.438  -4.378 -33.970  1.00  0.00     0.014 C 
HETATM   33  C   UNL     1      -5.575   0.333 -33.235  1.00  0.00     0.027 A 
ENDBRANCH  18  21
ENDBRANCH   1  18
TORSDOF 8
ENDMDL
MODEL 8
REMARK VINA RESULT:      -7.9      5.127      8.944
REMARK  8 active torsions:
REMARK  status: ('A' for Active; 'I' for Inactive)
REMARK    1  A    between atoms: O_2  and  C_3 
REMARK    2  A    between atoms: C_6  and  C_7 
REMARK    3  A    between atoms: C_7  and  N_8 
REMARK       I    between atoms: N_8  and  C_9 
REMARK    4  A    between atoms: C_9  and  C_10 
REMARK    5  A    between atoms: C_10  and  C_11 
REMARK    6  A    between atoms: C_11  and  N_12 
REMARK    7  A    between atoms: N_12  and  S_13 
REMARK    8  A    between atoms: S_13  and  C_14 
ROOT
HETATM    1  N   UNL     1      -3.415   6.212 -33.250  1.00  0.00    -0.315 N 
HETATM    2  H   UNL     1      -3.742   6.768 -32.461  1.00  0.00     0.172 HD
ENDROOT
BRANCH   1   3
HETATM    3  C   UNL     1      -3.985   4.873 -33.465  1.00  0.00     0.141 C 
BRANCH   3   4
HETATM    4  C   UNL     1      -4.499   4.335 -32.141  1.00  0.00     0.123 C 
BRANCH   4   5
HETATM    5  C   UNL     1      -3.870   2.998 -31.835  1.00  0.00     0.219 C 
HETATM    6  N   UNL     1      -4.730   1.928 -31.885  1.00  0.00    -0.357 N 
HETATM    7  H   UNL     1      -5.705   2.059 -32.125  1.00  0.00     0.162 HD
HETATM    8  O   UNL     1      -2.682   2.903 -31.545  1.00  0.00    -0.274 OA
BRANCH   6   9
HETATM    9  C   UNL     1      -4.262   0.568 -31.720  1.00  0.00     0.161 C 
BRANCH   9  10
HETATM   10  C   UNL     1      -4.909  -0.404 -32.674  1.00  0.00    -0.040 A 
HETATM   11  C   UNL     1      -4.137  -1.414 -33.269  1.00  0.00     0.011 A 
HETATM   12  C   UNL     1      -4.728  -2.389 -34.080  1.00  0.00     0.037 A 
HETATM   13  C   UNL     1      -6.103  -2.376 -34.300  1.00  0.00     0.068 A 
HETATM   14  C   UNL     1      -6.877  -1.366 -33.727  1.00  0.00     0.037 A 
HETATM   15  C   UNL     1      -6.290  -0.398 -32.908  1.00  0.00     0.011 A 
BRANCH  13  16
HETATM   16  O   UNL     1      -6.799  -3.282 -35.054  1.00  0.00    -0.356 OA
HETATM   17  C   UNL     1      -6.167  -4.539 -35.264  1.00  0.00     0.210 C 
ENDBRANCH  13  16
ENDBRANCH   9  10
ENDBRANCH   6   9
ENDBRANCH   4   5
ENDBRANCH   3   4
ENDBRANCH   1   3
BRANCH   1  18
HETATM   18  S   UNL     1      -1.771   6.440 -33.519  1.00  0.00     0.258 S 
HETATM   19  O   UNL     1      -1.286   5.204 -34.089  1.00  0.00    -0.201 OA
HETATM   20  O   UNL     1      -1.612   7.708 -34.197  1.00  0.00    -0.201 OA
BRANCH  18  21
HETATM   21  C   UNL     1      -1.104   6.569 -31.884  1.00  0.00     0.080 A 
HETATM   22  C   UNL     1      -1.604   7.523 -30.997  1.00  0.00     0.034 A 
HETATM   23  C   UNL     1      -1.044   7.701 -29.709  1.00  0.00    -0.030 A 
HETATM   24  C   UNL     1       0.011   6.867 -29.314  1.00  0.00     0.041 A 
HETATM   25  C   UNL     1      -1.685   8.775 -28.871  1.00  0.00     0.041 C 
HETATM   26  N   UNL     1       0.693   6.883 -28.086  1.00  0.00    -0.327 N 
HETATM   27  C   UNL     1       0.492   5.899 -30.225  1.00  0.00     0.031 A 
HETATM   28  C   UNL     1       0.608   7.612 -26.948  1.00  0.00     0.222 C 
HETATM   29  H   UNL     1       1.448   6.212 -27.991  1.00  0.00     0.169 HD
HETATM   30  O   UNL     1       1.400   7.337 -26.040  1.00  0.00    -0.273 OA
HETATM   31  C   UNL     1      -0.438   8.664 -26.725  1.00  0.00     0.103 C 
HETATM   32  C   UNL     1      -0.739   9.509 -27.939  1.00  0.00     0.014 C 
HETATM   33  C   UNL     1      -0.050   5.751 -31.504  1.00  0.00     0.027 A 
ENDBRANCH  18  21
ENDBRANCH   1  18
TORSDOF 8
ENDMDL
MODEL 9
REMARK VINA RESULT:      -7.9      2.287      3.001
REMARK  8 active torsions:
REMARK  status: ('A' for Active; 'I' for Inactive)
REMARK    1  A    between atoms: O_2  and  C_3 
REMARK    2  A    between atoms: C_6  and  C_7 
REMARK    3  A    between atoms: C_7  and  N_8 
REMARK       I    between atoms: N_8  and  C_9 
REMARK    4  A    between atoms: C_9  and  C_10 
REMARK    5  A    between atoms: C_10  and  C_11 
REMARK    6  A    between atoms: C_11  and  N_12 
REMARK    7  A    between atoms: N_12  and  S_13 
REMARK    8  A    between atoms: S_13  and  C_14 
ROOT
HETATM    1  N   UNL     1      -7.815   2.454 -32.601  1.00  0.00    -0.315 N 
HETATM    2  H   UNL     1      -8.362   3.303 -32.739  1.00  0.00     0.172 HD
ENDROOT
BRANCH   1   3
HETATM    3  C   UNL     1      -8.155   1.558 -31.486  1.00  0.00     0.141 C 
BRANCH   3   4
HETATM    4  C   UNL     1      -9.144   0.513 -31.973  1.00  0.00     0.123 C 
BRANCH   4   5
HETATM    5  C   UNL     1      -9.986   1.065 -33.096  1.00  0.00     0.219 C 
HETATM    6  N   UNL     1     -11.204   1.570 -32.713  1.00  0.00    -0.357 N 
HETATM    7  H   UNL     1     -11.481   1.569 -31.740  1.00  0.00     0.162 HD
HETATM    8  O   UNL     1      -9.596   1.033 -34.260  1.00  0.00    -0.274 OA
BRANCH   6   9
HETATM    9  C   UNL     1     -12.083   2.231 -33.656  1.00  0.00     0.161 C 
BRANCH   9  10
HETATM   10  C   UNL     1     -13.398   2.650 -33.050  1.00  0.00    -0.040 A 
HETATM   11  C   UNL     1     -13.601   3.990 -32.686  1.00  0.00     0.011 A 
HETATM   12  C   UNL     1     -14.843   4.429 -32.213  1.00  0.00     0.037 A 
HETATM   13  C   UNL     1     -15.906   3.535 -32.107  1.00  0.00     0.068 A 
HETATM   14  C   UNL     1     -15.709   2.197 -32.449  1.00  0.00     0.037 A 
HETATM   15  C   UNL     1     -14.473   1.759 -32.932  1.00  0.00     0.011 A 
BRANCH  13  16
HETATM   16  O   UNL     1     -17.168   3.844 -31.679  1.00  0.00    -0.356 OA
HETATM   17  C   UNL     1     -18.230   3.116 -32.283  1.00  0.00     0.210 C 
ENDBRANCH  13  16
ENDBRANCH   9  10
ENDBRANCH   6   9
ENDBRANCH   4   5
ENDBRANCH   3   4
ENDBRANCH   1   3
BRANCH   1  18
HETATM   18  S   UNL     1      -6.194   2.706 -32.967  1.00  0.00     0.258 S 
HETATM   19  O   UNL     1      -6.175   3.369 -34.251  1.00  0.00    -0.201 OA
HETATM   20  O   UNL     1      -5.569   3.287 -31.799  1.00  0.00    -0.201 OA
BRANCH  18  21
HETATM   21  C   UNL     1      -5.569   1.068 -33.207  1.00  0.00     0.080 A 
HETATM   22  C   UNL     1      -6.283   0.153 -33.982  1.00  0.00     0.034 A 
HETATM   23  C   UNL     1      -5.848  -1.186 -34.134  1.00  0.00    -0.030 A 
HETATM   24  C   UNL     1      -4.651  -1.578 -33.518  1.00  0.00     0.041 A 
HETATM   25  C   UNL     1      -6.727  -2.056 -34.991  1.00  0.00     0.041 C 
HETATM   26  N   UNL     1      -4.054  -2.848 -33.552  1.00  0.00    -0.327 N 
HETATM   27  C   UNL     1      -3.939  -0.630 -32.749  1.00  0.00     0.031 A 
HETATM   28  C   UNL     1      -4.357  -4.039 -34.121  1.00  0.00     0.222 C 
HETATM   29  H   UNL     1      -3.193  -2.947 -33.024  1.00  0.00     0.169 HD
HETATM   30  O   UNL     1      -3.572  -4.974 -33.931  1.00  0.00    -0.273 OA
HETATM   31  C   UNL     1      -5.544  -4.240 -35.018  1.00  0.00     0.103 C 
HETATM   32  C   UNL     1      -6.789  -3.512 -34.574  1.00  0.00     0.014 C 
HETATM   33  C   UNL     1      -4.391   0.681 -32.583  1.00  0.00     0.027 A 
ENDBRANCH  18  21
ENDBRANCH   1  18
TORSDOF 8
ENDMDL
MODEL 10
REMARK VINA RESULT:      -7.8      4.140      7.843
REMARK  8 active torsions:
REMARK  status: ('A' for Active; 'I' for Inactive)
REMARK    1  A    between atoms: O_2  and  C_3 
REMARK    2  A    between atoms: C_6  and  C_7 
REMARK    3  A    between atoms: C_7  and  N_8 
REMARK       I    between atoms: N_8  and  C_9 
REMARK    4  A    between atoms: C_9  and  C_10 
REMARK    5  A    between atoms: C_10  and  C_11 
REMARK    6  A    between atoms: C_11  and  N_12 
REMARK    7  A    between atoms: N_12  and  S_13 
REMARK    8  A    between atoms: S_13  and  C_14 
ROOT
HETATM    1  N   UNL     1      -6.532   3.143 -34.103  1.00  0.00    -0.315 N 
HETATM    2  H   UNL     1      -5.796   2.700 -34.651  1.00  0.00     0.172 HD
ENDROOT
BRANCH   1   3
HETATM    3  C   UNL     1      -6.187   4.264 -33.216  1.00  0.00     0.141 C 
BRANCH   3   4
HETATM    4  C   UNL     1      -5.350   5.270 -33.990  1.00  0.00     0.123 C 
BRANCH   4   5
HETATM    5  C   UNL     1      -3.881   4.970 -33.829  1.00  0.00     0.219 C 
HETATM    6  N   UNL     1      -3.035   5.923 -34.341  1.00  0.00    -0.357 N 
HETATM    7  H   UNL     1      -3.403   6.759 -34.776  1.00  0.00     0.162 HD
HETATM    8  O   UNL     1      -3.496   3.934 -33.295  1.00  0.00    -0.274 OA
BRANCH   6   9
HETATM    9  C   UNL     1      -1.599   5.835 -34.173  1.00  0.00     0.161 C 
BRANCH   9  10
HETATM   10  C   UNL     1      -1.143   6.166 -32.774  1.00  0.00    -0.040 A 
HETATM   11  C   UNL     1      -0.381   5.236 -32.052  1.00  0.00     0.011 A 
HETATM   12  C   UNL     1       0.140   5.553 -30.792  1.00  0.00     0.037 A 
HETATM   13  C   UNL     1      -0.084   6.812 -30.240  1.00  0.00     0.068 A 
HETATM   14  C   UNL     1      -0.855   7.739 -30.943  1.00  0.00     0.037 A 
HETATM   15  C   UNL     1      -1.367   7.427 -32.206  1.00  0.00     0.011 A 
BRANCH  13  16
HETATM   16  O   UNL     1       0.386   7.248 -29.031  1.00  0.00    -0.356 OA
HETATM   17  C   UNL     1       0.469   6.269 -28.002  1.00  0.00     0.210 C 
ENDBRANCH  13  16
ENDBRANCH   9  10
ENDBRANCH   6   9
ENDBRANCH   4   5
ENDBRANCH   3   4
ENDBRANCH   1   3
BRANCH   1  18
HETATM   18  S   UNL     1      -7.661   2.016 -33.574  1.00  0.00     0.258 S 
HETATM   19  O   UNL     1      -7.890   2.307 -32.177  1.00  0.00    -0.201 OA
HETATM   20  O   UNL     1      -8.741   1.996 -34.536  1.00  0.00    -0.201 OA
BRANCH  18  21
HETATM   21  C   UNL     1      -6.779   0.483 -33.658  1.00  0.00     0.080 A 
HETATM   22  C   UNL     1      -5.879   0.137 -32.649  1.00  0.00     0.034 A 
HETATM   23  C   UNL     1      -5.105  -1.046 -32.722  1.00  0.00    -0.030 A 
HETATM   24  C   UNL     1      -5.284  -1.899 -33.820  1.00  0.00     0.041 A 
HETATM   25  C   UNL     1      -4.173  -1.278 -31.564  1.00  0.00     0.041 C 
HETATM   26  N   UNL     1      -4.620  -3.111 -34.072  1.00  0.00    -0.327 N 
HETATM   27  C   UNL     1      -6.211  -1.534 -34.823  1.00  0.00     0.031 A 
HETATM   28  C   UNL     1      -3.672  -3.839 -33.435  1.00  0.00     0.222 C 
HETATM   29  H   UNL     1      -4.871  -3.581 -34.935  1.00  0.00     0.169 HD
HETATM   30  O   UNL     1      -3.314  -4.894 -33.970  1.00  0.00    -0.273 OA
HETATM   31  C   UNL     1      -3.109  -3.459 -32.097  1.00  0.00     0.103 C 
HETATM   32  C   UNL     1      -2.875  -1.979 -31.917  1.00  0.00     0.014 C 
HETATM   33  C   UNL     1      -6.950  -0.351 -34.754  1.00  0.00     0.027 A 
ENDBRANCH  18  21
ENDBRANCH   1  18
TORSDOF 8
ENDMDL
