MODEL 1
REMARK VINA RESULT:      -8.1      0.000      0.000
REMARK  4 active torsions:
REMARK  status: ('A' for Active; 'I' for Inactive)
REMARK    1  A    between atoms: O_2  and  C_3 
REMARK    2  A    between atoms: N_9  and  N_10 
REMARK       I    between atoms: N_10  and  C_11 
REMARK    3  A    between atoms: C_11  and  C_12 
REMARK    4  A    between atoms: C_13  and  O_14 
ROOT
HETATM    1  C   UNL     1      -4.883  -0.768 -33.399  1.00  0.00     0.069 A 
HETATM    2  C   UNL     1      -5.334   0.505 -33.034  1.00  0.00     0.053 A 
HETATM    3  C   UNL     1      -6.685   0.782 -33.181  1.00  0.00     0.029 A 
HETATM    4  C   UNL     1      -7.494   1.980 -32.908  1.00  0.00     0.157 A 
HETATM    5  C   UNL     1      -8.961   1.548 -33.128  1.00  0.00     0.277 A 
HETATM    6  O   UNL     1      -9.951   2.223 -32.956  1.00  0.00    -0.266 OA
HETATM    7  N   UNL     1      -7.198   3.196 -32.578  1.00  0.00    -0.166 NA
HETATM    8  C   UNL     1      -7.581  -0.201 -33.608  1.00  0.00     0.048 A 
HETATM    9  N   UNL     1      -8.893   0.251 -33.581  1.00  0.00    -0.321 N 
HETATM   10  C   UNL     1      -7.162  -1.465 -33.964  1.00  0.00     0.033 A 
HETATM   11  C   UNL     1      -5.795  -1.737 -33.867  1.00  0.00     0.039 A 
HETATM   12  H   UNL     1      -9.717  -0.287 -33.809  1.00  0.00     0.169 HD
ENDROOT
BRANCH   7  13
HETATM   13  N   UNL     1      -5.897   3.594 -32.582  1.00  0.00    -0.242 N 
HETATM   14  C   UNL     1      -5.466   4.534 -33.506  1.00  0.00     0.274 C 
HETATM   15  O   UNL     1      -6.196   5.177 -34.258  1.00  0.00    -0.266 OA
HETATM   16  H   UNL     1      -5.244   3.079 -32.015  1.00  0.00     0.192 HD
BRANCH  14  17
HETATM   17  C   UNL     1      -4.005   4.837 -33.520  1.00  0.00     0.068 A 
HETATM   18  C   UNL     1      -3.394   5.198 -34.733  1.00  0.00     0.081 A 
HETATM   19  C   UNL     1      -2.043   5.536 -34.781  1.00  0.00     0.039 A 
HETATM   20  C   UNL     1      -1.275   5.505 -33.618  1.00  0.00     0.022 A 
HETATM   21  C   UNL     1      -1.866   5.120 -32.416  1.00  0.00     0.012 A 
HETATM   22 BR   UNL     1      -0.826   5.066 -30.838  1.00  0.00    -0.051 Br
HETATM   23  C   UNL     1      -3.220   4.777 -32.359  1.00  0.00     0.039 A 
BRANCH  18  24
HETATM   24  O   UNL     1      -4.066   5.250 -35.926  1.00  0.00    -0.360 OA
HETATM   25  H   UNL     1      -4.880   4.700 -35.843  1.00  0.00     0.217 HD
ENDBRANCH  18  24
ENDBRANCH  14  17
ENDBRANCH   7  13
BRANCH   1  26
HETATM   26  O   UNL     1      -3.587  -1.202 -33.337  1.00  0.00    -0.356 OA
HETATM   27  C   UNL     1      -3.067  -1.530 -32.054  1.00  0.00     0.210 C 
ENDBRANCH   1  26
TORSDOF 4
ENDMDL
MODEL 2
REMARK VINA RESULT:      -7.6      4.008      6.258
REMARK  4 active torsions:
REMARK  status: ('A' for Active; 'I' for Inactive)
REMARK    1  A    between atoms: O_2  and  C_3 
REMARK    2  A    between atoms: N_9  and  N_10 
REMARK       I    between atoms: N_10  and  C_11 
REMARK    3  A    between atoms: C_11  and  C_12 
REMARK    4  A    between atoms: C_13  and  O_14 
ROOT
HETATM    1  C   UNL     1      -5.618  -2.327 -34.290  1.00  0.00     0.069 A 
HETATM    2  C   UNL     1      -5.808  -0.970 -34.011  1.00  0.00     0.053 A 
HETATM    3  C   UNL     1      -4.929  -0.359 -33.130  1.00  0.00     0.029 A 
HETATM    4  C   UNL     1      -4.826   1.016 -32.614  1.00  0.00     0.157 A 
HETATM    5  C   UNL     1      -3.508   1.059 -31.810  1.00  0.00     0.277 A 
HETATM    6  O   UNL     1      -3.022   2.024 -31.264  1.00  0.00    -0.266 OA
HETATM    7  N   UNL     1      -5.591   2.057 -32.701  1.00  0.00    -0.166 NA
HETATM    8  C   UNL     1      -3.842  -1.054 -32.596  1.00  0.00     0.048 A 
HETATM    9  N   UNL     1      -3.029  -0.231 -31.829  1.00  0.00    -0.321 N 
HETATM   10  C   UNL     1      -3.627  -2.389 -32.864  1.00  0.00     0.033 A 
HETATM   11  C   UNL     1      -4.538  -3.026 -33.711  1.00  0.00     0.039 A 
HETATM   12  H   UNL     1      -2.168  -0.495 -31.373  1.00  0.00     0.169 HD
ENDROOT
BRANCH   7  13
HETATM   13  N   UNL     1      -6.830   1.935 -33.248  1.00  0.00    -0.242 N 
HETATM   14  C   UNL     1      -7.914   2.557 -32.647  1.00  0.00     0.274 C 
HETATM   15  O   UNL     1      -7.846   3.357 -31.715  1.00  0.00    -0.266 OA
HETATM   16  H   UNL     1      -6.955   1.267 -33.990  1.00  0.00     0.192 HD
BRANCH  14  17
HETATM   17  C   UNL     1      -9.255   2.287 -33.242  1.00  0.00     0.068 A 
HETATM   18  C   UNL     1      -9.853   1.033 -33.036  1.00  0.00     0.081 A 
HETATM   19  C   UNL     1     -11.126   0.756 -33.533  1.00  0.00     0.039 A 
HETATM   20  C   UNL     1     -11.817   1.727 -34.257  1.00  0.00     0.022 A 
HETATM   21  C   UNL     1     -11.219   2.963 -34.490  1.00  0.00     0.012 A 
HETATM   22 BR   UNL     1     -12.149   4.279 -35.481  1.00  0.00    -0.051 Br
HETATM   23  C   UNL     1      -9.943   3.248 -33.998  1.00  0.00     0.039 A 
BRANCH  18  24
HETATM   24  O   UNL     1      -9.249   0.017 -32.344  1.00  0.00    -0.360 OA
HETATM   25  H   UNL     1      -9.109  -0.736 -32.966  1.00  0.00     0.217 HD
ENDBRANCH  18  24
ENDBRANCH  14  17
ENDBRANCH   7  13
BRANCH   1  26
HETATM   26  O   UNL     1      -6.399  -3.088 -35.117  1.00  0.00    -0.356 OA
HETATM   27  C   UNL     1      -6.233  -4.500 -35.058  1.00  0.00     0.210 C 
ENDBRANCH   1  26
TORSDOF 4
ENDMDL
MODEL 3
REMARK VINA RESULT:      -7.5      3.725      5.757
REMARK  4 active torsions:
REMARK  status: ('A' for Active; 'I' for Inactive)
REMARK    1  A    between atoms: O_2  and  C_3 
REMARK    2  A    between atoms: N_9  and  N_10 
REMARK       I    between atoms: N_10  and  C_11 
REMARK    3  A    between atoms: C_11  and  C_12 
REMARK    4  A    between atoms: C_13  and  O_14 
ROOT
HETATM    1  C   UNL     1      -5.986  -1.657 -34.117  1.00  0.00     0.069 A 
HETATM    2  C   UNL     1      -6.110  -0.300 -33.801  1.00  0.00     0.053 A 
HETATM    3  C   UNL     1      -5.127   0.276 -33.011  1.00  0.00     0.029 A 
HETATM    4  C   UNL     1      -4.934   1.639 -32.491  1.00  0.00     0.157 A 
HETATM    5  C   UNL     1      -3.538   1.637 -31.830  1.00  0.00     0.277 A 
HETATM    6  O   UNL     1      -2.971   2.580 -31.326  1.00  0.00    -0.266 OA
HETATM    7  N   UNL     1      -5.676   2.700 -32.481  1.00  0.00    -0.166 NA
HETATM    8  C   UNL     1      -4.008  -0.455 -32.605  1.00  0.00     0.048 A 
HETATM    9  N   UNL     1      -3.097   0.336 -31.917  1.00  0.00    -0.321 N 
HETATM   10  C   UNL     1      -3.858  -1.790 -32.911  1.00  0.00     0.033 A 
HETATM   11  C   UNL     1      -4.870  -2.391 -33.664  1.00  0.00     0.039 A 
HETATM   12  H   UNL     1      -2.200   0.043 -31.559  1.00  0.00     0.169 HD
ENDROOT
BRANCH   7  13
HETATM   13  N   UNL     1      -6.969   2.617 -32.895  1.00  0.00    -0.242 N 
HETATM   14  C   UNL     1      -7.501   3.613 -33.701  1.00  0.00     0.274 C 
HETATM   15  O   UNL     1      -6.859   4.526 -34.217  1.00  0.00    -0.266 OA
HETATM   16  H   UNL     1      -7.555   1.912 -32.478  1.00  0.00     0.192 HD
BRANCH  14  17
HETATM   17  C   UNL     1      -8.954   3.509 -34.022  1.00  0.00     0.068 A 
HETATM   18  C   UNL     1      -9.608   4.615 -34.592  1.00  0.00     0.081 A 
HETATM   19  C   UNL     1     -10.953   4.544 -34.952  1.00  0.00     0.039 A 
HETATM   20  C   UNL     1     -11.670   3.368 -34.737  1.00  0.00     0.022 A 
HETATM   21  C   UNL     1     -11.037   2.276 -34.146  1.00  0.00     0.012 A 
HETATM   22 BR   UNL     1     -12.009   0.684 -33.842  1.00  0.00    -0.051 Br
HETATM   23  C   UNL     1      -9.690   2.340 -33.779  1.00  0.00     0.039 A 
BRANCH  18  24
HETATM   24  O   UNL     1      -8.988   5.812 -34.834  1.00  0.00    -0.360 OA
HETATM   25  H   UNL     1      -8.104   5.624 -35.228  1.00  0.00     0.217 HD
ENDBRANCH  18  24
ENDBRANCH  14  17
ENDBRANCH   7  13
BRANCH   1  26
HETATM   26  O   UNL     1      -6.870  -2.385 -34.866  1.00  0.00    -0.356 OA
HETATM   27  C   UNL     1      -6.636  -3.784 -34.977  1.00  0.00     0.210 C 
ENDBRANCH   1  26
TORSDOF 4
ENDMDL
MODEL 4
REMARK VINA RESULT:      -7.3      3.983      5.573
REMARK  4 active torsions:
REMARK  status: ('A' for Active; 'I' for Inactive)
REMARK    1  A    between atoms: O_2  and  C_3 
REMARK    2  A    between atoms: N_9  and  N_10 
REMARK       I    between atoms: N_10  and  C_11 
REMARK    3  A    between atoms: C_11  and  C_12 
REMARK    4  A    between atoms: C_13  and  O_14 
ROOT
HETATM    1  C   UNL     1      -7.076  -0.265 -34.560  1.00  0.00     0.069 A 
HETATM    2  C   UNL     1      -6.255   0.405 -33.646  1.00  0.00     0.053 A 
HETATM    3  C   UNL     1      -5.166  -0.279 -33.129  1.00  0.00     0.029 A 
HETATM    4  C   UNL     1      -4.114   0.096 -32.170  1.00  0.00     0.157 A 
HETATM    5  C   UNL     1      -3.110  -1.078 -32.177  1.00  0.00     0.277 A 
HETATM    6  O   UNL     1      -2.068  -1.146 -31.564  1.00  0.00    -0.266 OA
HETATM    7  N   UNL     1      -3.939   1.121 -31.399  1.00  0.00    -0.166 NA
HETATM    8  C   UNL     1      -4.852  -1.570 -33.562  1.00  0.00     0.048 A 
HETATM    9  N   UNL     1      -3.666  -2.027 -33.003  1.00  0.00    -0.321 N 
HETATM   10  C   UNL     1      -5.639  -2.246 -34.469  1.00  0.00     0.033 A 
HETATM   11  C   UNL     1      -6.767  -1.583 -34.957  1.00  0.00     0.039 A 
HETATM   12  H   UNL     1      -3.217  -2.911 -33.192  1.00  0.00     0.169 HD
ENDROOT
BRANCH   7  13
HETATM   13  N   UNL     1      -4.933   2.041 -31.272  1.00  0.00    -0.242 N 
HETATM   14  C   UNL     1      -5.917   1.866 -30.311  1.00  0.00     0.274 C 
HETATM   15  O   UNL     1      -5.906   1.005 -29.432  1.00  0.00    -0.266 OA
HETATM   16  H   UNL     1      -5.016   2.748 -31.984  1.00  0.00     0.192 HD
BRANCH  14  17
HETATM   17  C   UNL     1      -7.032   2.857 -30.306  1.00  0.00     0.068 A 
HETATM   18  C   UNL     1      -8.333   2.424 -30.615  1.00  0.00     0.081 A 
HETATM   19  C   UNL     1      -9.410   3.308 -30.574  1.00  0.00     0.039 A 
HETATM   20  C   UNL     1      -9.202   4.645 -30.237  1.00  0.00     0.022 A 
HETATM   21  C   UNL     1      -7.911   5.089 -29.957  1.00  0.00     0.012 A 
HETATM   22 BR   UNL     1      -7.623   6.903 -29.510  1.00  0.00    -0.051 Br
HETATM   23  C   UNL     1      -6.825   4.210 -29.998  1.00  0.00     0.039 A 
BRANCH  18  24
HETATM   24  O   UNL     1      -8.632   1.134 -30.963  1.00  0.00    -0.360 OA
HETATM   25  H   UNL     1      -8.230   0.954 -31.845  1.00  0.00     0.217 HD
ENDBRANCH  18  24
ENDBRANCH  14  17
ENDBRANCH   7  13
BRANCH   1  26
HETATM   26  O   UNL     1      -8.197   0.251 -35.151  1.00  0.00    -0.356 OA
HETATM   27  C   UNL     1      -9.165   0.856 -34.302  1.00  0.00     0.210 C 
ENDBRANCH   1  26
TORSDOF 4
ENDMDL
MODEL 5
REMARK VINA RESULT:      -7.3      3.670      5.586
REMARK  4 active torsions:
REMARK  status: ('A' for Active; 'I' for Inactive)
REMARK    1  A    between atoms: O_2  and  C_3 
REMARK    2  A    between atoms: N_9  and  N_10 
REMARK       I    between atoms: N_10  and  C_11 
REMARK    3  A    between atoms: C_11  and  C_12 
REMARK    4  A    between atoms: C_13  and  O_14 
ROOT
HETATM    1  C   UNL     1      -4.186   0.742 -31.532  1.00  0.00     0.069 A 
HETATM    2  C   UNL     1      -5.185   0.474 -32.473  1.00  0.00     0.053 A 
HETATM    3  C   UNL     1      -5.084  -0.696 -33.211  1.00  0.00     0.029 A 
HETATM    4  C   UNL     1      -5.925  -1.290 -34.262  1.00  0.00     0.157 A 
HETATM    5  C   UNL     1      -5.332  -2.691 -34.525  1.00  0.00     0.277 A 
HETATM    6  O   UNL     1      -5.762  -3.532 -35.282  1.00  0.00    -0.266 OA
HETATM    7  N   UNL     1      -6.945  -0.859 -34.933  1.00  0.00    -0.166 NA
HETATM    8  C   UNL     1      -4.060  -1.615 -32.970  1.00  0.00     0.048 A 
HETATM    9  N   UNL     1      -4.206  -2.763 -33.737  1.00  0.00    -0.321 N 
HETATM   10  C   UNL     1      -3.070  -1.378 -32.040  1.00  0.00     0.033 A 
HETATM   11  C   UNL     1      -3.136  -0.177 -31.329  1.00  0.00     0.039 A 
HETATM   12  H   UNL     1      -3.614  -3.580 -33.712  1.00  0.00     0.169 HD
ENDROOT
BRANCH   7  13
HETATM   13  N   UNL     1      -7.322   0.443 -34.817  1.00  0.00    -0.242 N 
HETATM   14  C   UNL     1      -8.436   0.773 -34.061  1.00  0.00     0.274 C 
HETATM   15  O   UNL     1      -9.060  -0.003 -33.339  1.00  0.00    -0.266 OA
HETATM   16  H   UNL     1      -6.873   1.120 -35.412  1.00  0.00     0.192 HD
BRANCH  14  17
HETATM   17  C   UNL     1      -8.851   2.206 -34.072  1.00  0.00     0.068 A 
HETATM   18  C   UNL     1     -10.114   2.548 -34.584  1.00  0.00     0.081 A 
HETATM   19  C   UNL     1     -10.560   3.869 -34.568  1.00  0.00     0.039 A 
HETATM   20  C   UNL     1      -9.744   4.873 -34.050  1.00  0.00     0.022 A 
HETATM   21  C   UNL     1      -8.478   4.547 -33.566  1.00  0.00     0.012 A 
HETATM   22 BR   UNL     1      -7.364   5.908 -32.872  1.00  0.00    -0.051 Br
HETATM   23  C   UNL     1      -8.022   3.226 -33.580  1.00  0.00     0.039 A 
BRANCH  18  24
HETATM   24  O   UNL     1     -10.981   1.632 -35.119  1.00  0.00    -0.360 OA
HETATM   25  H   UNL     1     -10.788   1.554 -36.082  1.00  0.00     0.217 HD
ENDBRANCH  18  24
ENDBRANCH  14  17
ENDBRANCH   7  13
BRANCH   1  26
HETATM   26  O   UNL     1      -4.119   1.853 -30.735  1.00  0.00    -0.356 OA
HETATM   27  C   UNL     1      -5.246   2.722 -30.727  1.00  0.00     0.210 C 
ENDBRANCH   1  26
TORSDOF 4
ENDMDL
MODEL 6
REMARK VINA RESULT:      -7.3      2.113      2.260
REMARK  4 active torsions:
REMARK  status: ('A' for Active; 'I' for Inactive)
REMARK    1  A    between atoms: O_2  and  C_3 
REMARK    2  A    between atoms: N_9  and  N_10 
REMARK       I    between atoms: N_10  and  C_11 
REMARK    3  A    between atoms: C_11  and  C_12 
REMARK    4  A    between atoms: C_13  and  O_14 
ROOT
HETATM    1  C   UNL     1      -4.297   0.619 -31.258  1.00  0.00     0.069 A 
HETATM    2  C   UNL     1      -4.664   1.955 -31.065  1.00  0.00     0.053 A 
HETATM    3  C   UNL     1      -6.015   2.250 -30.966  1.00  0.00     0.029 A 
HETATM    4  C   UNL     1      -6.751   3.509 -30.768  1.00  0.00     0.157 A 
HETATM    5  C   UNL     1      -8.227   3.099 -30.571  1.00  0.00     0.277 A 
HETATM    6  O   UNL     1      -9.158   3.833 -30.326  1.00  0.00    -0.266 OA
HETATM    7  N   UNL     1      -6.396   4.754 -30.760  1.00  0.00    -0.166 NA
HETATM    8  C   UNL     1      -6.977   1.237 -30.982  1.00  0.00     0.048 A 
HETATM    9  N   UNL     1      -8.254   1.737 -30.760  1.00  0.00    -0.321 N 
HETATM   10  C   UNL     1      -6.641  -0.087 -31.161  1.00  0.00     0.033 A 
HETATM   11  C   UNL     1      -5.285  -0.387 -31.313  1.00  0.00     0.039 A 
HETATM   12  H   UNL     1      -9.104   1.197 -30.691  1.00  0.00     0.169 HD
ENDROOT
BRANCH   7  13
HETATM   13  N   UNL     1      -5.131   5.092 -31.127  1.00  0.00    -0.242 N 
HETATM   14  C   UNL     1      -4.897   5.626 -32.385  1.00  0.00     0.274 C 
HETATM   15  O   UNL     1      -5.767   5.972 -33.183  1.00  0.00    -0.266 OA
HETATM   16  H   UNL     1      -4.372   4.801 -30.532  1.00  0.00     0.192 HD
BRANCH  14  17
HETATM   17  C   UNL     1      -3.472   5.869 -32.755  1.00  0.00     0.068 A 
HETATM   18  C   UNL     1      -3.099   5.815 -34.109  1.00  0.00     0.081 A 
HETATM   19  C   UNL     1      -1.788   6.084 -34.501  1.00  0.00     0.039 A 
HETATM   20  C   UNL     1      -0.825   6.397 -33.544  1.00  0.00     0.022 A 
HETATM   21  C   UNL     1      -1.180   6.424 -32.197  1.00  0.00     0.012 A 
HETATM   22 BR   UNL     1       0.127   6.838 -30.894  1.00  0.00    -0.051 Br
HETATM   23  C   UNL     1      -2.490   6.154 -31.794  1.00  0.00     0.039 A 
BRANCH  18  24
HETATM   24  O   UNL     1      -3.974   5.510 -35.117  1.00  0.00    -0.360 OA
HETATM   25  H   UNL     1      -4.890   5.618 -34.771  1.00  0.00     0.217 HD
ENDBRANCH  18  24
ENDBRANCH  14  17
ENDBRANCH   7  13
BRANCH   1  26
HETATM   26  O   UNL     1      -3.017   0.156 -31.395  1.00  0.00    -0.356 OA
HETATM   27  C   UNL     1      -2.846  -1.134 -31.971  1.00  0.00     0.210 C 
ENDBRANCH   1  26
TORSDOF 4
ENDMDL
MODEL 7
REMARK VINA RESULT:      -7.2      3.032      6.405
REMARK  4 active torsions:
REMARK  status: ('A' for Active; 'I' for Inactive)
REMARK    1  A    between atoms: O_2  and  C_3 
REMARK    2  A    between atoms: N_9  and  N_10 
REMARK       I    between atoms: N_10  and  C_11 
REMARK    3  A    between atoms: C_11  and  C_12 
REMARK    4  A    between atoms: C_13  and  O_14 
ROOT
HETATM    1  C   UNL     1      -3.264   4.670 -33.125  1.00  0.00     0.069 A 
HETATM    2  C   UNL     1      -4.453   3.933 -33.119  1.00  0.00     0.053 A 
HETATM    3  C   UNL     1      -5.502   4.399 -32.343  1.00  0.00     0.029 A 
HETATM    4  C   UNL     1      -6.864   3.897 -32.098  1.00  0.00     0.157 A 
HETATM    5  C   UNL     1      -7.569   4.995 -31.272  1.00  0.00     0.277 A 
HETATM    6  O   UNL     1      -8.723   5.001 -30.906  1.00  0.00    -0.266 OA
HETATM    7  N   UNL     1      -7.476   2.799 -32.410  1.00  0.00    -0.166 NA
HETATM    8  C   UNL     1      -5.405   5.607 -31.648  1.00  0.00     0.048 A 
HETATM    9  N   UNL     1      -6.601   5.942 -31.027  1.00  0.00    -0.321 N 
HETATM   10  C   UNL     1      -4.249   6.357 -31.646  1.00  0.00     0.033 A 
HETATM   11  C   UNL     1      -3.169   5.867 -32.385  1.00  0.00     0.039 A 
HETATM   12  H   UNL     1      -6.787   6.782 -30.499  1.00  0.00     0.169 HD
ENDROOT
BRANCH   7  13
HETATM   13  N   UNL     1      -6.774   1.775 -32.966  1.00  0.00    -0.242 N 
HETATM   14  C   UNL     1      -7.118   0.464 -32.673  1.00  0.00     0.274 C 
HETATM   15  O   UNL     1      -8.121   0.115 -32.052  1.00  0.00    -0.266 OA
HETATM   16  H   UNL     1      -5.921   1.997 -33.454  1.00  0.00     0.192 HD
BRANCH  14  17
HETATM   17  C   UNL     1      -6.234  -0.600 -33.231  1.00  0.00     0.068 A 
HETATM   18  C   UNL     1      -4.843  -0.490 -33.065  1.00  0.00     0.081 A 
HETATM   19  C   UNL     1      -3.985  -1.487 -33.529  1.00  0.00     0.039 A 
HETATM   20  C   UNL     1      -4.504  -2.605 -34.179  1.00  0.00     0.022 A 
HETATM   21  C   UNL     1      -5.880  -2.709 -34.373  1.00  0.00     0.012 A 
HETATM   22 BR   UNL     1      -6.588  -4.219 -35.264  1.00  0.00    -0.051 Br
HETATM   23  C   UNL     1      -6.747  -1.713 -33.914  1.00  0.00     0.039 A 
BRANCH  18  24
HETATM   24  O   UNL     1      -4.243   0.574 -32.447  1.00  0.00    -0.360 OA
HETATM   25  H   UNL     1      -3.604   0.976 -33.081  1.00  0.00     0.217 HD
ENDBRANCH  18  24
ENDBRANCH  14  17
ENDBRANCH   7  13
BRANCH   1  26
HETATM   26  O   UNL     1      -2.129   4.346 -33.816  1.00  0.00    -0.356 OA
HETATM   27  C   UNL     1      -1.787   5.159 -34.933  1.00  0.00     0.210 C 
ENDBRANCH   1  26
TORSDOF 4
ENDMDL
MODEL 8
REMARK VINA RESULT:      -7.2      4.165      6.506
REMARK  4 active torsions:
REMARK  status: ('A' for Active; 'I' for Inactive)
REMARK    1  A    between atoms: O_2  and  C_3 
REMARK    2  A    between atoms: N_9  and  N_10 
REMARK       I    between atoms: N_10  and  C_11 
REMARK    3  A    between atoms: C_11  and  C_12 
REMARK    4  A    between atoms: C_13  and  O_14 
ROOT
HETATM    1  C   UNL     1      -4.618   1.468 -31.814  1.00  0.00     0.069 A 
HETATM    2  C   UNL     1      -5.755   0.960 -32.451  1.00  0.00     0.053 A 
HETATM    3  C   UNL     1      -5.613  -0.191 -33.212  1.00  0.00     0.029 A 
HETATM    4  C   UNL     1      -6.563  -0.988 -34.004  1.00  0.00     0.157 A 
HETATM    5  C   UNL     1      -5.780  -2.243 -34.449  1.00  0.00     0.277 A 
HETATM    6  O   UNL     1      -6.212  -3.184 -35.076  1.00  0.00    -0.266 OA
HETATM    7  N   UNL     1      -7.794  -0.807 -34.362  1.00  0.00    -0.166 NA
HETATM    8  C   UNL     1      -4.391  -0.865 -33.279  1.00  0.00     0.048 A 
HETATM    9  N   UNL     1      -4.494  -2.047 -34.001  1.00  0.00    -0.321 N 
HETATM   10  C   UNL     1      -3.260  -0.390 -32.652  1.00  0.00     0.033 A 
HETATM   11  C   UNL     1      -3.383   0.797 -31.925  1.00  0.00     0.039 A 
HETATM   12  H   UNL     1      -3.758  -2.720 -34.156  1.00  0.00     0.169 HD
ENDROOT
BRANCH   7  13
HETATM   13  N   UNL     1      -8.392   0.391 -34.120  1.00  0.00    -0.242 N 
HETATM   14  C   UNL     1      -9.496   0.454 -33.283  1.00  0.00     0.274 C 
HETATM   15  O   UNL     1      -9.920  -0.474 -32.596  1.00  0.00    -0.266 OA
HETATM   16  H   UNL     1      -8.113   1.180 -34.680  1.00  0.00     0.192 HD
BRANCH  14  17
HETATM   17  C   UNL     1     -10.163   1.782 -33.155  1.00  0.00     0.068 A 
HETATM   18  C   UNL     1     -10.069   2.479 -31.938  1.00  0.00     0.081 A 
HETATM   19  C   UNL     1     -10.637   3.744 -31.792  1.00  0.00     0.039 A 
HETATM   20  C   UNL     1     -11.321   4.328 -32.857  1.00  0.00     0.022 A 
HETATM   21  C   UNL     1     -11.444   3.631 -34.058  1.00  0.00     0.012 A 
HETATM   22 BR   UNL     1     -12.380   4.414 -35.502  1.00  0.00    -0.051 Br
HETATM   23  C   UNL     1     -10.880   2.361 -34.213  1.00  0.00     0.039 A 
BRANCH  18  24
HETATM   24  O   UNL     1      -9.424   1.984 -30.837  1.00  0.00    -0.360 OA
HETATM   25  H   UNL     1      -8.458   1.958 -31.033  1.00  0.00     0.217 HD
ENDBRANCH  18  24
ENDBRANCH  14  17
ENDBRANCH   7  13
BRANCH   1  26
HETATM   26  O   UNL     1      -4.575   2.598 -31.043  1.00  0.00    -0.356 OA
HETATM   27  C   UNL     1      -5.597   2.765 -30.068  1.00  0.00     0.210 C 
ENDBRANCH   1  26
TORSDOF 4
ENDMDL
MODEL 9
REMARK VINA RESULT:      -7.2      3.810      5.459
REMARK  4 active torsions:
REMARK  status: ('A' for Active; 'I' for Inactive)
REMARK    1  A    between atoms: O_2  and  C_3 
REMARK    2  A    between atoms: N_9  and  N_10 
REMARK       I    between atoms: N_10  and  C_11 
REMARK    3  A    between atoms: C_11  and  C_12 
REMARK    4  A    between atoms: C_13  and  O_14 
ROOT
HETATM    1  C   UNL     1      -7.412  -0.225 -34.301  1.00  0.00     0.069 A 
HETATM    2  C   UNL     1      -6.615   0.229 -33.246  1.00  0.00     0.053 A 
HETATM    3  C   UNL     1      -5.514  -0.535 -32.889  1.00  0.00     0.029 A 
HETATM    4  C   UNL     1      -4.479  -0.374 -31.856  1.00  0.00     0.157 A 
HETATM    5  C   UNL     1      -3.448  -1.492 -32.124  1.00  0.00     0.277 A 
HETATM    6  O   UNL     1      -2.409  -1.681 -31.531  1.00  0.00    -0.266 OA
HETATM    7  N   UNL     1      -4.333   0.445 -30.864  1.00  0.00    -0.166 NA
HETATM    8  C   UNL     1      -5.167  -1.682 -33.609  1.00  0.00     0.048 A 
HETATM    9  N   UNL     1      -3.976  -2.233 -33.156  1.00  0.00    -0.321 N 
HETATM   10  C   UNL     1      -5.931  -2.143 -34.659  1.00  0.00     0.033 A 
HETATM   11  C   UNL     1      -7.071  -1.407 -34.992  1.00  0.00     0.039 A 
HETATM   12  H   UNL     1      -3.505  -3.039 -33.541  1.00  0.00     0.169 HD
ENDROOT
BRANCH   7  13
HETATM   13  N   UNL     1      -5.348   1.290 -30.538  1.00  0.00    -0.242 N 
HETATM   14  C   UNL     1      -5.231   2.645 -30.806  1.00  0.00     0.274 C 
HETATM   15  O   UNL     1      -4.329   3.163 -31.463  1.00  0.00    -0.266 OA
HETATM   16  H   UNL     1      -6.096   0.931 -29.967  1.00  0.00     0.192 HD
BRANCH  14  17
HETATM   17  C   UNL     1      -6.336   3.522 -30.320  1.00  0.00     0.068 A 
HETATM   18  C   UNL     1      -6.022   4.649 -29.542  1.00  0.00     0.081 A 
HETATM   19  C   UNL     1      -7.020   5.521 -29.109  1.00  0.00     0.039 A 
HETATM   20  C   UNL     1      -8.352   5.272 -29.436  1.00  0.00     0.022 A 
HETATM   21  C   UNL     1      -8.675   4.141 -30.183  1.00  0.00     0.012 A 
HETATM   22 BR   UNL     1     -10.482   3.794 -30.620  1.00  0.00    -0.051 Br
HETATM   23  C   UNL     1      -7.681   3.260 -30.619  1.00  0.00     0.039 A 
BRANCH  18  24
HETATM   24  O   UNL     1      -4.745   4.970 -29.166  1.00  0.00    -0.360 OA
HETATM   25  H   UNL     1      -4.202   5.075 -29.983  1.00  0.00     0.217 HD
ENDBRANCH  18  24
ENDBRANCH  14  17
ENDBRANCH   7  13
BRANCH   1  26
HETATM   26  O   UNL     1      -8.541   0.391 -34.770  1.00  0.00    -0.356 OA
HETATM   27  C   UNL     1      -9.402   0.996 -33.812  1.00  0.00     0.210 C 
ENDBRANCH   1  26
TORSDOF 4
ENDMDL
MODEL 10
REMARK VINA RESULT:      -7.1      3.176      6.053
REMARK  4 active torsions:
REMARK  status: ('A' for Active; 'I' for Inactive)
REMARK    1  A    between atoms: O_2  and  C_3 
REMARK    2  A    between atoms: N_9  and  N_10 
REMARK       I    between atoms: N_10  and  C_11 
REMARK    3  A    between atoms: C_11  and  C_12 
REMARK    4  A    between atoms: C_13  and  O_14 
ROOT
HETATM    1  C   UNL     1     -10.555   4.311 -34.989  1.00  0.00     0.069 A 
HETATM    2  C   UNL     1     -10.166   3.093 -34.422  1.00  0.00     0.053 A 
HETATM    3  C   UNL     1     -11.156   2.168 -34.128  1.00  0.00     0.029 A 
HETATM    4  C   UNL     1     -11.121   0.819 -33.542  1.00  0.00     0.157 A 
HETATM    5  C   UNL     1     -12.562   0.277 -33.662  1.00  0.00     0.277 A 
HETATM    6  O   UNL     1     -12.953  -0.824 -33.345  1.00  0.00    -0.266 OA
HETATM    7  N   UNL     1     -10.186   0.116 -32.986  1.00  0.00    -0.166 NA
HETATM    8  C   UNL     1     -12.492   2.412 -34.457  1.00  0.00     0.048 A 
HETATM    9  N   UNL     1     -13.299   1.317 -34.178  1.00  0.00    -0.321 N 
HETATM   10  C   UNL     1     -12.898   3.600 -35.025  1.00  0.00     0.033 A 
HETATM   11  C   UNL     1     -11.913   4.558 -35.277  1.00  0.00     0.039 A 
HETATM   12  H   UNL     1     -14.289   1.241 -34.362  1.00  0.00     0.169 HD
ENDROOT
BRANCH   7  13
HETATM   13  N   UNL     1      -8.983   0.691 -32.721  1.00  0.00    -0.242 N 
HETATM   14  C   UNL     1      -7.887   0.396 -33.518  1.00  0.00     0.274 C 
HETATM   15  O   UNL     1      -7.924  -0.244 -34.568  1.00  0.00    -0.266 OA
HETATM   16  H   UNL     1      -8.880   1.196 -31.856  1.00  0.00     0.192 HD
BRANCH  14  17
HETATM   17  C   UNL     1      -6.579   0.978 -33.099  1.00  0.00     0.068 A 
HETATM   18  C   UNL     1      -5.511   0.114 -32.801  1.00  0.00     0.081 A 
HETATM   19  C   UNL     1      -4.258   0.618 -32.453  1.00  0.00     0.039 A 
HETATM   20  C   UNL     1      -4.056   1.995 -32.384  1.00  0.00     0.022 A 
HETATM   21  C   UNL     1      -5.117   2.859 -32.651  1.00  0.00     0.012 A 
HETATM   22 BR   UNL     1      -4.849   4.728 -32.549  1.00  0.00    -0.051 Br
HETATM   23  C   UNL     1      -6.376   2.363 -32.998  1.00  0.00     0.039 A 
BRANCH  18  24
HETATM   24  O   UNL     1      -5.617  -1.251 -32.835  1.00  0.00    -0.360 OA
HETATM   25  H   UNL     1      -5.797  -1.566 -31.918  1.00  0.00     0.217 HD
ENDBRANCH  18  24
ENDBRANCH  14  17
ENDBRANCH   7  13
BRANCH   1  26
HETATM   26  O   UNL     1      -9.715   5.339 -35.322  1.00  0.00    -0.356 OA
HETATM   27  C   UNL     1     -10.304   6.610 -35.572  1.00  0.00     0.210 C 
ENDBRANCH   1  26
TORSDOF 4
ENDMDL
