MODEL 1
REMARK VINA RESULT:      -9.1      0.000      0.000
REMARK  6 active torsions:
REMARK  status: ('A' for Active; 'I' for Inactive)
REMARK    1  A    between atoms: O_2  and  C_3 
REMARK    2  A    between atoms: C_4  and  C_5 
REMARK    3  A    between atoms: C_5  and  N_6 
REMARK       I    between atoms: N_6  and  C_7 
REMARK    4  A    between atoms: C_7  and  C_8 
REMARK    5  A    between atoms: C_8  and  O_9 
REMARK    6  A    between atoms: N_10  and  C_11 
ROOT
HETATM    1  C   UNL     1      -6.818   2.293 -33.565  1.00  0.00     0.256 C 
HETATM    2  N   UNL     1      -6.268   3.540 -33.005  1.00  0.00    -0.254 N 
HETATM    3  C   UNL     1      -6.928   4.157 -31.948  1.00  0.00     0.330 C 
HETATM    4  O   UNL     1      -6.425   4.967 -31.169  1.00  0.00    -0.246 OA
HETATM    5  N   UNL     1      -8.232   3.824 -31.733  1.00  0.00    -0.308 N 
HETATM    6  C   UNL     1      -8.983   2.976 -32.532  1.00  0.00     0.048 A 
HETATM    7  C   UNL     1      -8.332   2.223 -33.497  1.00  0.00     0.034 A 
HETATM    8  C   UNL     1     -10.366   2.901 -32.357  1.00  0.00     0.030 A 
HETATM    9  C   UNL     1     -11.120   2.065 -33.180  1.00  0.00     0.002 A 
HETATM   10  C   UNL     1     -10.488   1.302 -34.158  1.00  0.00     0.001 A 
HETATM   11  C   UNL     1      -9.101   1.372 -34.311  1.00  0.00     0.015 A 
HETATM   12  H   UNL     1      -8.684   4.364 -31.007  1.00  0.00     0.170 HD
ENDROOT
BRANCH   1  13
HETATM   13  C   UNL     1      -6.214   1.014 -32.853  1.00  0.00     0.279 C 
HETATM   14  N   UNL     1      -5.350   0.226 -33.580  1.00  0.00    -0.352 N 
HETATM   15  H   UNL     1      -5.279   0.366 -34.580  1.00  0.00     0.162 HD
HETATM   16  O   UNL     1      -6.496   0.786 -31.671  1.00  0.00    -0.268 OA
BRANCH  14  17
HETATM   17  C   UNL     1      -4.751  -0.978 -33.037  1.00  0.00     0.164 C 
BRANCH  17  18
HETATM   18  C   UNL     1      -5.172  -2.255 -33.734  1.00  0.00    -0.007 A 
HETATM   19  C   UNL     1      -4.309  -3.373 -33.688  1.00  0.00     0.076 A 
HETATM   20  C   UNL     1      -4.685  -4.573 -34.302  1.00  0.00     0.037 A 
HETATM   21  C   UNL     1      -5.907  -4.673 -34.967  1.00  0.00     0.003 A 
HETATM   22  C   UNL     1      -6.763  -3.578 -35.020  1.00  0.00     0.001 A 
HETATM   23  C   UNL     1      -6.400  -2.379 -34.406  1.00  0.00     0.011 A 
BRANCH  19  24
HETATM   24  O   UNL     1      -3.136  -3.195 -32.999  1.00  0.00    -0.355 OA
HETATM   25  C   UNL     1      -3.021  -3.843 -31.737  1.00  0.00     0.210 C 
ENDBRANCH  19  24
ENDBRANCH  17  18
ENDBRANCH  14  17
ENDBRANCH   1  13
BRANCH   1  26
HETATM   26  O   UNL     1      -6.501   2.241 -34.965  1.00  0.00    -0.359 OA
HETATM   27  H   UNL     1      -6.551   1.294 -35.198  1.00  0.00     0.213 HD
ENDBRANCH   1  26
BRANCH   2  28
HETATM   28  C   UNL     1      -4.970   4.020 -33.421  1.00  0.00     0.043 A 
HETATM   29  C   UNL     1      -3.778   3.624 -32.793  1.00  0.00     0.031 A 
HETATM   30  C   UNL     1      -2.531   4.085 -33.239  1.00  0.00     0.026 A 
HETATM   31  C   UNL     1      -2.456   4.939 -34.332  1.00  0.00     0.034 A 
HETATM   32 CL   UNL     1      -0.924   5.490 -34.888  1.00  0.00    -0.084 Cl
HETATM   33  C   UNL     1      -3.615   5.342 -34.979  1.00  0.00     0.026 A 
HETATM   34  C   UNL     1      -4.858   4.887 -34.524  1.00  0.00     0.031 A 
ENDBRANCH   2  28
TORSDOF 6
ENDMDL
MODEL 2
REMARK VINA RESULT:      -9.1      2.895      6.666
REMARK  6 active torsions:
REMARK  status: ('A' for Active; 'I' for Inactive)
REMARK    1  A    between atoms: O_2  and  C_3 
REMARK    2  A    between atoms: C_4  and  C_5 
REMARK    3  A    between atoms: C_5  and  N_6 
REMARK       I    between atoms: N_6  and  C_7 
REMARK    4  A    between atoms: C_7  and  C_8 
REMARK    5  A    between atoms: C_8  and  O_9 
REMARK    6  A    between atoms: N_10  and  C_11 
ROOT
HETATM    1  C   UNL     1      -6.260   0.914 -32.034  1.00  0.00     0.256 C 
HETATM    2  N   UNL     1      -6.465   0.476 -33.426  1.00  0.00    -0.254 N 
HETATM    3  C   UNL     1      -6.818   1.416 -34.387  1.00  0.00     0.330 C 
HETATM    4  O   UNL     1      -6.678   1.280 -35.603  1.00  0.00    -0.246 OA
HETATM    5  N   UNL     1      -7.339   2.599 -33.956  1.00  0.00    -0.308 N 
HETATM    6  C   UNL     1      -7.622   2.915 -32.637  1.00  0.00     0.048 A 
HETATM    7  C   UNL     1      -7.146   2.079 -31.637  1.00  0.00     0.034 A 
HETATM    8  C   UNL     1      -8.375   4.053 -32.340  1.00  0.00     0.030 A 
HETATM    9  C   UNL     1      -8.677   4.352 -31.013  1.00  0.00     0.002 A 
HETATM   10  C   UNL     1      -8.213   3.525 -29.993  1.00  0.00     0.001 A 
HETATM   11  C   UNL     1      -7.444   2.400 -30.301  1.00  0.00     0.015 A 
HETATM   12  H   UNL     1      -7.656   3.208 -34.699  1.00  0.00     0.170 HD
ENDROOT
BRANCH   1  13
HETATM   13  C   UNL     1      -4.750   1.302 -31.758  1.00  0.00     0.279 C 
HETATM   14  N   UNL     1      -4.347   2.577 -32.092  1.00  0.00    -0.352 N 
HETATM   15  H   UNL     1      -4.951   3.149 -32.668  1.00  0.00     0.162 HD
HETATM   16  O   UNL     1      -3.999   0.481 -31.222  1.00  0.00    -0.268 OA
BRANCH  14  17
HETATM   17  C   UNL     1      -2.985   3.036 -31.902  1.00  0.00     0.164 C 
BRANCH  17  18
HETATM   18  C   UNL     1      -2.615   4.255 -32.721  1.00  0.00    -0.007 A 
HETATM   19  C   UNL     1      -1.464   4.993 -32.365  1.00  0.00     0.076 A 
HETATM   20  C   UNL     1      -1.086   6.108 -33.120  1.00  0.00     0.037 A 
HETATM   21  C   UNL     1      -1.843   6.503 -34.223  1.00  0.00     0.003 A 
HETATM   22  C   UNL     1      -2.979   5.786 -34.582  1.00  0.00     0.001 A 
HETATM   23  C   UNL     1      -3.362   4.668 -33.838  1.00  0.00     0.011 A 
BRANCH  19  24
HETATM   24  O   UNL     1      -0.768   4.526 -31.278  1.00  0.00    -0.355 OA
HETATM   25  C   UNL     1       0.298   5.337 -30.795  1.00  0.00     0.210 C 
ENDBRANCH  19  24
ENDBRANCH  17  18
ENDBRANCH  14  17
ENDBRANCH   1  13
BRANCH   1  26
HETATM   26  O   UNL     1      -6.634  -0.160 -31.157  1.00  0.00    -0.359 OA
HETATM   27  H   UNL     1      -7.458   0.142 -30.728  1.00  0.00     0.213 HD
ENDBRANCH   1  26
BRANCH   2  28
HETATM   28  C   UNL     1      -6.129  -0.871 -33.828  1.00  0.00     0.043 A 
HETATM   29  C   UNL     1      -4.804  -1.335 -33.893  1.00  0.00     0.031 A 
HETATM   30  C   UNL     1      -4.512  -2.657 -34.257  1.00  0.00     0.026 A 
HETATM   31  C   UNL     1      -5.543  -3.542 -34.548  1.00  0.00     0.034 A 
HETATM   32 CL   UNL     1      -5.183  -5.168 -34.980  1.00  0.00    -0.084 Cl
HETATM   33  C   UNL     1      -6.862  -3.117 -34.484  1.00  0.00     0.026 A 
HETATM   34  C   UNL     1      -7.148  -1.793 -34.129  1.00  0.00     0.031 A 
ENDBRANCH   2  28
TORSDOF 6
ENDMDL
MODEL 3
REMARK VINA RESULT:      -9.0      2.781      6.975
REMARK  6 active torsions:
REMARK  status: ('A' for Active; 'I' for Inactive)
REMARK    1  A    between atoms: O_2  and  C_3 
REMARK    2  A    between atoms: C_4  and  C_5 
REMARK    3  A    between atoms: C_5  and  N_6 
REMARK       I    between atoms: N_6  and  C_7 
REMARK    4  A    between atoms: C_7  and  C_8 
REMARK    5  A    between atoms: C_8  and  O_9 
REMARK    6  A    between atoms: N_10  and  C_11 
ROOT
HETATM    1  C   UNL     1      -5.835   1.712 -33.126  1.00  0.00     0.256 C 
HETATM    2  N   UNL     1      -5.097   0.482 -32.785  1.00  0.00    -0.254 N 
HETATM    3  C   UNL     1      -4.202   0.502 -31.723  1.00  0.00     0.330 C 
HETATM    4  O   UNL     1      -3.798  -0.489 -31.112  1.00  0.00    -0.246 OA
HETATM    5  N   UNL     1      -3.748   1.714 -31.297  1.00  0.00    -0.308 N 
HETATM    6  C   UNL     1      -4.045   2.932 -31.888  1.00  0.00     0.048 A 
HETATM    7  C   UNL     1      -5.048   2.978 -32.845  1.00  0.00     0.034 A 
HETATM    8  C   UNL     1      -3.334   4.075 -31.519  1.00  0.00     0.030 A 
HETATM    9  C   UNL     1      -3.620   5.293 -32.135  1.00  0.00     0.002 A 
HETATM   10  C   UNL     1      -4.621   5.362 -33.101  1.00  0.00     0.001 A 
HETATM   11  C   UNL     1      -5.338   4.215 -33.448  1.00  0.00     0.015 A 
HETATM   12  H   UNL     1      -3.036   1.662 -30.579  1.00  0.00     0.170 HD
ENDROOT
BRANCH   1  13
HETATM   13  C   UNL     1      -7.222   1.792 -32.366  1.00  0.00     0.279 C 
HETATM   14  N   UNL     1      -8.362   1.913 -33.130  1.00  0.00    -0.352 N 
HETATM   15  H   UNL     1      -8.275   2.141 -34.112  1.00  0.00     0.162 HD
HETATM   16  O   UNL     1      -7.247   1.702 -31.134  1.00  0.00    -0.268 OA
BRANCH  14  17
HETATM   17  C   UNL     1      -9.684   2.014 -32.542  1.00  0.00     0.164 C 
BRANCH  17  18
HETATM   18  C   UNL     1     -10.814   2.067 -33.549  1.00  0.00    -0.007 A 
HETATM   19  C   UNL     1     -10.880   3.157 -34.445  1.00  0.00     0.076 A 
HETATM   20  C   UNL     1     -11.899   3.217 -35.402  1.00  0.00     0.037 A 
HETATM   21  C   UNL     1     -12.859   2.207 -35.475  1.00  0.00     0.003 A 
HETATM   22  C   UNL     1     -12.805   1.130 -34.596  1.00  0.00     0.001 A 
HETATM   23  C   UNL     1     -11.790   1.059 -33.642  1.00  0.00     0.011 A 
BRANCH  19  24
HETATM   24  O   UNL     1      -9.887   4.096 -34.317  1.00  0.00    -0.355 OA
HETATM   25  C   UNL     1     -10.047   5.311 -35.041  1.00  0.00     0.210 C 
ENDBRANCH  19  24
ENDBRANCH  17  18
ENDBRANCH  14  17
ENDBRANCH   1  13
BRANCH   1  26
HETATM   26  O   UNL     1      -6.076   1.724 -34.542  1.00  0.00    -0.359 OA
HETATM   27  H   UNL     1      -7.008   1.449 -34.639  1.00  0.00     0.213 HD
ENDBRANCH   1  26
BRANCH   2  28
HETATM   28  C   UNL     1      -5.428  -0.771 -33.424  1.00  0.00     0.043 A 
HETATM   29  C   UNL     1      -6.749  -1.236 -33.545  1.00  0.00     0.031 A 
HETATM   30  C   UNL     1      -7.040  -2.442 -34.197  1.00  0.00     0.026 A 
HETATM   31  C   UNL     1      -6.015  -3.198 -34.753  1.00  0.00     0.034 A 
HETATM   32 CL   UNL     1      -6.376  -4.670 -35.567  1.00  0.00    -0.084 Cl
HETATM   33  C   UNL     1      -4.702  -2.761 -34.658  1.00  0.00     0.026 A 
HETATM   34  C   UNL     1      -4.414  -1.561 -33.998  1.00  0.00     0.031 A 
ENDBRANCH   2  28
TORSDOF 6
ENDMDL
MODEL 4
REMARK VINA RESULT:      -8.9      2.938      6.009
REMARK  6 active torsions:
REMARK  status: ('A' for Active; 'I' for Inactive)
REMARK    1  A    between atoms: O_2  and  C_3 
REMARK    2  A    between atoms: C_4  and  C_5 
REMARK    3  A    between atoms: C_5  and  N_6 
REMARK       I    between atoms: N_6  and  C_7 
REMARK    4  A    between atoms: C_7  and  C_8 
REMARK    5  A    between atoms: C_8  and  O_9 
REMARK    6  A    between atoms: N_10  and  C_11 
ROOT
HETATM    1  C   UNL     1      -3.869   4.661 -32.119  1.00  0.00     0.256 C 
HETATM    2  N   UNL     1      -4.570   4.935 -33.386  1.00  0.00    -0.254 N 
HETATM    3  C   UNL     1      -3.835   5.355 -34.489  1.00  0.00     0.330 C 
HETATM    4  O   UNL     1      -4.204   5.280 -35.662  1.00  0.00    -0.246 OA
HETATM    5  N   UNL     1      -2.594   5.870 -34.266  1.00  0.00    -0.308 N 
HETATM    6  C   UNL     1      -2.029   6.084 -33.019  1.00  0.00     0.048 A 
HETATM    7  C   UNL     1      -2.653   5.542 -31.905  1.00  0.00     0.034 A 
HETATM    8  C   UNL     1      -0.858   6.837 -32.905  1.00  0.00     0.030 A 
HETATM    9  C   UNL     1      -0.308   7.070 -31.646  1.00  0.00     0.002 A 
HETATM   10  C   UNL     1      -0.920   6.538 -30.514  1.00  0.00     0.001 A 
HETATM   11  C   UNL     1      -2.080   5.771 -30.641  1.00  0.00     0.015 A 
HETATM   12  H   UNL     1      -2.141   6.236 -35.093  1.00  0.00     0.170 HD
ENDROOT
BRANCH   1  13
HETATM   13  C   UNL     1      -3.429   3.144 -32.009  1.00  0.00     0.279 C 
HETATM   14  N   UNL     1      -4.174   2.320 -31.195  1.00  0.00    -0.352 N 
HETATM   15  H   UNL     1      -4.839   2.732 -30.554  1.00  0.00     0.162 HD
HETATM   16  O   UNL     1      -2.472   2.739 -32.678  1.00  0.00    -0.268 OA
BRANCH  14  17
HETATM   17  C   UNL     1      -3.852   0.918 -31.004  1.00  0.00     0.164 C 
BRANCH  17  18
HETATM   18  C   UNL     1      -4.466  -0.010 -32.030  1.00  0.00    -0.007 A 
HETATM   19  C   UNL     1      -5.873  -0.047 -32.162  1.00  0.00     0.076 A 
HETATM   20  C   UNL     1      -6.465  -0.877 -33.120  1.00  0.00     0.037 A 
HETATM   21  C   UNL     1      -5.674  -1.678 -33.945  1.00  0.00     0.003 A 
HETATM   22  C   UNL     1      -4.289  -1.652 -33.822  1.00  0.00     0.001 A 
HETATM   23  C   UNL     1      -3.689  -0.823 -32.874  1.00  0.00     0.011 A 
BRANCH  19  24
HETATM   24  O   UNL     1      -6.573   0.785 -31.325  1.00  0.00    -0.355 OA
HETATM   25  C   UNL     1      -7.988   0.641 -31.305  1.00  0.00     0.210 C 
ENDBRANCH  19  24
ENDBRANCH  17  18
ENDBRANCH  14  17
ENDBRANCH   1  13
BRANCH   1  26
HETATM   26  O   UNL     1      -4.755   4.970 -31.030  1.00  0.00    -0.359 OA
HETATM   27  H   UNL     1      -4.305   5.683 -30.537  1.00  0.00     0.213 HD
ENDBRANCH   1  26
BRANCH   2  28
HETATM   28  C   UNL     1      -5.968   4.602 -33.537  1.00  0.00     0.043 A 
HETATM   29  C   UNL     1      -6.992   5.558 -33.436  1.00  0.00     0.031 A 
HETATM   30  C   UNL     1      -8.337   5.209 -33.618  1.00  0.00     0.026 A 
HETATM   31  C   UNL     1      -8.680   3.897 -33.920  1.00  0.00     0.034 A 
HETATM   32 CL   UNL     1     -10.330   3.473 -34.159  1.00  0.00    -0.084 Cl
HETATM   33  C   UNL     1      -7.691   2.930 -34.036  1.00  0.00     0.026 A 
HETATM   34  C   UNL     1      -6.349   3.283 -33.844  1.00  0.00     0.031 A 
ENDBRANCH   2  28
TORSDOF 6
ENDMDL
MODEL 5
REMARK VINA RESULT:      -8.7      2.896      5.270
REMARK  6 active torsions:
REMARK  status: ('A' for Active; 'I' for Inactive)
REMARK    1  A    between atoms: O_2  and  C_3 
REMARK    2  A    between atoms: C_4  and  C_5 
REMARK    3  A    between atoms: C_5  and  N_6 
REMARK       I    between atoms: N_6  and  C_7 
REMARK    4  A    between atoms: C_7  and  C_8 
REMARK    5  A    between atoms: C_8  and  O_9 
REMARK    6  A    between atoms: N_10  and  C_11 
ROOT
HETATM    1  C   UNL     1      -7.142   2.006 -33.056  1.00  0.00     0.256 C 
HETATM    2  N   UNL     1      -8.107   3.077 -33.365  1.00  0.00    -0.254 N 
HETATM    3  C   UNL     1      -7.634   4.311 -33.795  1.00  0.00     0.330 C 
HETATM    4  O   UNL     1      -8.291   5.152 -34.410  1.00  0.00    -0.246 OA
HETATM    5  N   UNL     1      -6.329   4.614 -33.544  1.00  0.00    -0.308 N 
HETATM    6  C   UNL     1      -5.450   3.823 -32.821  1.00  0.00     0.048 A 
HETATM    7  C   UNL     1      -5.827   2.526 -32.509  1.00  0.00     0.034 A 
HETATM    8  C   UNL     1      -4.217   4.342 -32.421  1.00  0.00     0.030 A 
HETATM    9  C   UNL     1      -3.347   3.551 -31.673  1.00  0.00     0.002 A 
HETATM   10  C   UNL     1      -3.706   2.246 -31.344  1.00  0.00     0.001 A 
HETATM   11  C   UNL     1      -4.934   1.731 -31.767  1.00  0.00     0.015 A 
HETATM   12  H   UNL     1      -6.064   5.555 -33.803  1.00  0.00     0.170 HD
ENDROOT
BRANCH   1  13
HETATM   13  C   UNL     1      -6.848   1.101 -34.321  1.00  0.00     0.279 C 
HETATM   14  N   UNL     1      -6.741  -0.258 -34.123  1.00  0.00    -0.352 N 
HETATM   15  H   UNL     1      -6.657  -0.613 -33.179  1.00  0.00     0.162 HD
HETATM   16  O   UNL     1      -6.767   1.623 -35.438  1.00  0.00    -0.268 OA
BRANCH  14  17
HETATM   17  C   UNL     1      -6.455  -1.182 -35.204  1.00  0.00     0.164 C 
BRANCH  17  18
HETATM   18  C   UNL     1      -5.791  -2.470 -34.768  1.00  0.00    -0.007 A 
HETATM   19  C   UNL     1      -4.584  -2.402 -34.035  1.00  0.00     0.076 A 
HETATM   20  C   UNL     1      -3.963  -3.577 -33.598  1.00  0.00     0.037 A 
HETATM   21  C   UNL     1      -4.525  -4.822 -33.885  1.00  0.00     0.003 A 
HETATM   22  C   UNL     1      -5.711  -4.901 -34.606  1.00  0.00     0.001 A 
HETATM   23  C   UNL     1      -6.342  -3.734 -35.043  1.00  0.00     0.011 A 
BRANCH  19  24
HETATM   24  O   UNL     1      -4.110  -1.140 -33.781  1.00  0.00    -0.355 OA
HETATM   25  C   UNL     1      -3.131  -1.010 -32.757  1.00  0.00     0.210 C 
ENDBRANCH  19  24
ENDBRANCH  17  18
ENDBRANCH  14  17
ENDBRANCH   1  13
BRANCH   1  26
HETATM   26  O   UNL     1      -7.688   1.186 -32.011  1.00  0.00    -0.359 OA
HETATM   27  H   UNL     1      -8.469   0.757 -32.412  1.00  0.00     0.213 HD
ENDBRANCH   1  26
BRANCH   2  28
HETATM   28  C   UNL     1      -9.525   2.800 -33.396  1.00  0.00     0.043 A 
HETATM   29  C   UNL     1     -10.104   1.909 -34.314  1.00  0.00     0.031 A 
HETATM   30  C   UNL     1     -11.479   1.637 -34.300  1.00  0.00     0.026 A 
HETATM   31  C   UNL     1     -12.297   2.243 -33.354  1.00  0.00     0.034 A 
HETATM   32 CL   UNL     1     -13.982   1.897 -33.328  1.00  0.00    -0.084 Cl
HETATM   33  C   UNL     1     -11.754   3.122 -32.428  1.00  0.00     0.026 A 
HETATM   34  C   UNL     1     -10.381   3.396 -32.452  1.00  0.00     0.031 A 
ENDBRANCH   2  28
TORSDOF 6
ENDMDL
MODEL 6
REMARK VINA RESULT:      -8.6      2.446      5.992
REMARK  6 active torsions:
REMARK  status: ('A' for Active; 'I' for Inactive)
REMARK    1  A    between atoms: O_2  and  C_3 
REMARK    2  A    between atoms: C_4  and  C_5 
REMARK    3  A    between atoms: C_5  and  N_6 
REMARK       I    between atoms: N_6  and  C_7 
REMARK    4  A    between atoms: C_7  and  C_8 
REMARK    5  A    between atoms: C_8  and  O_9 
REMARK    6  A    between atoms: N_10  and  C_11 
ROOT
HETATM    1  C   UNL     1      -4.903   2.099 -32.318  1.00  0.00     0.256 C 
HETATM    2  N   UNL     1      -4.612   3.351 -33.038  1.00  0.00    -0.254 N 
HETATM    3  C   UNL     1      -5.513   3.809 -33.993  1.00  0.00     0.330 C 
HETATM    4  O   UNL     1      -5.591   4.968 -34.402  1.00  0.00    -0.246 OA
HETATM    5  N   UNL     1      -6.405   2.914 -34.504  1.00  0.00    -0.308 N 
HETATM    6  C   UNL     1      -6.439   1.561 -34.208  1.00  0.00     0.048 A 
HETATM    7  C   UNL     1      -5.669   1.092 -33.155  1.00  0.00     0.034 A 
HETATM    8  C   UNL     1      -7.233   0.702 -34.971  1.00  0.00     0.030 A 
HETATM    9  C   UNL     1      -7.244  -0.662 -34.685  1.00  0.00     0.002 A 
HETATM   10  C   UNL     1      -6.476  -1.156 -33.634  1.00  0.00     0.001 A 
HETATM   11  C   UNL     1      -5.700  -0.285 -32.866  1.00  0.00     0.015 A 
HETATM   12  H   UNL     1      -6.978   3.281 -35.253  1.00  0.00     0.170 HD
ENDROOT
BRANCH   1  13
HETATM   13  C   UNL     1      -5.704   2.366 -30.979  1.00  0.00     0.279 C 
HETATM   14  N   UNL     1      -6.697   3.321 -31.008  1.00  0.00    -0.352 N 
HETATM   15  H   UNL     1      -6.754   3.947 -31.801  1.00  0.00     0.162 HD
HETATM   16  O   UNL     1      -5.451   1.694 -29.973  1.00  0.00    -0.268 OA
BRANCH  14  17
HETATM   17  C   UNL     1      -7.482   3.663 -29.837  1.00  0.00     0.164 C 
BRANCH  17  18
HETATM   18  C   UNL     1      -8.776   4.388 -30.141  1.00  0.00    -0.007 A 
HETATM   19  C   UNL     1      -9.819   3.682 -30.781  1.00  0.00     0.076 A 
HETATM   20  C   UNL     1     -11.035   4.321 -31.050  1.00  0.00     0.037 A 
HETATM   21  C   UNL     1     -11.223   5.658 -30.695  1.00  0.00     0.003 A 
HETATM   22  C   UNL     1     -10.202   6.362 -30.066  1.00  0.00     0.001 A 
HETATM   23  C   UNL     1      -8.988   5.732 -29.789  1.00  0.00     0.011 A 
BRANCH  19  24
HETATM   24  O   UNL     1      -9.557   2.369 -31.079  1.00  0.00    -0.355 OA
HETATM   25  C   UNL     1      -9.744   1.962 -32.430  1.00  0.00     0.210 C 
ENDBRANCH  19  24
ENDBRANCH  17  18
ENDBRANCH  14  17
ENDBRANCH   1  13
BRANCH   1  26
HETATM   26  O   UNL     1      -3.659   1.456 -31.998  1.00  0.00    -0.359 OA
HETATM   27  H   UNL     1      -3.486   0.858 -32.751  1.00  0.00     0.213 HD
ENDBRANCH   1  26
BRANCH   2  28
HETATM   28  C   UNL     1      -3.504   4.187 -32.637  1.00  0.00     0.043 A 
HETATM   29  C   UNL     1      -2.329   4.307 -33.397  1.00  0.00     0.031 A 
HETATM   30  C   UNL     1      -1.283   5.150 -32.996  1.00  0.00     0.026 A 
HETATM   31  C   UNL     1      -1.402   5.900 -31.833  1.00  0.00     0.034 A 
HETATM   32 CL   UNL     1      -0.124   6.946 -31.351  1.00  0.00    -0.084 Cl
HETATM   33  C   UNL     1      -2.553   5.811 -31.064  1.00  0.00     0.026 A 
HETATM   34  C   UNL     1      -3.591   4.960 -31.464  1.00  0.00     0.031 A 
ENDBRANCH   2  28
TORSDOF 6
ENDMDL
MODEL 7
REMARK VINA RESULT:      -8.5      1.728      2.543
REMARK  6 active torsions:
REMARK  status: ('A' for Active; 'I' for Inactive)
REMARK    1  A    between atoms: O_2  and  C_3 
REMARK    2  A    between atoms: C_4  and  C_5 
REMARK    3  A    between atoms: C_5  and  N_6 
REMARK       I    between atoms: N_6  and  C_7 
REMARK    4  A    between atoms: C_7  and  C_8 
REMARK    5  A    between atoms: C_8  and  O_9 
REMARK    6  A    between atoms: N_10  and  C_11 
ROOT
HETATM    1  C   UNL     1      -6.901   3.527 -32.199  1.00  0.00     0.256 C 
HETATM    2  N   UNL     1      -5.953   4.601 -31.854  1.00  0.00    -0.254 N 
HETATM    3  C   UNL     1      -6.170   5.354 -30.706  1.00  0.00     0.330 C 
HETATM    4  O   UNL     1      -5.315   6.014 -30.114  1.00  0.00    -0.246 OA
HETATM    5  N   UNL     1      -7.423   5.347 -30.170  1.00  0.00    -0.308 N 
HETATM    6  C   UNL     1      -8.524   4.711 -30.720  1.00  0.00     0.048 A 
HETATM    7  C   UNL     1      -8.325   3.826 -31.770  1.00  0.00     0.034 A 
HETATM    8  C   UNL     1      -9.801   4.972 -30.218  1.00  0.00     0.030 A 
HETATM    9  C   UNL     1     -10.908   4.349 -30.791  1.00  0.00     0.002 A 
HETATM   10  C   UNL     1     -10.732   3.460 -31.848  1.00  0.00     0.001 A 
HETATM   11  C   UNL     1      -9.448   3.191 -32.330  1.00  0.00     0.015 A 
HETATM   12  H   UNL     1      -7.543   5.977 -29.388  1.00  0.00     0.170 HD
ENDROOT
BRANCH   1  13
HETATM   13  C   UNL     1      -6.462   2.137 -31.582  1.00  0.00     0.279 C 
HETATM   14  N   UNL     1      -5.828   1.240 -32.414  1.00  0.00    -0.352 N 
HETATM   15  H   UNL     1      -5.837   1.404 -33.412  1.00  0.00     0.162 HD
HETATM   16  O   UNL     1      -6.657   1.915 -30.382  1.00  0.00    -0.268 OA
BRANCH  14  17
HETATM   17  C   UNL     1      -5.399  -0.070 -31.962  1.00  0.00     0.164 C 
BRANCH  17  18
HETATM   18  C   UNL     1      -5.454  -1.147 -33.024  1.00  0.00    -0.007 A 
HETATM   19  C   UNL     1      -6.682  -1.398 -33.679  1.00  0.00     0.076 A 
HETATM   20  C   UNL     1      -6.754  -2.370 -34.682  1.00  0.00     0.037 A 
HETATM   21  C   UNL     1      -5.621  -3.102 -35.040  1.00  0.00     0.003 A 
HETATM   22  C   UNL     1      -4.409  -2.865 -34.401  1.00  0.00     0.001 A 
HETATM   23  C   UNL     1      -4.325  -1.893 -33.403  1.00  0.00     0.011 A 
BRANCH  19  24
HETATM   24  O   UNL     1      -7.741  -0.622 -33.280  1.00  0.00    -0.355 OA
HETATM   25  C   UNL     1      -8.417   0.120 -34.289  1.00  0.00     0.210 C 
ENDBRANCH  19  24
ENDBRANCH  17  18
ENDBRANCH  14  17
ENDBRANCH   1  13
BRANCH   1  26
HETATM   26  O   UNL     1      -6.956   3.407 -33.629  1.00  0.00    -0.359 OA
HETATM   27  H   UNL     1      -7.439   2.574 -33.792  1.00  0.00     0.213 HD
ENDBRANCH   1  26
BRANCH   2  28
HETATM   28  C   UNL     1      -4.720   4.754 -32.592  1.00  0.00     0.043 A 
HETATM   29  C   UNL     1      -3.564   4.009 -32.303  1.00  0.00     0.031 A 
HETATM   30  C   UNL     1      -2.392   4.159 -33.056  1.00  0.00     0.026 A 
HETATM   31  C   UNL     1      -2.360   5.048 -34.123  1.00  0.00     0.034 A 
HETATM   32 CL   UNL     1      -0.925   5.219 -35.057  1.00  0.00    -0.084 Cl
HETATM   33  C   UNL     1      -3.487   5.792 -34.440  1.00  0.00     0.026 A 
HETATM   34  C   UNL     1      -4.653   5.646 -33.679  1.00  0.00     0.031 A 
ENDBRANCH   2  28
TORSDOF 6
ENDMDL
MODEL 8
REMARK VINA RESULT:      -8.2     15.206     16.998
REMARK  6 active torsions:
REMARK  status: ('A' for Active; 'I' for Inactive)
REMARK    1  A    between atoms: O_2  and  C_3 
REMARK    2  A    between atoms: C_4  and  C_5 
REMARK    3  A    between atoms: C_5  and  N_6 
REMARK       I    between atoms: N_6  and  C_7 
REMARK    4  A    between atoms: C_7  and  C_8 
REMARK    5  A    between atoms: C_8  and  O_9 
REMARK    6  A    between atoms: N_10  and  C_11 
ROOT
HETATM    1  C   UNL     1      -7.263 -13.755 -37.501  1.00  0.00     0.256 C 
HETATM    2  N   UNL     1      -7.289 -14.995 -36.706  1.00  0.00    -0.254 N 
HETATM    3  C   UNL     1      -7.825 -16.149 -37.267  1.00  0.00     0.330 C 
HETATM    4  O   UNL     1      -7.601 -17.298 -36.885  1.00  0.00    -0.246 OA
HETATM    5  N   UNL     1      -8.644 -16.008 -38.347  1.00  0.00    -0.308 N 
HETATM    6  C   UNL     1      -9.055 -14.799 -38.887  1.00  0.00     0.048 A 
HETATM    7  C   UNL     1      -8.429 -13.636 -38.463  1.00  0.00     0.034 A 
HETATM    8  C   UNL     1     -10.082 -14.773 -39.832  1.00  0.00     0.030 A 
HETATM    9  C   UNL     1     -10.507 -13.552 -40.354  1.00  0.00     0.002 A 
HETATM   10  C   UNL     1      -9.896 -12.372 -39.940  1.00  0.00     0.001 A 
HETATM   11  C   UNL     1      -8.857 -12.412 -39.008  1.00  0.00     0.015 A 
HETATM   12  H   UNL     1      -9.071 -16.870 -38.660  1.00  0.00     0.170 HD
ENDROOT
BRANCH   1  13
HETATM   13  C   UNL     1      -5.912 -13.610 -38.314  1.00  0.00     0.279 C 
HETATM   14  N   UNL     1      -5.015 -12.651 -37.898  1.00  0.00    -0.352 N 
HETATM   15  H   UNL     1      -5.316 -11.952 -37.230  1.00  0.00     0.162 HD
HETATM   16  O   UNL     1      -5.684 -14.376 -39.257  1.00  0.00    -0.268 OA
BRANCH  14  17
HETATM   17  C   UNL     1      -3.756 -12.416 -38.578  1.00  0.00     0.164 C 
BRANCH  17  18
HETATM   18  C   UNL     1      -2.656 -13.389 -38.211  1.00  0.00    -0.007 A 
HETATM   19  C   UNL     1      -2.039 -14.140 -39.237  1.00  0.00     0.076 A 
HETATM   20  C   UNL     1      -1.003 -15.028 -38.929  1.00  0.00     0.037 A 
HETATM   21  C   UNL     1      -0.575 -15.183 -37.610  1.00  0.00     0.003 A 
HETATM   22  C   UNL     1      -1.175 -14.450 -36.592  1.00  0.00     0.001 A 
HETATM   23  C   UNL     1      -2.206 -13.558 -36.890  1.00  0.00     0.011 A 
BRANCH  19  24
HETATM   24  O   UNL     1      -2.508 -13.914 -40.507  1.00  0.00    -0.355 OA
HETATM   25  C   UNL     1      -2.120 -14.841 -41.515  1.00  0.00     0.210 C 
ENDBRANCH  19  24
ENDBRANCH  17  18
ENDBRANCH  14  17
ENDBRANCH   1  13
BRANCH   1  26
HETATM   26  O   UNL     1      -7.394 -12.637 -36.609  1.00  0.00    -0.359 OA
HETATM   27  H   UNL     1      -7.518 -11.864 -37.193  1.00  0.00     0.213 HD
ENDBRANCH   1  26
BRANCH   2  28
HETATM   28  C   UNL     1      -6.609 -15.064 -35.433  1.00  0.00     0.043 A 
HETATM   29  C   UNL     1      -5.217 -15.214 -35.323  1.00  0.00     0.031 A 
HETATM   30  C   UNL     1      -4.582 -15.248 -34.074  1.00  0.00     0.026 A 
HETATM   31  C   UNL     1      -5.331 -15.117 -32.910  1.00  0.00     0.034 A 
HETATM   32 CL   UNL     1      -4.549 -15.142 -31.378  1.00  0.00    -0.084 Cl
HETATM   33  C   UNL     1      -6.707 -14.958 -32.985  1.00  0.00     0.026 A 
HETATM   34  C   UNL     1      -7.337 -14.935 -34.235  1.00  0.00     0.031 A 
ENDBRANCH   2  28
TORSDOF 6
ENDMDL
MODEL 9
REMARK VINA RESULT:      -8.2      2.051      3.141
REMARK  6 active torsions:
REMARK  status: ('A' for Active; 'I' for Inactive)
REMARK    1  A    between atoms: O_2  and  C_3 
REMARK    2  A    between atoms: C_4  and  C_5 
REMARK    3  A    between atoms: C_5  and  N_6 
REMARK       I    between atoms: N_6  and  C_7 
REMARK    4  A    between atoms: C_7  and  C_8 
REMARK    5  A    between atoms: C_8  and  O_9 
REMARK    6  A    between atoms: N_10  and  C_11 
ROOT
HETATM    1  C   UNL     1      -9.238   3.131 -32.676  1.00  0.00     0.256 C 
HETATM    2  N   UNL     1      -8.259   3.956 -31.946  1.00  0.00    -0.254 N 
HETATM    3  C   UNL     1      -8.565   4.394 -30.663  1.00  0.00     0.330 C 
HETATM    4  O   UNL     1      -7.745   4.768 -29.823  1.00  0.00    -0.246 OA
HETATM    5  N   UNL     1      -9.874   4.387 -30.285  1.00  0.00    -0.308 N 
HETATM    6  C   UNL     1     -10.941   4.053 -31.103  1.00  0.00     0.048 A 
HETATM    7  C   UNL     1     -10.677   3.466 -32.332  1.00  0.00     0.034 A 
HETATM    8  C   UNL     1     -12.247   4.316 -30.685  1.00  0.00     0.030 A 
HETATM    9  C   UNL     1     -13.315   4.001 -31.523  1.00  0.00     0.002 A 
HETATM   10  C   UNL     1     -13.074   3.414 -32.762  1.00  0.00     0.001 A 
HETATM   11  C   UNL     1     -11.764   3.138 -33.162  1.00  0.00     0.015 A 
HETATM   12  H   UNL     1     -10.045   4.794 -29.374  1.00  0.00     0.170 HD
ENDROOT
BRANCH   1  13
HETATM   13  C   UNL     1      -9.000   1.585 -32.430  1.00  0.00     0.279 C 
HETATM   14  N   UNL     1      -8.238   0.902 -33.352  1.00  0.00    -0.352 N 
HETATM   15  H   UNL     1      -8.023   1.344 -34.237  1.00  0.00     0.162 HD
HETATM   16  O   UNL     1      -9.459   1.053 -31.414  1.00  0.00    -0.268 OA
BRANCH  14  17
HETATM   17  C   UNL     1      -7.970  -0.519 -33.240  1.00  0.00     0.164 C 
BRANCH  17  18
HETATM   18  C   UNL     1      -6.501  -0.873 -33.141  1.00  0.00    -0.007 A 
HETATM   19  C   UNL     1      -5.818  -0.621 -31.930  1.00  0.00     0.076 A 
HETATM   20  C   UNL     1      -4.467  -0.962 -31.804  1.00  0.00     0.037 A 
HETATM   21  C   UNL     1      -3.784  -1.547 -32.872  1.00  0.00     0.003 A 
HETATM   22  C   UNL     1      -4.446  -1.798 -34.069  1.00  0.00     0.001 A 
HETATM   23  C   UNL     1      -5.795  -1.466 -34.203  1.00  0.00     0.011 A 
BRANCH  19  24
HETATM   24  O   UNL     1      -6.568  -0.061 -30.927  1.00  0.00    -0.355 OA
HETATM   25  C   UNL     1      -5.861   0.491 -29.822  1.00  0.00     0.210 C 
ENDBRANCH  19  24
ENDBRANCH  17  18
ENDBRANCH  14  17
ENDBRANCH   1  13
BRANCH   1  26
HETATM   26  O   UNL     1      -9.112   3.406 -34.080  1.00  0.00    -0.359 OA
HETATM   27  H   UNL     1      -9.864   3.994 -34.288  1.00  0.00     0.213 HD
ENDBRANCH   1  26
BRANCH   2  28
HETATM   28  C   UNL     1      -6.931   4.159 -32.478  1.00  0.00     0.043 A 
HETATM   29  C   UNL     1      -6.550   5.337 -33.142  1.00  0.00     0.031 A 
HETATM   30  C   UNL     1      -5.244   5.516 -33.620  1.00  0.00     0.026 A 
HETATM   31  C   UNL     1      -4.292   4.522 -33.428  1.00  0.00     0.034 A 
HETATM   32 CL   UNL     1      -2.686   4.750 -34.001  1.00  0.00    -0.084 Cl
HETATM   33  C   UNL     1      -4.634   3.351 -32.768  1.00  0.00     0.026 A 
HETATM   34  C   UNL     1      -5.942   3.173 -32.301  1.00  0.00     0.031 A 
ENDBRANCH   2  28
TORSDOF 6
ENDMDL
MODEL 10
REMARK VINA RESULT:      -8.1      2.132      2.951
REMARK  6 active torsions:
REMARK  status: ('A' for Active; 'I' for Inactive)
REMARK    1  A    between atoms: O_2  and  C_3 
REMARK    2  A    between atoms: C_4  and  C_5 
REMARK    3  A    between atoms: C_5  and  N_6 
REMARK       I    between atoms: N_6  and  C_7 
REMARK    4  A    between atoms: C_7  and  C_8 
REMARK    5  A    between atoms: C_8  and  O_9 
REMARK    6  A    between atoms: N_10  and  C_11 
ROOT
HETATM    1  C   UNL     1      -8.821   2.850 -33.338  1.00  0.00     0.256 C 
HETATM    2  N   UNL     1      -8.305   3.302 -32.034  1.00  0.00    -0.254 N 
HETATM    3  C   UNL     1      -9.154   3.303 -30.933  1.00  0.00     0.330 C 
HETATM    4  O   UNL     1      -8.794   3.306 -29.755  1.00  0.00    -0.246 OA
HETATM    5  N   UNL     1     -10.496   3.272 -31.166  1.00  0.00    -0.308 N 
HETATM    6  C   UNL     1     -11.092   3.318 -32.417  1.00  0.00     0.048 A 
HETATM    7  C   UNL     1     -10.292   3.161 -33.539  1.00  0.00     0.034 A 
HETATM    8  C   UNL     1     -12.468   3.526 -32.524  1.00  0.00     0.030 A 
HETATM    9  C   UNL     1     -13.058   3.597 -33.785  1.00  0.00     0.002 A 
HETATM   10  C   UNL     1     -12.274   3.445 -34.926  1.00  0.00     0.001 A 
HETATM   11  C   UNL     1     -10.901   3.219 -34.806  1.00  0.00     0.015 A 
HETATM   12  H   UNL     1     -11.065   3.360 -30.334  1.00  0.00     0.170 HD
ENDROOT
BRANCH   1  13
HETATM   13  C   UNL     1      -8.592   1.299 -33.553  1.00  0.00     0.279 C 
HETATM   14  N   UNL     1      -7.784   0.912 -34.600  1.00  0.00    -0.352 N 
HETATM   15  H   UNL     1      -7.526   1.594 -35.302  1.00  0.00     0.162 HD
HETATM   16  O   UNL     1      -9.100   0.493 -32.766  1.00  0.00    -0.268 OA
BRANCH  14  17
HETATM   17  C   UNL     1      -7.519  -0.482 -34.903  1.00  0.00     0.164 C 
BRANCH  17  18
HETATM   18  C   UNL     1      -6.225  -1.014 -34.323  1.00  0.00    -0.007 A 
HETATM   19  C   UNL     1      -5.950  -2.396 -34.424  1.00  0.00     0.076 A 
HETATM   20  C   UNL     1      -4.750  -2.910 -33.919  1.00  0.00     0.037 A 
HETATM   21  C   UNL     1      -3.823  -2.065 -33.308  1.00  0.00     0.003 A 
HETATM   22  C   UNL     1      -4.084  -0.704 -33.202  1.00  0.00     0.001 A 
HETATM   23  C   UNL     1      -5.275  -0.181 -33.707  1.00  0.00     0.011 A 
BRANCH  19  24
HETATM   24  O   UNL     1      -6.906  -3.151 -35.055  1.00  0.00    -0.355 OA
HETATM   25  C   UNL     1      -6.585  -4.512 -35.322  1.00  0.00     0.210 C 
ENDBRANCH  19  24
ENDBRANCH  17  18
ENDBRANCH  14  17
ENDBRANCH   1  13
BRANCH   1  26
HETATM   26  O   UNL     1      -8.138   3.572 -34.375  1.00  0.00    -0.359 OA
HETATM   27  H   UNL     1      -8.844   4.039 -34.862  1.00  0.00     0.213 HD
ENDBRANCH   1  26
BRANCH   2  28
HETATM   28  C   UNL     1      -6.896   3.567 -31.855  1.00  0.00     0.043 A 
HETATM   29  C   UNL     1      -5.951   2.546 -31.653  1.00  0.00     0.031 A 
HETATM   30  C   UNL     1      -4.586   2.833 -31.513  1.00  0.00     0.026 A 
HETATM   31  C   UNL     1      -4.141   4.147 -31.587  1.00  0.00     0.034 A 
HETATM   32 CL   UNL     1      -2.464   4.496 -31.431  1.00  0.00    -0.084 Cl
HETATM   33  C   UNL     1      -5.047   5.177 -31.795  1.00  0.00     0.026 A 
HETATM   34  C   UNL     1      -6.411   4.886 -31.925  1.00  0.00     0.031 A 
ENDBRANCH   2  28
TORSDOF 6
ENDMDL
