MODEL 1
REMARK VINA RESULT:      -9.4      0.000      0.000
REMARK  4 active torsions:
REMARK  status: ('A' for Active; 'I' for Inactive)
REMARK    1  A    between atoms: C_6  and  C_7 
REMARK    2  A    between atoms: C_7  and  N_8 
REMARK    3  A    between atoms: C_11  and  C_12 
REMARK    4  A    between atoms: C_12  and  C_13 
ROOT
HETATM    1  N   UNL     1      -8.394   2.720 -32.897  1.00  0.00    -0.064 N 
HETATM    2  H   UNL     1      -8.064   2.505 -33.857  1.00  0.00     0.280 HD
HETATM    3  C   UNL     1      -7.869   1.583 -32.047  1.00  0.00     0.247 C 
HETATM    4  C   UNL     1      -8.333   0.238 -32.623  1.00  0.00     0.086 C 
HETATM    5  C   UNL     1      -9.857   0.212 -32.793  1.00  0.00     0.016 C 
HETATM    6  C   UNL     1     -10.400   1.437 -33.531  1.00  0.00     0.029 C 
HETATM    7  C   UNL     1      -9.897   2.748 -32.935  1.00  0.00     0.235 C 
ENDROOT
BRANCH   1   8
HETATM    8  C   UNL     1      -7.774   4.060 -32.559  1.00  0.00     0.313 C 
BRANCH   8   9
HETATM    9  C   UNL     1      -6.379   4.269 -33.053  1.00  0.00     0.131 A 
HETATM   10  N   UNL     1      -6.025   4.756 -34.227  1.00  0.00    -0.232 NA
HETATM   11  C   UNL     1      -4.651   4.804 -34.215  1.00  0.00     0.085 A 
HETATM   12  C   UNL     1      -4.155   4.326 -33.009  1.00  0.00     0.062 A 
HETATM   13  C   UNL     1      -3.760   5.252 -35.198  1.00  0.00     0.034 A 
HETATM   14  C   UNL     1      -2.792   4.264 -32.714  1.00  0.00     0.032 A 
HETATM   15  N   UNL     1      -5.272   3.981 -32.289  1.00  0.00    -0.341 N 
HETATM   16  C   UNL     1      -1.915   4.718 -33.705  1.00  0.00     0.002 A 
HETATM   17  C   UNL     1      -2.387   5.204 -34.927  1.00  0.00     0.002 A 
HETATM   18  H   UNL     1      -5.258   3.597 -31.354  1.00  0.00     0.167 HD
ENDBRANCH   8   9
ENDBRANCH   1   8
BRANCH   4  19
HETATM   19  C   UNL     1      -7.630   0.008 -33.957  1.00  0.00     0.165 C 
HETATM   20  O   UNL     1      -7.934   0.712 -34.925  1.00  0.00    -0.292 OA
BRANCH  19  21
HETATM   21  C   UNL     1      -6.601  -1.067 -34.103  1.00  0.00     0.012 A 
HETATM   22  C   UNL     1      -6.877  -2.298 -34.705  1.00  0.00     0.039 A 
HETATM   23  C   UNL     1      -5.873  -3.265 -34.798  1.00  0.00     0.035 A 
HETATM   24 CL   UNL     1      -6.224  -4.779 -35.536  1.00  0.00    -0.084 Cl
HETATM   25  C   UNL     1      -4.596  -3.017 -34.302  1.00  0.00     0.024 A 
HETATM   26  C   UNL     1      -4.314  -1.788 -33.707  1.00  0.00     0.003 A 
HETATM   27  C   UNL     1      -5.313  -0.817 -33.609  1.00  0.00     0.015 A 
ENDBRANCH  19  21
ENDBRANCH   4  19
TORSDOF 4
ENDMDL
MODEL 2
REMARK VINA RESULT:      -9.2      2.610      5.097
REMARK  4 active torsions:
REMARK  status: ('A' for Active; 'I' for Inactive)
REMARK    1  A    between atoms: C_6  and  C_7 
REMARK    2  A    between atoms: C_7  and  N_8 
REMARK    3  A    between atoms: C_11  and  C_12 
REMARK    4  A    between atoms: C_12  and  C_13 
ROOT
HETATM    1  N   UNL     1      -6.884   1.679 -32.349  1.00  0.00    -0.064 N 
HETATM    2  H   UNL     1      -7.458   1.053 -32.945  1.00  0.00     0.280 HD
HETATM    3  C   UNL     1      -5.509   1.655 -32.982  1.00  0.00     0.247 C 
HETATM    4  C   UNL     1      -5.010   0.208 -33.099  1.00  0.00     0.086 C 
HETATM    5  C   UNL     1      -5.063  -0.502 -31.741  1.00  0.00     0.016 C 
HETATM    6  C   UNL     1      -6.415  -0.354 -31.039  1.00  0.00     0.029 C 
HETATM    7  C   UNL     1      -6.877   1.097 -30.963  1.00  0.00     0.235 C 
ENDROOT
BRANCH   1   8
HETATM    8  C   UNL     1      -7.561   3.031 -32.433  1.00  0.00     0.313 C 
BRANCH   8   9
HETATM    9  C   UNL     1      -8.831   3.071 -33.219  1.00  0.00     0.131 A 
HETATM   10  N   UNL     1      -9.166   3.964 -34.130  1.00  0.00    -0.232 NA
HETATM   11  C   UNL     1     -10.394   3.573 -34.608  1.00  0.00     0.085 A 
HETATM   12  C   UNL     1     -10.824   2.418 -33.966  1.00  0.00     0.062 A 
HETATM   13  C   UNL     1     -11.199   4.153 -35.597  1.00  0.00     0.034 A 
HETATM   14  C   UNL     1     -12.036   1.790 -34.255  1.00  0.00     0.032 A 
HETATM   15  N   UNL     1      -9.819   2.123 -33.079  1.00  0.00    -0.341 N 
HETATM   16  C   UNL     1     -12.827   2.380 -35.248  1.00  0.00     0.002 A 
HETATM   17  C   UNL     1     -12.419   3.541 -35.908  1.00  0.00     0.002 A 
HETATM   18  H   UNL     1      -9.820   1.331 -32.451  1.00  0.00     0.167 HD
ENDBRANCH   8   9
ENDBRANCH   1   8
BRANCH   4  19
HETATM   19  C   UNL     1      -5.863  -0.522 -34.131  1.00  0.00     0.165 C 
HETATM   20  O   UNL     1      -6.652   0.127 -34.825  1.00  0.00    -0.292 OA
BRANCH  19  21
HETATM   21  C   UNL     1      -5.763  -2.005 -34.293  1.00  0.00     0.012 A 
HETATM   22  C   UNL     1      -4.575  -2.709 -34.074  1.00  0.00     0.039 A 
HETATM   23  C   UNL     1      -4.546  -4.094 -34.254  1.00  0.00     0.035 A 
HETATM   24 CL   UNL     1      -3.078  -4.951 -33.987  1.00  0.00    -0.084 Cl
HETATM   25  C   UNL     1      -5.688  -4.786 -34.647  1.00  0.00     0.024 A 
HETATM   26  C   UNL     1      -6.877  -4.090 -34.859  1.00  0.00     0.003 A 
HETATM   27  C   UNL     1      -6.914  -2.705 -34.683  1.00  0.00     0.015 A 
ENDBRANCH  19  21
ENDBRANCH   4  19
TORSDOF 4
ENDMDL
MODEL 3
REMARK VINA RESULT:      -9.2      2.146      2.899
REMARK  4 active torsions:
REMARK  status: ('A' for Active; 'I' for Inactive)
REMARK    1  A    between atoms: C_6  and  C_7 
REMARK    2  A    between atoms: C_7  and  N_8 
REMARK    3  A    between atoms: C_11  and  C_12 
REMARK    4  A    between atoms: C_12  and  C_13 
ROOT
HETATM    1  N   UNL     1      -5.836   2.683 -30.957  1.00  0.00    -0.064 N 
HETATM    2  H   UNL     1      -5.638   2.571 -31.970  1.00  0.00     0.280 HD
HETATM    3  C   UNL     1      -4.923   1.687 -30.275  1.00  0.00     0.247 C 
HETATM    4  C   UNL     1      -5.159   0.282 -30.846  1.00  0.00     0.086 C 
HETATM    5  C   UNL     1      -6.641  -0.102 -30.764  1.00  0.00     0.016 C 
HETATM    6  C   UNL     1      -7.572   0.974 -31.328  1.00  0.00     0.029 C 
HETATM    7  C   UNL     1      -7.288   2.354 -30.746  1.00  0.00     0.235 C 
ENDROOT
BRANCH   1   8
HETATM    8  C   UNL     1      -5.492   4.125 -30.647  1.00  0.00     0.313 C 
BRANCH   8   9
HETATM    9  C   UNL     1      -4.417   4.729 -31.491  1.00  0.00     0.131 A 
HETATM   10  N   UNL     1      -3.710   5.808 -31.211  1.00  0.00    -0.232 NA
HETATM   11  C   UNL     1      -2.821   5.954 -32.249  1.00  0.00     0.085 A 
HETATM   12  C   UNL     1      -2.996   4.947 -33.189  1.00  0.00     0.062 A 
HETATM   13  C   UNL     1      -1.828   6.921 -32.452  1.00  0.00     0.034 A 
HETATM   14  C   UNL     1      -2.225   4.841 -34.349  1.00  0.00     0.032 A 
HETATM   15  N   UNL     1      -4.024   4.186 -32.692  1.00  0.00    -0.341 N 
HETATM   16  C   UNL     1      -1.236   5.813 -34.534  1.00  0.00     0.002 A 
HETATM   17  C   UNL     1      -1.038   6.837 -33.605  1.00  0.00     0.002 A 
HETATM   18  H   UNL     1      -4.401   3.363 -33.142  1.00  0.00     0.167 HD
ENDBRANCH   8   9
ENDBRANCH   1   8
BRANCH   4  19
HETATM   19  C   UNL     1      -4.665   0.250 -32.289  1.00  0.00     0.165 C 
HETATM   20  O   UNL     1      -4.080   1.238 -32.745  1.00  0.00    -0.292 OA
BRANCH  19  21
HETATM   21  C   UNL     1      -4.900  -0.949 -33.150  1.00  0.00     0.012 A 
HETATM   22  C   UNL     1      -4.110  -2.100 -33.071  1.00  0.00     0.039 A 
HETATM   23  C   UNL     1      -4.375  -3.182 -33.914  1.00  0.00     0.035 A 
HETATM   24 CL   UNL     1      -3.395  -4.592 -33.812  1.00  0.00    -0.084 Cl
HETATM   25  C   UNL     1      -5.420  -3.132 -34.833  1.00  0.00     0.024 A 
HETATM   26  C   UNL     1      -6.214  -1.989 -34.910  1.00  0.00     0.003 A 
HETATM   27  C   UNL     1      -5.956  -0.903 -34.072  1.00  0.00     0.015 A 
ENDBRANCH  19  21
ENDBRANCH   4  19
TORSDOF 4
ENDMDL
MODEL 4
REMARK VINA RESULT:      -9.1      1.723      2.352
REMARK  4 active torsions:
REMARK  status: ('A' for Active; 'I' for Inactive)
REMARK    1  A    between atoms: C_6  and  C_7 
REMARK    2  A    between atoms: C_7  and  N_8 
REMARK    3  A    between atoms: C_11  and  C_12 
REMARK    4  A    between atoms: C_12  and  C_13 
ROOT
HETATM    1  N   UNL     1      -6.799   2.207 -32.926  1.00  0.00    -0.064 N 
HETATM    2  H   UNL     1      -7.252   1.656 -33.679  1.00  0.00     0.280 HD
HETATM    3  C   UNL     1      -5.355   1.749 -32.932  1.00  0.00     0.247 C 
HETATM    4  C   UNL     1      -5.288   0.224 -32.772  1.00  0.00     0.086 C 
HETATM    5  C   UNL     1      -6.061  -0.232 -31.529  1.00  0.00     0.016 C 
HETATM    6  C   UNL     1      -7.475   0.350 -31.455  1.00  0.00     0.029 C 
HETATM    7  C   UNL     1      -7.493   1.863 -31.637  1.00  0.00     0.235 C 
ENDROOT
BRANCH   1   8
HETATM    8  C   UNL     1      -6.972   3.654 -33.339  1.00  0.00     0.313 C 
BRANCH   8   9
HETATM    9  C   UNL     1      -5.722   4.472 -33.368  1.00  0.00     0.131 A 
HETATM   10  N   UNL     1      -4.899   4.616 -34.389  1.00  0.00    -0.232 NA
HETATM   11  C   UNL     1      -3.923   5.486 -33.966  1.00  0.00     0.085 A 
HETATM   12  C   UNL     1      -4.150   5.875 -32.652  1.00  0.00     0.062 A 
HETATM   13  C   UNL     1      -2.814   5.996 -34.654  1.00  0.00     0.034 A 
HETATM   14  C   UNL     1      -3.319   6.761 -31.962  1.00  0.00     0.032 A 
HETATM   15  N   UNL     1      -5.293   5.209 -32.288  1.00  0.00    -0.341 N 
HETATM   16  C   UNL     1      -2.218   7.263 -32.665  1.00  0.00     0.002 A 
HETATM   17  C   UNL     1      -1.967   6.889 -33.987  1.00  0.00     0.002 A 
HETATM   18  H   UNL     1      -5.735   5.276 -31.381  1.00  0.00     0.167 HD
ENDBRANCH   8   9
ENDBRANCH   1   8
BRANCH   4  19
HETATM   19  C   UNL     1      -5.848  -0.427 -34.033  1.00  0.00     0.165 C 
HETATM   20  O   UNL     1      -6.395   0.284 -34.882  1.00  0.00    -0.292 OA
BRANCH  19  21
HETATM   21  C   UNL     1      -5.756  -1.905 -34.235  1.00  0.00     0.012 A 
HETATM   22  C   UNL     1      -4.590  -2.630 -33.973  1.00  0.00     0.039 A 
HETATM   23  C   UNL     1      -4.566  -4.009 -34.195  1.00  0.00     0.035 A 
HETATM   24 CL   UNL     1      -3.124  -4.892 -33.875  1.00  0.00    -0.084 Cl
HETATM   25  C   UNL     1      -5.692  -4.675 -34.671  1.00  0.00     0.024 A 
HETATM   26  C   UNL     1      -6.860  -3.957 -34.926  1.00  0.00     0.003 A 
HETATM   27  C   UNL     1      -6.892  -2.578 -34.709  1.00  0.00     0.015 A 
ENDBRANCH  19  21
ENDBRANCH   4  19
TORSDOF 4
ENDMDL
MODEL 5
REMARK VINA RESULT:      -9.1      3.298      6.277
REMARK  4 active torsions:
REMARK  status: ('A' for Active; 'I' for Inactive)
REMARK    1  A    between atoms: C_6  and  C_7 
REMARK    2  A    between atoms: C_7  and  N_8 
REMARK    3  A    between atoms: C_11  and  C_12 
REMARK    4  A    between atoms: C_12  and  C_13 
ROOT
HETATM    1  N   UNL     1      -6.446   1.616 -32.248  1.00  0.00    -0.064 N 
HETATM    2  H   UNL     1      -6.790   1.502 -33.221  1.00  0.00     0.280 HD
HETATM    3  C   UNL     1      -7.216   0.587 -31.447  1.00  0.00     0.247 C 
HETATM    4  C   UNL     1      -8.725   0.789 -31.647  1.00  0.00     0.086 C 
HETATM    5  C   UNL     1      -9.132   2.232 -31.328  1.00  0.00     0.016 C 
HETATM    6  C   UNL     1      -8.257   3.272 -32.031  1.00  0.00     0.029 C 
HETATM    7  C   UNL     1      -6.768   3.021 -31.820  1.00  0.00     0.235 C 
ENDROOT
BRANCH   1   8
HETATM    8  C   UNL     1      -4.961   1.332 -32.321  1.00  0.00     0.313 C 
BRANCH   8   9
HETATM    9  C   UNL     1      -4.586  -0.087 -32.601  1.00  0.00     0.131 A 
HETATM   10  N   UNL     1      -3.847  -0.871 -31.840  1.00  0.00    -0.232 NA
HETATM   11  C   UNL     1      -3.809  -2.089 -32.477  1.00  0.00     0.085 A 
HETATM   12  C   UNL     1      -4.536  -2.044 -33.660  1.00  0.00     0.062 A 
HETATM   13  C   UNL     1      -3.180  -3.282 -32.099  1.00  0.00     0.034 A 
HETATM   14  C   UNL     1      -4.677  -3.141 -34.513  1.00  0.00     0.032 A 
HETATM   15  N   UNL     1      -5.012  -0.758 -33.725  1.00  0.00    -0.341 N 
HETATM   16  C   UNL     1      -4.045  -4.326 -34.118  1.00  0.00     0.002 A 
HETATM   17  C   UNL     1      -3.308  -4.398 -32.934  1.00  0.00     0.002 A 
HETATM   18  H   UNL     1      -5.587  -0.394 -34.471  1.00  0.00     0.167 HD
ENDBRANCH   8   9
ENDBRANCH   1   8
BRANCH   4  19
HETATM   19  C   UNL     1      -9.082   0.425 -33.084  1.00  0.00     0.165 C 
HETATM   20  O   UNL     1      -8.218  -0.079 -33.809  1.00  0.00    -0.292 OA
BRANCH  19  21
HETATM   21  C   UNL     1     -10.452   0.689 -33.621  1.00  0.00     0.012 A 
HETATM   22  C   UNL     1     -10.720   1.718 -34.529  1.00  0.00     0.039 A 
HETATM   23  C   UNL     1     -12.026   1.920 -34.983  1.00  0.00     0.035 A 
HETATM   24 CL   UNL     1     -12.347   3.192 -36.097  1.00  0.00    -0.084 Cl
HETATM   25  C   UNL     1     -13.067   1.106 -34.546  1.00  0.00     0.024 A 
HETATM   26  C   UNL     1     -12.804   0.074 -33.646  1.00  0.00     0.003 A 
HETATM   27  C   UNL     1     -11.502  -0.133 -33.186  1.00  0.00     0.015 A 
ENDBRANCH  19  21
ENDBRANCH   4  19
TORSDOF 4
ENDMDL
MODEL 6
REMARK VINA RESULT:      -8.9      2.437      3.521
REMARK  4 active torsions:
REMARK  status: ('A' for Active; 'I' for Inactive)
REMARK    1  A    between atoms: C_6  and  C_7 
REMARK    2  A    between atoms: C_7  and  N_8 
REMARK    3  A    between atoms: C_11  and  C_12 
REMARK    4  A    between atoms: C_12  and  C_13 
ROOT
HETATM    1  N   UNL     1      -5.150   2.653 -32.465  1.00  0.00    -0.064 N 
HETATM    2  H   UNL     1      -5.821   2.303 -33.176  1.00  0.00     0.280 HD
HETATM    3  C   UNL     1      -4.014   1.652 -32.485  1.00  0.00     0.247 C 
HETATM    4  C   UNL     1      -4.558   0.236 -32.246  1.00  0.00     0.086 C 
HETATM    5  C   UNL     1      -5.393   0.178 -30.961  1.00  0.00     0.016 C 
HETATM    6  C   UNL     1      -6.449   1.283 -30.881  1.00  0.00     0.029 C 
HETATM    7  C   UNL     1      -5.866   2.667 -31.142  1.00  0.00     0.235 C 
ENDROOT
BRANCH   1   8
HETATM    8  C   UNL     1      -4.746   4.030 -32.948  1.00  0.00     0.313 C 
BRANCH   8   9
HETATM    9  C   UNL     1      -3.533   4.612 -32.300  1.00  0.00     0.131 A 
HETATM   10  N   UNL     1      -2.276   4.382 -32.632  1.00  0.00    -0.232 NA
HETATM   11  C   UNL     1      -1.517   5.163 -31.793  1.00  0.00     0.085 A 
HETATM   12  C   UNL     1      -2.328   5.880 -30.924  1.00  0.00     0.062 A 
HETATM   13  C   UNL     1      -0.126   5.316 -31.724  1.00  0.00     0.034 A 
HETATM   14  C   UNL     1      -1.828   6.762 -29.964  1.00  0.00     0.032 A 
HETATM   15  N   UNL     1      -3.606   5.506 -31.256  1.00  0.00    -0.341 N 
HETATM   16  C   UNL     1      -0.437   6.906 -29.910  1.00  0.00     0.002 A 
HETATM   17  C   UNL     1       0.402   6.197 -30.772  1.00  0.00     0.002 A 
HETATM   18  H   UNL     1      -4.443   5.852 -30.808  1.00  0.00     0.167 HD
ENDBRANCH   8   9
ENDBRANCH   1   8
BRANCH   4  19
HETATM   19  C   UNL     1      -5.388  -0.180 -33.456  1.00  0.00     0.165 C 
HETATM   20  O   UNL     1      -6.022   0.681 -34.074  1.00  0.00    -0.292 OA
BRANCH  19  21
HETATM   21  C   UNL     1      -5.453  -1.611 -33.883  1.00  0.00     0.012 A 
HETATM   22  C   UNL     1      -4.387  -2.500 -33.704  1.00  0.00     0.039 A 
HETATM   23  C   UNL     1      -4.508  -3.823 -34.136  1.00  0.00     0.035 A 
HETATM   24 CL   UNL     1      -3.190  -4.907 -33.916  1.00  0.00    -0.084 Cl
HETATM   25  C   UNL     1      -5.679  -4.272 -34.741  1.00  0.00     0.024 A 
HETATM   26  C   UNL     1      -6.746  -3.392 -34.914  1.00  0.00     0.003 A 
HETATM   27  C   UNL     1      -6.633  -2.068 -34.487  1.00  0.00     0.015 A 
ENDBRANCH  19  21
ENDBRANCH   4  19
TORSDOF 4
ENDMDL
MODEL 7
REMARK VINA RESULT:      -8.8      1.592      2.160
REMARK  4 active torsions:
REMARK  status: ('A' for Active; 'I' for Inactive)
REMARK    1  A    between atoms: C_6  and  C_7 
REMARK    2  A    between atoms: C_7  and  N_8 
REMARK    3  A    between atoms: C_11  and  C_12 
REMARK    4  A    between atoms: C_12  and  C_13 
ROOT
HETATM    1  N   UNL     1      -5.833   2.183 -31.411  1.00  0.00    -0.064 N 
HETATM    2  H   UNL     1      -5.630   2.146 -32.428  1.00  0.00     0.280 HD
HETATM    3  C   UNL     1      -6.304   0.785 -31.065  1.00  0.00     0.247 C 
HETATM    4  C   UNL     1      -7.484   0.391 -31.965  1.00  0.00     0.086 C 
HETATM    5  C   UNL     1      -8.600   1.439 -31.896  1.00  0.00     0.016 C 
HETATM    6  C   UNL     1      -8.095   2.869 -32.106  1.00  0.00     0.029 C 
HETATM    7  C   UNL     1      -6.913   3.208 -31.205  1.00  0.00     0.235 C 
ENDROOT
BRANCH   1   8
HETATM    8  C   UNL     1      -4.517   2.552 -30.760  1.00  0.00     0.313 C 
BRANCH   8   9
HETATM    9  C   UNL     1      -3.641   3.471 -31.547  1.00  0.00     0.131 A 
HETATM   10  N   UNL     1      -3.359   3.379 -32.833  1.00  0.00    -0.232 NA
HETATM   11  C   UNL     1      -2.558   4.459 -33.120  1.00  0.00     0.085 A 
HETATM   12  C   UNL     1      -2.339   5.223 -31.981  1.00  0.00     0.062 A 
HETATM   13  C   UNL     1      -1.987   4.855 -34.336  1.00  0.00     0.034 A 
HETATM   14  C   UNL     1      -1.566   6.385 -31.977  1.00  0.00     0.032 A 
HETATM   15  N   UNL     1      -3.028   4.569 -30.990  1.00  0.00    -0.341 N 
HETATM   16  C   UNL     1      -1.005   6.769 -33.201  1.00  0.00     0.002 A 
HETATM   17  C   UNL     1      -1.209   6.019 -34.361  1.00  0.00     0.002 A 
HETATM   18  H   UNL     1      -3.075   4.871 -30.026  1.00  0.00     0.167 HD
ENDBRANCH   8   9
ENDBRANCH   1   8
BRANCH   4  19
HETATM   19  C   UNL     1      -6.976   0.226 -33.394  1.00  0.00     0.165 C 
HETATM   20  O   UNL     1      -7.216   1.110 -34.222  1.00  0.00    -0.292 OA
BRANCH  19  21
HETATM   21  C   UNL     1      -6.215  -0.996 -33.797  1.00  0.00     0.012 A 
HETATM   22  C   UNL     1      -6.825  -2.097 -34.406  1.00  0.00     0.039 A 
HETATM   23  C   UNL     1      -6.058  -3.213 -34.747  1.00  0.00     0.035 A 
HETATM   24 CL   UNL     1      -6.818  -4.566 -35.491  1.00  0.00    -0.084 Cl
HETATM   25  C   UNL     1      -4.689  -3.244 -34.493  1.00  0.00     0.024 A 
HETATM   26  C   UNL     1      -4.076  -2.146 -33.893  1.00  0.00     0.003 A 
HETATM   27  C   UNL     1      -4.835  -1.026 -33.547  1.00  0.00     0.015 A 
ENDBRANCH  19  21
ENDBRANCH   4  19
TORSDOF 4
ENDMDL
MODEL 8
REMARK VINA RESULT:      -8.6      3.415      7.109
REMARK  4 active torsions:
REMARK  status: ('A' for Active; 'I' for Inactive)
REMARK    1  A    between atoms: C_6  and  C_7 
REMARK    2  A    between atoms: C_7  and  N_8 
REMARK    3  A    between atoms: C_11  and  C_12 
REMARK    4  A    between atoms: C_12  and  C_13 
ROOT
HETATM    1  N   UNL     1      -6.325   2.604 -31.270  1.00  0.00    -0.064 N 
HETATM    2  H   UNL     1      -5.347   2.311 -31.084  1.00  0.00     0.280 HD
HETATM    3  C   UNL     1      -6.287   3.210 -32.657  1.00  0.00     0.247 C 
HETATM    4  C   UNL     1      -5.236   4.328 -32.712  1.00  0.00     0.086 C 
HETATM    5  C   UNL     1      -5.478   5.363 -31.607  1.00  0.00     0.016 C 
HETATM    6  C   UNL     1      -5.658   4.733 -30.224  1.00  0.00     0.029 C 
HETATM    7  C   UNL     1      -6.697   3.617 -30.222  1.00  0.00     0.235 C 
ENDROOT
BRANCH   1   8
HETATM    8  C   UNL     1      -7.139   1.329 -31.193  1.00  0.00     0.313 C 
BRANCH   8   9
HETATM    9  C   UNL     1      -6.681   0.216 -32.079  1.00  0.00     0.131 A 
HETATM   10  N   UNL     1      -7.416  -0.451 -32.948  1.00  0.00    -0.232 NA
HETATM   11  C   UNL     1      -6.565  -1.342 -33.556  1.00  0.00     0.085 A 
HETATM   12  C   UNL     1      -5.281  -1.223 -33.039  1.00  0.00     0.062 A 
HETATM   13  C   UNL     1      -6.817  -2.280 -34.566  1.00  0.00     0.034 A 
HETATM   14  C   UNL     1      -4.206  -2.001 -33.474  1.00  0.00     0.032 A 
HETATM   15  N   UNL     1      -5.381  -0.234 -32.093  1.00  0.00    -0.341 N 
HETATM   16  C   UNL     1      -4.475  -2.930 -34.485  1.00  0.00     0.002 A 
HETATM   17  C   UNL     1      -5.756  -3.071 -35.023  1.00  0.00     0.002 A 
HETATM   18  H   UNL     1      -4.614   0.100 -31.526  1.00  0.00     0.167 HD
ENDBRANCH   8   9
ENDBRANCH   1   8
BRANCH   4  19
HETATM   19  C   UNL     1      -3.850   3.705 -32.584  1.00  0.00     0.165 C 
HETATM   20  O   UNL     1      -3.744   2.474 -32.573  1.00  0.00    -0.292 OA
BRANCH  19  21
HETATM   21  C   UNL     1      -2.635   4.566 -32.455  1.00  0.00     0.012 A 
HETATM   22  C   UNL     1      -1.809   4.540 -31.326  1.00  0.00     0.039 A 
HETATM   23  C   UNL     1      -0.695   5.380 -31.263  1.00  0.00     0.035 A 
HETATM   24 CL   UNL     1       0.311   5.345 -29.867  1.00  0.00    -0.084 Cl
HETATM   25  C   UNL     1      -0.390   6.242 -32.313  1.00  0.00     0.024 A 
HETATM   26  C   UNL     1      -1.205   6.265 -33.443  1.00  0.00     0.003 A 
HETATM   27  C   UNL     1      -2.322   5.430 -33.514  1.00  0.00     0.015 A 
ENDBRANCH  19  21
ENDBRANCH   4  19
TORSDOF 4
ENDMDL
MODEL 9
REMARK VINA RESULT:      -8.5      3.263      6.559
REMARK  4 active torsions:
REMARK  status: ('A' for Active; 'I' for Inactive)
REMARK    1  A    between atoms: C_6  and  C_7 
REMARK    2  A    between atoms: C_7  and  N_8 
REMARK    3  A    between atoms: C_11  and  C_12 
REMARK    4  A    between atoms: C_12  and  C_13 
ROOT
HETATM    1  N   UNL     1      -9.702   1.526 -34.262  1.00  0.00    -0.064 N 
HETATM    2  H   UNL     1      -9.362   0.867 -34.988  1.00  0.00     0.280 HD
HETATM    3  C   UNL     1      -8.465   2.282 -33.822  1.00  0.00     0.247 C 
HETATM    4  C   UNL     1      -7.380   1.295 -33.370  1.00  0.00     0.086 C 
HETATM    5  C   UNL     1      -7.919   0.341 -32.297  1.00  0.00     0.016 C 
HETATM    6  C   UNL     1      -9.246  -0.313 -32.687  1.00  0.00     0.029 C 
HETATM    7  C   UNL     1     -10.285   0.703 -33.146  1.00  0.00     0.235 C 
ENDROOT
BRANCH   1   8
HETATM    8  C   UNL     1     -10.720   2.398 -34.966  1.00  0.00     0.313 C 
BRANCH   8   9
HETATM    9  C   UNL     1     -12.064   2.476 -34.317  1.00  0.00     0.131 A 
HETATM   10  N   UNL     1     -13.036   1.589 -34.412  1.00  0.00    -0.232 NA
HETATM   11  C   UNL     1     -14.055   2.062 -33.619  1.00  0.00     0.085 A 
HETATM   12  C   UNL     1     -13.699   3.270 -33.034  1.00  0.00     0.062 A 
HETATM   13  C   UNL     1     -15.311   1.506 -33.344  1.00  0.00     0.034 A 
HETATM   14  C   UNL     1     -14.539   3.979 -32.172  1.00  0.00     0.032 A 
HETATM   15  N   UNL     1     -12.434   3.520 -33.501  1.00  0.00    -0.341 N 
HETATM   16  C   UNL     1     -15.789   3.408 -31.906  1.00  0.00     0.002 A 
HETATM   17  C   UNL     1     -16.172   2.194 -32.480  1.00  0.00     0.002 A 
HETATM   18  H   UNL     1     -11.881   4.332 -33.261  1.00  0.00     0.167 HD
ENDBRANCH   8   9
ENDBRANCH   1   8
BRANCH   4  19
HETATM   19  C   UNL     1      -6.882   0.522 -34.587  1.00  0.00     0.165 C 
HETATM   20  O   UNL     1      -7.116   0.965 -35.716  1.00  0.00    -0.292 OA
BRANCH  19  21
HETATM   21  C   UNL     1      -6.137  -0.763 -34.423  1.00  0.00     0.012 A 
HETATM   22  C   UNL     1      -6.611  -1.979 -34.927  1.00  0.00     0.039 A 
HETATM   23  C   UNL     1      -5.871  -3.147 -34.728  1.00  0.00     0.035 A 
HETATM   24 CL   UNL     1      -6.465  -4.639 -35.348  1.00  0.00    -0.084 Cl
HETATM   25  C   UNL     1      -4.663  -3.118 -34.037  1.00  0.00     0.024 A 
HETATM   26  C   UNL     1      -4.183  -1.908 -33.539  1.00  0.00     0.003 A 
HETATM   27  C   UNL     1      -4.917  -0.735 -33.732  1.00  0.00     0.015 A 
ENDBRANCH  19  21
ENDBRANCH   4  19
TORSDOF 4
ENDMDL
MODEL 10
REMARK VINA RESULT:      -8.4      4.552      8.624
REMARK  4 active torsions:
REMARK  status: ('A' for Active; 'I' for Inactive)
REMARK    1  A    between atoms: C_6  and  C_7 
REMARK    2  A    between atoms: C_7  and  N_8 
REMARK    3  A    between atoms: C_11  and  C_12 
REMARK    4  A    between atoms: C_12  and  C_13 
ROOT
HETATM    1  N   UNL     1      -3.341   4.821 -32.649  1.00  0.00    -0.064 N 
HETATM    2  H   UNL     1      -3.445   5.836 -32.454  1.00  0.00     0.280 HD
HETATM    3  C   UNL     1      -1.860   4.550 -32.491  1.00  0.00     0.247 C 
HETATM    4  C   UNL     1      -1.055   5.488 -33.402  1.00  0.00     0.086 C 
HETATM    5  C   UNL     1      -1.536   5.388 -34.854  1.00  0.00     0.016 C 
HETATM    6  C   UNL     1      -3.054   5.522 -34.994  1.00  0.00     0.029 C 
HETATM    7  C   UNL     1      -3.810   4.585 -34.058  1.00  0.00     0.235 C 
ENDROOT
BRANCH   1   8
HETATM    8  C   UNL     1      -4.193   4.131 -31.605  1.00  0.00     0.313 C 
BRANCH   8   9
HETATM    9  C   UNL     1      -4.806   2.835 -32.024  1.00  0.00     0.131 A 
HETATM   10  N   UNL     1      -6.089   2.599 -32.226  1.00  0.00    -0.232 NA
HETATM   11  C   UNL     1      -6.171   1.290 -32.637  1.00  0.00     0.085 A 
HETATM   12  C   UNL     1      -4.910   0.710 -32.678  1.00  0.00     0.062 A 
HETATM   13  C   UNL     1      -7.291   0.532 -33.000  1.00  0.00     0.034 A 
HETATM   14  C   UNL     1      -4.689  -0.613 -33.067  1.00  0.00     0.032 A 
HETATM   15  N   UNL     1      -4.058   1.707 -32.273  1.00  0.00    -0.341 N 
HETATM   16  C   UNL     1      -5.818  -1.355 -33.430  1.00  0.00     0.002 A 
HETATM   17  C   UNL     1      -7.098  -0.797 -33.397  1.00  0.00     0.002 A 
HETATM   18  H   UNL     1      -3.055   1.611 -32.194  1.00  0.00     0.167 HD
ENDBRANCH   8   9
ENDBRANCH   1   8
BRANCH   4  19
HETATM   19  C   UNL     1      -1.188   6.914 -32.878  1.00  0.00     0.165 C 
HETATM   20  O   UNL     1      -1.475   7.819 -33.668  1.00  0.00    -0.292 OA
BRANCH  19  21
HETATM   21  C   UNL     1      -0.959   7.222 -31.434  1.00  0.00     0.012 A 
HETATM   22  C   UNL     1      -1.953   7.761 -30.610  1.00  0.00     0.039 A 
HETATM   23  C   UNL     1      -1.669   8.037 -29.271  1.00  0.00     0.035 A 
HETATM   24 CL   UNL     1      -2.898   8.705 -28.267  1.00  0.00    -0.084 Cl
HETATM   25  C   UNL     1      -0.408   7.779 -28.740  1.00  0.00     0.024 A 
HETATM   26  C   UNL     1       0.584   7.236 -29.555  1.00  0.00     0.003 A 
HETATM   27  C   UNL     1       0.309   6.958 -30.896  1.00  0.00     0.015 A 
ENDBRANCH  19  21
ENDBRANCH   4  19
TORSDOF 4
ENDMDL
