MODEL 1
REMARK VINA RESULT:      -9.3      0.000      0.000
REMARK  7 active torsions:
REMARK  status: ('A' for Active; 'I' for Inactive)
REMARK    1  A    between atoms: C_5  and  C_6 
REMARK    2  A    between atoms: C_6  and  C_7 
REMARK    3  A    between atoms: C_7  and  S_8 
REMARK    4  A    between atoms: S_8  and  C_9 
REMARK    5  A    between atoms: C_15  and  C_16 
REMARK    6  A    between atoms: C_16  and  C_17 
REMARK    7  A    between atoms: C_25  and  N_26 
ROOT
HETATM    1  C   UNL     1      -6.069   2.938 -31.878  1.00  0.00     0.116 A 
HETATM    2  N   UNL     1      -7.266   3.057 -32.475  1.00  0.00    -0.203 NA
HETATM    3  S   UNL     1      -7.097   4.078 -33.803  1.00  0.00     0.020 SA
HETATM    4  C   UNL     1      -5.469   4.358 -33.558  1.00  0.00     0.080 A 
HETATM    5  C   UNL     1      -5.037   3.686 -32.481  1.00  0.00     0.053 A 
HETATM    6  S   UNL     1      -4.296   5.242 -34.330  1.00  0.00    -0.074 SA
HETATM    7  C   UNL     1      -3.114   4.735 -33.147  1.00  0.00     0.084 A 
HETATM    8  C   UNL     1      -3.668   3.860 -32.211  1.00  0.00     0.062 A 
ENDROOT
BRANCH   1   9
HETATM    9  S   UNL     1      -5.906   1.934 -30.445  1.00  0.00    -0.101 SA
BRANCH   9  10
HETATM   10  C   UNL     1      -6.308   0.305 -31.133  1.00  0.00     0.164 C 
BRANCH  10  11
HETATM   11  C   UNL     1      -5.160  -0.174 -31.992  1.00  0.00     0.169 C 
HETATM   12  O   UNL     1      -4.047   0.348 -31.923  1.00  0.00    -0.291 OA
BRANCH  11  13
HETATM   13  C   UNL     1      -5.380  -1.291 -32.961  1.00  0.00     0.011 A 
HETATM   14  C   UNL     1      -4.363  -2.172 -33.343  1.00  0.00     0.016 A 
HETATM   15  C   UNL     1      -4.629  -3.204 -34.249  1.00  0.00     0.007 A 
HETATM   16  C   UNL     1      -5.913  -3.372 -34.781  1.00  0.00    -0.062 A 
HETATM   17  C   UNL     1      -6.198  -4.461 -35.773  1.00  0.00     0.048 C 
HETATM   18  C   UNL     1      -6.924  -2.476 -34.415  1.00  0.00     0.007 A 
HETATM   19  C   UNL     1      -6.660  -1.444 -33.512  1.00  0.00     0.016 A 
ENDBRANCH  11  13
ENDBRANCH  10  11
ENDBRANCH   9  10
ENDBRANCH   1   9
BRANCH   8  20
HETATM   20  N   UNL     1      -2.989   3.262 -31.208  1.00  0.00    -0.397 N 
HETATM   21  H   UNL     1      -3.250   2.362 -30.813  1.00  0.00     0.156 HD
HETATM   22  H   UNL     1      -2.397   3.806 -30.577  1.00  0.00     0.156 HD
ENDBRANCH   8  20
BRANCH   7  23
HETATM   23  C   UNL     1      -1.762   5.251 -33.305  1.00  0.00     0.201 C 
HETATM   24  O   UNL     1      -1.147   5.201 -34.370  1.00  0.00    -0.286 OA
BRANCH  23  25
HETATM   25  C   UNL     1      -1.066   5.886 -32.147  1.00  0.00     0.015 A 
HETATM   26  C   UNL     1       0.030   5.287 -31.513  1.00  0.00     0.016 A 
HETATM   27  C   UNL     1       0.635   5.908 -30.417  1.00  0.00     0.007 A 
HETATM   28  C   UNL     1       0.142   7.121 -29.925  1.00  0.00    -0.062 A 
HETATM   29  C   UNL     1       0.784   7.796 -28.747  1.00  0.00     0.048 C 
HETATM   30  C   UNL     1      -0.961   7.714 -30.552  1.00  0.00     0.007 A 
HETATM   31  C   UNL     1      -1.564   7.099 -31.651  1.00  0.00     0.016 A 
ENDBRANCH  23  25
ENDBRANCH   7  23
TORSDOF 7
ENDMDL
MODEL 2
REMARK VINA RESULT:      -9.1      1.848      2.682
REMARK  7 active torsions:
REMARK  status: ('A' for Active; 'I' for Inactive)
REMARK    1  A    between atoms: C_5  and  C_6 
REMARK    2  A    between atoms: C_6  and  C_7 
REMARK    3  A    between atoms: C_7  and  S_8 
REMARK    4  A    between atoms: S_8  and  C_9 
REMARK    5  A    between atoms: C_15  and  C_16 
REMARK    6  A    between atoms: C_16  and  C_17 
REMARK    7  A    between atoms: C_25  and  N_26 
ROOT
HETATM    1  C   UNL     1      -7.007   1.490 -32.053  1.00  0.00     0.116 A 
HETATM    2  N   UNL     1      -7.025   0.532 -31.112  1.00  0.00    -0.203 NA
HETATM    3  S   UNL     1      -5.538   0.536 -30.323  1.00  0.00     0.020 SA
HETATM    4  C   UNL     1      -4.897   1.775 -31.240  1.00  0.00     0.080 A 
HETATM    5  C   UNL     1      -5.793   2.199 -32.143  1.00  0.00     0.053 A 
HETATM    6  S   UNL     1      -3.449   2.586 -31.278  1.00  0.00    -0.074 SA
HETATM    7  C   UNL     1      -4.016   3.567 -32.609  1.00  0.00     0.084 A 
HETATM    8  C   UNL     1      -5.332   3.253 -32.953  1.00  0.00     0.062 A 
ENDROOT
BRANCH   1   9
HETATM    9  S   UNL     1      -8.421   1.743 -33.065  1.00  0.00    -0.101 SA
BRANCH   9  10
HETATM   10  C   UNL     1      -8.543   0.126 -33.878  1.00  0.00     0.164 C 
BRANCH  10  11
HETATM   11  C   UNL     1      -7.350  -0.068 -34.788  1.00  0.00     0.169 C 
HETATM   12  O   UNL     1      -7.115   0.711 -35.712  1.00  0.00    -0.291 OA
BRANCH  11  13
HETATM   13  C   UNL     1      -6.445  -1.239 -34.576  1.00  0.00     0.011 A 
HETATM   14  C   UNL     1      -6.784  -2.537 -34.974  1.00  0.00     0.016 A 
HETATM   15  C   UNL     1      -5.894  -3.594 -34.755  1.00  0.00     0.007 A 
HETATM   16  C   UNL     1      -4.656  -3.369 -34.142  1.00  0.00    -0.062 A 
HETATM   17  C   UNL     1      -3.709  -4.504 -33.882  1.00  0.00     0.048 C 
HETATM   18  C   UNL     1      -4.329  -2.075 -33.724  1.00  0.00     0.007 A 
HETATM   19  C   UNL     1      -5.217  -1.018 -33.940  1.00  0.00     0.016 A 
ENDBRANCH  11  13
ENDBRANCH  10  11
ENDBRANCH   9  10
ENDBRANCH   1   9
BRANCH   8  20
HETATM   20  N   UNL     1      -6.056   3.877 -33.907  1.00  0.00    -0.397 N 
HETATM   21  H   UNL     1      -5.710   4.057 -34.846  1.00  0.00     0.156 HD
HETATM   22  H   UNL     1      -6.837   4.486 -33.658  1.00  0.00     0.156 HD
ENDBRANCH   8  20
BRANCH   7  23
HETATM   23  C   UNL     1      -3.088   4.554 -33.140  1.00  0.00     0.201 C 
HETATM   24  O   UNL     1      -3.022   4.835 -34.337  1.00  0.00    -0.286 OA
BRANCH  23  25
HETATM   25  C   UNL     1      -2.171   5.288 -32.218  1.00  0.00     0.015 A 
HETATM   26  C   UNL     1      -0.778   5.168 -32.299  1.00  0.00     0.016 A 
HETATM   27  C   UNL     1       0.041   5.855 -31.398  1.00  0.00     0.007 A 
HETATM   28  C   UNL     1      -0.519   6.652 -30.393  1.00  0.00    -0.062 A 
HETATM   29  C   UNL     1       0.352   7.393 -29.421  1.00  0.00     0.048 C 
HETATM   30  C   UNL     1      -1.911   6.762 -30.306  1.00  0.00     0.007 A 
HETATM   31  C   UNL     1      -2.732   6.081 -31.208  1.00  0.00     0.016 A 
ENDBRANCH  23  25
ENDBRANCH   7  23
TORSDOF 7
ENDMDL
MODEL 3
REMARK VINA RESULT:      -9.1      1.399      1.586
REMARK  7 active torsions:
REMARK  status: ('A' for Active; 'I' for Inactive)
REMARK    1  A    between atoms: C_5  and  C_6 
REMARK    2  A    between atoms: C_6  and  C_7 
REMARK    3  A    between atoms: C_7  and  S_8 
REMARK    4  A    between atoms: S_8  and  C_9 
REMARK    5  A    between atoms: C_15  and  C_16 
REMARK    6  A    between atoms: C_16  and  C_17 
REMARK    7  A    between atoms: C_25  and  N_26 
ROOT
HETATM    1  C   UNL     1      -6.054   3.920 -31.314  1.00  0.00     0.116 A 
HETATM    2  N   UNL     1      -7.207   4.596 -31.429  1.00  0.00    -0.203 NA
HETATM    3  S   UNL     1      -6.846   6.205 -31.772  1.00  0.00     0.020 SA
HETATM    4  C   UNL     1      -5.191   5.985 -31.742  1.00  0.00     0.080 A 
HETATM    5  C   UNL     1      -4.895   4.705 -31.479  1.00  0.00     0.053 A 
HETATM    6  S   UNL     1      -3.869   6.962 -31.971  1.00  0.00    -0.074 SA
HETATM    7  C   UNL     1      -2.800   5.610 -31.675  1.00  0.00     0.084 A 
HETATM    8  C   UNL     1      -3.515   4.433 -31.446  1.00  0.00     0.062 A 
ENDROOT
BRANCH   1   9
HETATM    9  S   UNL     1      -6.086   2.201 -30.950  1.00  0.00    -0.101 SA
BRANCH   9  10
HETATM   10  C   UNL     1      -6.256   1.510 -32.619  1.00  0.00     0.164 C 
BRANCH  10  11
HETATM   11  C   UNL     1      -5.108   0.563 -32.889  1.00  0.00     0.169 C 
HETATM   12  O   UNL     1      -3.948   0.864 -32.605  1.00  0.00    -0.291 OA
BRANCH  11  13
HETATM   13  C   UNL     1      -5.379  -0.759 -33.531  1.00  0.00     0.011 A 
HETATM   14  C   UNL     1      -4.380  -1.715 -33.745  1.00  0.00     0.016 A 
HETATM   15  C   UNL     1      -4.694  -2.938 -34.346  1.00  0.00     0.007 A 
HETATM   16  C   UNL     1      -6.008  -3.225 -34.735  1.00  0.00    -0.062 A 
HETATM   17  C   UNL     1      -6.345  -4.526 -35.403  1.00  0.00     0.048 C 
HETATM   18  C   UNL     1      -7.001  -2.259 -34.541  1.00  0.00     0.007 A 
HETATM   19  C   UNL     1      -6.690  -1.036 -33.943  1.00  0.00     0.016 A 
ENDBRANCH  11  13
ENDBRANCH  10  11
ENDBRANCH   9  10
ENDBRANCH   1   9
BRANCH   8  20
HETATM   20  N   UNL     1      -2.965   3.217 -31.239  1.00  0.00    -0.397 N 
HETATM   21  H   UNL     1      -3.502   2.353 -31.225  1.00  0.00     0.156 HD
HETATM   22  H   UNL     1      -2.065   3.121 -30.764  1.00  0.00     0.156 HD
ENDBRANCH   8  20
BRANCH   7  23
HETATM   23  C   UNL     1      -1.371   5.876 -31.731  1.00  0.00     0.201 C 
HETATM   24  O   UNL     1      -0.722   5.833 -32.776  1.00  0.00    -0.286 OA
BRANCH  23  25
HETATM   25  C   UNL     1      -0.629   6.234 -30.485  1.00  0.00     0.015 A 
HETATM   26  C   UNL     1       0.095   5.290 -29.748  1.00  0.00     0.016 A 
HETATM   27  C   UNL     1       0.753   5.666 -28.574  1.00  0.00     0.007 A 
HETATM   28  C   UNL     1       0.679   6.984 -28.108  1.00  0.00    -0.062 A 
HETATM   29  C   UNL     1       1.383   7.398 -26.849  1.00  0.00     0.048 C 
HETATM   30  C   UNL     1      -0.054   7.926 -28.839  1.00  0.00     0.007 A 
HETATM   31  C   UNL     1      -0.709   7.553 -30.016  1.00  0.00     0.016 A 
ENDBRANCH  23  25
ENDBRANCH   7  23
TORSDOF 7
ENDMDL
MODEL 4
REMARK VINA RESULT:      -9.1      1.506      9.171
REMARK  7 active torsions:
REMARK  status: ('A' for Active; 'I' for Inactive)
REMARK    1  A    between atoms: C_5  and  C_6 
REMARK    2  A    between atoms: C_6  and  C_7 
REMARK    3  A    between atoms: C_7  and  S_8 
REMARK    4  A    between atoms: S_8  and  C_9 
REMARK    5  A    between atoms: C_15  and  C_16 
REMARK    6  A    between atoms: C_16  and  C_17 
REMARK    7  A    between atoms: C_25  and  N_26 
ROOT
HETATM    1  C   UNL     1      -3.805   4.464 -33.001  1.00  0.00     0.116 A 
HETATM    2  N   UNL     1      -4.386   5.535 -33.562  1.00  0.00    -0.203 NA
HETATM    3  S   UNL     1      -6.013   5.183 -33.816  1.00  0.00     0.020 SA
HETATM    4  C   UNL     1      -5.917   3.633 -33.205  1.00  0.00     0.080 A 
HETATM    5  C   UNL     1      -4.667   3.367 -32.802  1.00  0.00     0.053 A 
HETATM    6  S   UNL     1      -6.991   2.388 -32.977  1.00  0.00    -0.074 SA
HETATM    7  C   UNL     1      -5.716   1.389 -32.318  1.00  0.00     0.084 A 
HETATM    8  C   UNL     1      -4.503   2.078 -32.262  1.00  0.00     0.062 A 
ENDROOT
BRANCH   1   9
HETATM    9  S   UNL     1      -2.092   4.507 -32.610  1.00  0.00    -0.101 SA
BRANCH   9  10
HETATM   10  C   UNL     1      -1.487   5.643 -33.889  1.00  0.00     0.164 C 
BRANCH  10  11
HETATM   11  C   UNL     1      -1.423   7.045 -33.325  1.00  0.00     0.169 C 
HETATM   12  O   UNL     1      -1.715   8.025 -34.010  1.00  0.00    -0.291 OA
BRANCH  11  13
HETATM   13  C   UNL     1      -0.978   7.251 -31.913  1.00  0.00     0.011 A 
HETATM   14  C   UNL     1      -1.766   7.906 -30.960  1.00  0.00     0.016 A 
HETATM   15  C   UNL     1      -1.300   8.065 -29.651  1.00  0.00     0.007 A 
HETATM   16  C   UNL     1      -0.046   7.569 -29.276  1.00  0.00    -0.062 A 
HETATM   17  C   UNL     1       0.469   7.760 -27.879  1.00  0.00     0.048 C 
HETATM   18  C   UNL     1       0.750   6.935 -30.235  1.00  0.00     0.007 A 
HETATM   19  C   UNL     1       0.288   6.777 -31.544  1.00  0.00     0.016 A 
ENDBRANCH  11  13
ENDBRANCH  10  11
ENDBRANCH   9  10
ENDBRANCH   1   9
BRANCH   8  20
HETATM   20  N   UNL     1      -3.352   1.586 -31.754  1.00  0.00    -0.397 N 
HETATM   21  H   UNL     1      -2.436   1.780 -32.151  1.00  0.00     0.156 HD
HETATM   22  H   UNL     1      -3.352   0.748 -31.170  1.00  0.00     0.156 HD
ENDBRANCH   8  20
BRANCH   7  23
HETATM   23  C   UNL     1      -6.081   0.041 -31.909  1.00  0.00     0.201 C 
HETATM   24  O   UNL     1      -6.490  -0.228 -30.779  1.00  0.00    -0.286 OA
BRANCH  23  25
HETATM   25  C   UNL     1      -5.979  -1.087 -32.882  1.00  0.00     0.015 A 
HETATM   26  C   UNL     1      -4.764  -1.722 -33.166  1.00  0.00     0.016 A 
HETATM   27  C   UNL     1      -4.712  -2.758 -34.103  1.00  0.00     0.007 A 
HETATM   28  C   UNL     1      -5.867  -3.159 -34.783  1.00  0.00    -0.062 A 
HETATM   29  C   UNL     1      -5.822  -4.270 -35.791  1.00  0.00     0.048 C 
HETATM   30  C   UNL     1      -7.080  -2.516 -34.507  1.00  0.00     0.007 A 
HETATM   31  C   UNL     1      -7.135  -1.484 -33.568  1.00  0.00     0.016 A 
ENDBRANCH  23  25
ENDBRANCH   7  23
TORSDOF 7
ENDMDL
MODEL 5
REMARK VINA RESULT:      -8.6      1.594      8.362
REMARK  7 active torsions:
REMARK  status: ('A' for Active; 'I' for Inactive)
REMARK    1  A    between atoms: C_5  and  C_6 
REMARK    2  A    between atoms: C_6  and  C_7 
REMARK    3  A    between atoms: C_7  and  S_8 
REMARK    4  A    between atoms: S_8  and  C_9 
REMARK    5  A    between atoms: C_15  and  C_16 
REMARK    6  A    between atoms: C_16  and  C_17 
REMARK    7  A    between atoms: C_25  and  N_26 
ROOT
HETATM    1  C   UNL     1      -7.060   4.171 -31.895  1.00  0.00     0.116 A 
HETATM    2  N   UNL     1      -7.767   4.463 -30.792  1.00  0.00    -0.203 NA
HETATM    3  S   UNL     1      -7.560   3.212 -29.683  1.00  0.00     0.020 SA
HETATM    4  C   UNL     1      -6.566   2.310 -30.676  1.00  0.00     0.080 A 
HETATM    5  C   UNL     1      -6.378   2.939 -31.845  1.00  0.00     0.053 A 
HETATM    6  S   UNL     1      -5.771   0.859 -30.542  1.00  0.00    -0.074 SA
HETATM    7  C   UNL     1      -5.140   1.038 -32.162  1.00  0.00     0.084 A 
HETATM    8  C   UNL     1      -5.541   2.245 -32.737  1.00  0.00     0.062 A 
ENDROOT
BRANCH   1   9
HETATM    9  S   UNL     1      -7.070   5.284 -33.255  1.00  0.00    -0.101 SA
BRANCH   9  10
HETATM   10  C   UNL     1      -5.684   6.367 -32.810  1.00  0.00     0.164 C 
BRANCH  10  11
HETATM   11  C   UNL     1      -4.438   5.912 -33.538  1.00  0.00     0.169 C 
HETATM   12  O   UNL     1      -4.500   5.408 -34.660  1.00  0.00    -0.291 OA
BRANCH  11  13
HETATM   13  C   UNL     1      -3.105   6.059 -32.879  1.00  0.00     0.011 A 
HETATM   14  C   UNL     1      -2.373   4.965 -32.403  1.00  0.00     0.016 A 
HETATM   15  C   UNL     1      -1.127   5.163 -31.800  1.00  0.00     0.007 A 
HETATM   16  C   UNL     1      -0.594   6.450 -31.669  1.00  0.00    -0.062 A 
HETATM   17  C   UNL     1       0.732   6.669 -30.999  1.00  0.00     0.048 C 
HETATM   18  C   UNL     1      -1.337   7.544 -32.125  1.00  0.00     0.007 A 
HETATM   19  C   UNL     1      -2.583   7.350 -32.726  1.00  0.00     0.016 A 
ENDBRANCH  11  13
ENDBRANCH  10  11
ENDBRANCH   9  10
ENDBRANCH   1   9
BRANCH   8  20
HETATM   20  N   UNL     1      -5.169   2.686 -33.959  1.00  0.00    -0.397 N 
HETATM   21  H   UNL     1      -5.822   2.827 -34.727  1.00  0.00     0.156 HD
HETATM   22  H   UNL     1      -4.206   2.586 -34.283  1.00  0.00     0.156 HD
ENDBRANCH   8  20
BRANCH   7  23
HETATM   23  C   UNL     1      -4.296  -0.036 -32.662  1.00  0.00     0.201 C 
HETATM   24  O   UNL     1      -3.071  -0.042 -32.532  1.00  0.00    -0.286 OA
BRANCH  23  25
HETATM   25  C   UNL     1      -4.911  -1.206 -33.358  1.00  0.00     0.015 A 
HETATM   26  C   UNL     1      -4.207  -2.395 -33.586  1.00  0.00     0.016 A 
HETATM   27  C   UNL     1      -4.815  -3.455 -34.264  1.00  0.00     0.007 A 
HETATM   28  C   UNL     1      -6.126  -3.335 -34.740  1.00  0.00    -0.062 A 
HETATM   29  C   UNL     1      -6.788  -4.468 -35.469  1.00  0.00     0.048 C 
HETATM   30  C   UNL     1      -6.826  -2.143 -34.521  1.00  0.00     0.007 A 
HETATM   31  C   UNL     1      -6.221  -1.083 -33.840  1.00  0.00     0.016 A 
ENDBRANCH  23  25
ENDBRANCH   7  23
TORSDOF 7
ENDMDL
MODEL 6
REMARK VINA RESULT:      -8.6      1.667      8.755
REMARK  7 active torsions:
REMARK  status: ('A' for Active; 'I' for Inactive)
REMARK    1  A    between atoms: C_5  and  C_6 
REMARK    2  A    between atoms: C_6  and  C_7 
REMARK    3  A    between atoms: C_7  and  S_8 
REMARK    4  A    between atoms: S_8  and  C_9 
REMARK    5  A    between atoms: C_15  and  C_16 
REMARK    6  A    between atoms: C_16  and  C_17 
REMARK    7  A    between atoms: C_25  and  N_26 
ROOT
HETATM    1  C   UNL     1      -4.710   5.272 -32.187  1.00  0.00     0.116 A 
HETATM    2  N   UNL     1      -4.445   6.100 -31.164  1.00  0.00    -0.203 NA
HETATM    3  S   UNL     1      -5.188   5.488 -29.782  1.00  0.00     0.020 SA
HETATM    4  C   UNL     1      -5.855   4.167 -30.555  1.00  0.00     0.080 A 
HETATM    5  C   UNL     1      -5.523   4.171 -31.854  1.00  0.00     0.053 A 
HETATM    6  S   UNL     1      -6.795   2.881 -30.091  1.00  0.00    -0.074 SA
HETATM    7  C   UNL     1      -6.805   2.277 -31.732  1.00  0.00     0.084 A 
HETATM    8  C   UNL     1      -6.040   3.081 -32.578  1.00  0.00     0.062 A 
ENDROOT
BRANCH   1   9
HETATM    9  S   UNL     1      -4.076   5.635 -33.786  1.00  0.00    -0.101 SA
BRANCH   9  10
HETATM   10  C   UNL     1      -2.375   5.028 -33.615  1.00  0.00     0.164 C 
BRANCH  10  11
HETATM   11  C   UNL     1      -1.459   6.188 -33.292  1.00  0.00     0.169 C 
HETATM   12  O   UNL     1      -1.189   7.044 -34.135  1.00  0.00    -0.291 OA
BRANCH  11  13
HETATM   13  C   UNL     1      -0.851   6.290 -31.931  1.00  0.00     0.011 A 
HETATM   14  C   UNL     1      -0.064   5.274 -31.377  1.00  0.00     0.016 A 
HETATM   15  C   UNL     1       0.484   5.428 -30.099  1.00  0.00     0.007 A 
HETATM   16  C   UNL     1       0.257   6.595 -29.361  1.00  0.00    -0.062 A 
HETATM   17  C   UNL     1       0.822   6.754 -27.980  1.00  0.00     0.048 C 
HETATM   18  C   UNL     1      -0.549   7.600 -29.907  1.00  0.00     0.007 A 
HETATM   19  C   UNL     1      -1.099   7.448 -31.182  1.00  0.00     0.016 A 
ENDBRANCH  11  13
ENDBRANCH  10  11
ENDBRANCH   9  10
ENDBRANCH   1   9
BRANCH   8  20
HETATM   20  N   UNL     1      -5.817   2.839 -33.889  1.00  0.00    -0.397 N 
HETATM   21  H   UNL     1      -5.784   1.905 -34.289  1.00  0.00     0.156 HD
HETATM   22  H   UNL     1      -5.348   3.530 -34.477  1.00  0.00     0.156 HD
ENDBRANCH   8  20
BRANCH   7  23
HETATM   23  C   UNL     1      -7.556   1.055 -31.979  1.00  0.00     0.201 C 
HETATM   24  O   UNL     1      -8.713   0.890 -31.590  1.00  0.00    -0.286 OA
BRANCH  23  25
HETATM   25  C   UNL     1      -6.931  -0.063 -32.746  1.00  0.00     0.015 A 
HETATM   26  C   UNL     1      -5.667  -0.574 -32.426  1.00  0.00     0.016 A 
HETATM   27  C   UNL     1      -5.111  -1.605 -33.188  1.00  0.00     0.007 A 
HETATM   28  C   UNL     1      -5.798  -2.125 -34.291  1.00  0.00    -0.062 A 
HETATM   29  C   UNL     1      -5.209  -3.232 -35.116  1.00  0.00     0.048 C 
HETATM   30  C   UNL     1      -7.056  -1.606 -34.617  1.00  0.00     0.007 A 
HETATM   31  C   UNL     1      -7.617  -0.578 -33.854  1.00  0.00     0.016 A 
ENDBRANCH  23  25
ENDBRANCH   7  23
TORSDOF 7
ENDMDL
MODEL 7
REMARK VINA RESULT:      -8.6      2.135      8.286
REMARK  7 active torsions:
REMARK  status: ('A' for Active; 'I' for Inactive)
REMARK    1  A    between atoms: C_5  and  C_6 
REMARK    2  A    between atoms: C_6  and  C_7 
REMARK    3  A    between atoms: C_7  and  S_8 
REMARK    4  A    between atoms: S_8  and  C_9 
REMARK    5  A    between atoms: C_15  and  C_16 
REMARK    6  A    between atoms: C_16  and  C_17 
REMARK    7  A    between atoms: C_25  and  N_26 
ROOT
HETATM    1  C   UNL     1      -7.051   3.836 -30.890  1.00  0.00     0.116 A 
HETATM    2  N   UNL     1      -8.116   4.078 -30.109  1.00  0.00    -0.203 NA
HETATM    3  S   UNL     1      -9.342   3.007 -30.539  1.00  0.00     0.020 SA
HETATM    4  C   UNL     1      -8.461   2.265 -31.748  1.00  0.00     0.080 A 
HETATM    5  C   UNL     1      -7.240   2.810 -31.837  1.00  0.00     0.053 A 
HETATM    6  S   UNL     1      -8.742   1.031 -32.822  1.00  0.00    -0.074 SA
HETATM    7  C   UNL     1      -7.141   1.233 -33.495  1.00  0.00     0.084 A 
HETATM    8  C   UNL     1      -6.427   2.231 -32.829  1.00  0.00     0.062 A 
ENDROOT
BRANCH   1   9
HETATM    9  S   UNL     1      -5.592   4.796 -30.694  1.00  0.00    -0.101 SA
BRANCH   9  10
HETATM   10  C   UNL     1      -5.818   6.019 -32.015  1.00  0.00     0.164 C 
BRANCH  10  11
HETATM   11  C   UNL     1      -4.693   5.886 -33.018  1.00  0.00     0.169 C 
HETATM   12  O   UNL     1      -4.915   5.589 -34.192  1.00  0.00    -0.291 OA
BRANCH  11  13
HETATM   13  C   UNL     1      -3.282   6.101 -32.576  1.00  0.00     0.011 A 
HETATM   14  C   UNL     1      -2.302   5.107 -32.668  1.00  0.00     0.016 A 
HETATM   15  C   UNL     1      -0.995   5.367 -32.243  1.00  0.00     0.007 A 
HETATM   16  C   UNL     1      -0.649   6.621 -31.727  1.00  0.00    -0.062 A 
HETATM   17  C   UNL     1       0.746   6.897 -31.246  1.00  0.00     0.048 C 
HETATM   18  C   UNL     1      -1.636   7.607 -31.614  1.00  0.00     0.007 A 
HETATM   19  C   UNL     1      -2.942   7.349 -32.036  1.00  0.00     0.016 A 
ENDBRANCH  11  13
ENDBRANCH  10  11
ENDBRANCH   9  10
ENDBRANCH   1   9
BRANCH   8  20
HETATM   20  N   UNL     1      -5.148   2.578 -33.089  1.00  0.00    -0.397 N 
HETATM   21  H   UNL     1      -4.704   3.409 -32.708  1.00  0.00     0.156 HD
HETATM   22  H   UNL     1      -4.668   2.228 -33.920  1.00  0.00     0.156 HD
ENDBRANCH   8  20
BRANCH   7  23
HETATM   23  C   UNL     1      -6.773   0.352 -34.593  1.00  0.00     0.201 C 
HETATM   24  O   UNL     1      -7.067   0.586 -35.766  1.00  0.00    -0.286 OA
BRANCH  23  25
HETATM   25  C   UNL     1      -5.992  -0.892 -34.323  1.00  0.00     0.015 A 
HETATM   26  C   UNL     1      -4.852  -0.897 -33.510  1.00  0.00     0.016 A 
HETATM   27  C   UNL     1      -4.138  -2.081 -33.307  1.00  0.00     0.007 A 
HETATM   28  C   UNL     1      -4.540  -3.270 -33.927  1.00  0.00    -0.062 A 
HETATM   29  C   UNL     1      -3.780  -4.547 -33.714  1.00  0.00     0.048 C 
HETATM   30  C   UNL     1      -5.673  -3.261 -34.749  1.00  0.00     0.007 A 
HETATM   31  C   UNL     1      -6.391  -2.080 -34.951  1.00  0.00     0.016 A 
ENDBRANCH  23  25
ENDBRANCH   7  23
TORSDOF 7
ENDMDL
MODEL 8
REMARK VINA RESULT:      -8.6      2.280      3.359
REMARK  7 active torsions:
REMARK  status: ('A' for Active; 'I' for Inactive)
REMARK    1  A    between atoms: C_5  and  C_6 
REMARK    2  A    between atoms: C_6  and  C_7 
REMARK    3  A    between atoms: C_7  and  S_8 
REMARK    4  A    between atoms: S_8  and  C_9 
REMARK    5  A    between atoms: C_15  and  C_16 
REMARK    6  A    between atoms: C_16  and  C_17 
REMARK    7  A    between atoms: C_25  and  N_26 
ROOT
HETATM    1  C   UNL     1      -3.131   4.249 -32.363  1.00  0.00     0.116 A 
HETATM    2  N   UNL     1      -2.779   3.895 -33.609  1.00  0.00    -0.203 NA
HETATM    3  S   UNL     1      -1.866   5.142 -34.277  1.00  0.00     0.020 SA
HETATM    4  C   UNL     1      -1.967   6.125 -32.931  1.00  0.00     0.080 A 
HETATM    5  C   UNL     1      -2.682   5.526 -31.968  1.00  0.00     0.053 A 
HETATM    6  S   UNL     1      -1.388   7.625 -32.521  1.00  0.00    -0.074 SA
HETATM    7  C   UNL     1      -2.157   7.511 -30.955  1.00  0.00     0.084 A 
HETATM    8  C   UNL     1      -2.807   6.287 -30.792  1.00  0.00     0.062 A 
ENDROOT
BRANCH   1   9
HETATM    9  S   UNL     1      -4.102   3.156 -31.389  1.00  0.00    -0.101 SA
BRANCH   9  10
HETATM   10  C   UNL     1      -3.927   1.619 -32.338  1.00  0.00     0.164 C 
BRANCH  10  11
HETATM   11  C   UNL     1      -5.281   1.199 -32.865  1.00  0.00     0.169 C 
HETATM   12  O   UNL     1      -6.253   1.953 -32.810  1.00  0.00    -0.291 OA
BRANCH  11  13
HETATM   13  C   UNL     1      -5.452  -0.167 -33.449  1.00  0.00     0.011 A 
HETATM   14  C   UNL     1      -4.451  -1.142 -33.397  1.00  0.00     0.016 A 
HETATM   15  C   UNL     1      -4.670  -2.405 -33.956  1.00  0.00     0.007 A 
HETATM   16  C   UNL     1      -5.890  -2.712 -34.568  1.00  0.00    -0.062 A 
HETATM   17  C   UNL     1      -6.120  -4.058 -35.191  1.00  0.00     0.048 C 
HETATM   18  C   UNL     1      -6.882  -1.729 -34.640  1.00  0.00     0.007 A 
HETATM   19  C   UNL     1      -6.665  -0.466 -34.084  1.00  0.00     0.016 A 
ENDBRANCH  11  13
ENDBRANCH  10  11
ENDBRANCH   9  10
ENDBRANCH   1   9
BRANCH   8  20
HETATM   20  N   UNL     1      -3.446   5.889 -29.670  1.00  0.00    -0.397 N 
HETATM   21  H   UNL     1      -3.878   4.974 -29.566  1.00  0.00     0.156 HD
HETATM   22  H   UNL     1      -3.818   6.571 -29.008  1.00  0.00     0.156 HD
ENDBRANCH   8  20
BRANCH   7  23
HETATM   23  C   UNL     1      -2.001   8.648 -30.061  1.00  0.00     0.201 C 
HETATM   24  O   UNL     1      -2.736   9.636 -30.098  1.00  0.00    -0.286 OA
BRANCH  23  25
HETATM   25  C   UNL     1      -0.920   8.645 -29.031  1.00  0.00     0.015 A 
HETATM   26  C   UNL     1       0.180   7.782 -29.105  1.00  0.00     0.016 A 
HETATM   27  C   UNL     1       1.155   7.797 -28.104  1.00  0.00     0.007 A 
HETATM   28  C   UNL     1       1.036   8.657 -27.007  1.00  0.00    -0.062 A 
HETATM   29  C   UNL     1       2.078   8.681 -25.927  1.00  0.00     0.048 C 
HETATM   30  C   UNL     1      -0.070   9.513 -26.928  1.00  0.00     0.007 A 
HETATM   31  C   UNL     1      -1.044   9.503 -27.929  1.00  0.00     0.016 A 
ENDBRANCH  23  25
ENDBRANCH   7  23
TORSDOF 7
ENDMDL
MODEL 9
REMARK VINA RESULT:      -8.5      2.312      9.672
REMARK  7 active torsions:
REMARK  status: ('A' for Active; 'I' for Inactive)
REMARK    1  A    between atoms: C_5  and  C_6 
REMARK    2  A    between atoms: C_6  and  C_7 
REMARK    3  A    between atoms: C_7  and  S_8 
REMARK    4  A    between atoms: S_8  and  C_9 
REMARK    5  A    between atoms: C_15  and  C_16 
REMARK    6  A    between atoms: C_16  and  C_17 
REMARK    7  A    between atoms: C_25  and  N_26 
ROOT
HETATM    1  C   UNL     1      -1.801   5.126 -32.403  1.00  0.00     0.116 A 
HETATM    2  N   UNL     1      -1.368   6.068 -33.255  1.00  0.00    -0.203 NA
HETATM    3  S   UNL     1      -2.533   6.276 -34.453  1.00  0.00     0.020 SA
HETATM    4  C   UNL     1      -3.569   5.118 -33.841  1.00  0.00     0.080 A 
HETATM    5  C   UNL     1      -3.052   4.568 -32.733  1.00  0.00     0.053 A 
HETATM    6  S   UNL     1      -5.055   4.520 -34.274  1.00  0.00    -0.074 SA
HETATM    7  C   UNL     1      -5.025   3.419 -32.916  1.00  0.00     0.084 A 
HETATM    8  C   UNL     1      -3.871   3.585 -32.148  1.00  0.00     0.062 A 
ENDROOT
BRANCH   1   9
HETATM    9  S   UNL     1      -0.803   4.669 -31.031  1.00  0.00    -0.101 SA
BRANCH   9  10
HETATM   10  C   UNL     1      -0.057   6.269 -30.613  1.00  0.00     0.164 C 
BRANCH  10  11
HETATM   11  C   UNL     1      -0.728   6.827 -29.377  1.00  0.00     0.169 C 
HETATM   12  O   UNL     1      -1.954   6.905 -29.293  1.00  0.00    -0.291 OA
BRANCH  11  13
HETATM   13  C   UNL     1       0.111   7.314 -28.240  1.00  0.00     0.011 A 
HETATM   14  C   UNL     1      -0.010   6.808 -26.941  1.00  0.00     0.016 A 
HETATM   15  C   UNL     1       0.807   7.297 -25.917  1.00  0.00     0.007 A 
HETATM   16  C   UNL     1       1.756   8.292 -26.176  1.00  0.00    -0.062 A 
HETATM   17  C   UNL     1       2.618   8.839 -25.075  1.00  0.00     0.048 C 
HETATM   18  C   UNL     1       1.860   8.813 -27.470  1.00  0.00     0.007 A 
HETATM   19  C   UNL     1       1.044   8.328 -28.494  1.00  0.00     0.016 A 
ENDBRANCH  11  13
ENDBRANCH  10  11
ENDBRANCH   9  10
ENDBRANCH   1   9
BRANCH   8  20
HETATM   20  N   UNL     1      -3.591   2.914 -31.010  1.00  0.00    -0.397 N 
HETATM   21  H   UNL     1      -3.394   1.917 -30.981  1.00  0.00     0.156 HD
HETATM   22  H   UNL     1      -3.883   3.278 -30.101  1.00  0.00     0.156 HD
ENDBRANCH   8  20
BRANCH   7  23
HETATM   23  C   UNL     1      -6.170   2.535 -32.761  1.00  0.00     0.201 C 
HETATM   24  O   UNL     1      -7.191   2.861 -32.154  1.00  0.00    -0.286 OA
BRANCH  23  25
HETATM   25  C   UNL     1      -6.144   1.168 -33.361  1.00  0.00     0.015 A 
HETATM   26  C   UNL     1      -6.865   0.845 -34.517  1.00  0.00     0.016 A 
HETATM   27  C   UNL     1      -6.831  -0.455 -35.029  1.00  0.00     0.007 A 
HETATM   28  C   UNL     1      -6.094  -1.454 -34.384  1.00  0.00    -0.062 A 
HETATM   29  C   UNL     1      -6.050  -2.853 -34.925  1.00  0.00     0.048 C 
HETATM   30  C   UNL     1      -5.381  -1.134 -33.222  1.00  0.00     0.007 A 
HETATM   31  C   UNL     1      -5.410   0.166 -32.710  1.00  0.00     0.016 A 
ENDBRANCH  23  25
ENDBRANCH   7  23
TORSDOF 7
ENDMDL
MODEL 10
REMARK VINA RESULT:      -8.5      1.689      9.158
REMARK  7 active torsions:
REMARK  status: ('A' for Active; 'I' for Inactive)
REMARK    1  A    between atoms: C_5  and  C_6 
REMARK    2  A    between atoms: C_6  and  C_7 
REMARK    3  A    between atoms: C_7  and  S_8 
REMARK    4  A    between atoms: S_8  and  C_9 
REMARK    5  A    between atoms: C_15  and  C_16 
REMARK    6  A    between atoms: C_16  and  C_17 
REMARK    7  A    between atoms: C_25  and  N_26 
ROOT
HETATM    1  C   UNL     1      -5.760   4.157 -31.309  1.00  0.00     0.116 A 
HETATM    2  N   UNL     1      -6.881   4.437 -30.626  1.00  0.00    -0.203 NA
HETATM    3  S   UNL     1      -7.555   2.988 -30.096  1.00  0.00     0.020 SA
HETATM    4  C   UNL     1      -6.377   2.027 -30.786  1.00  0.00     0.080 A 
HETATM    5  C   UNL     1      -5.467   2.783 -31.416  1.00  0.00     0.053 A 
HETATM    6  S   UNL     1      -6.078   0.395 -30.855  1.00  0.00    -0.074 SA
HETATM    7  C   UNL     1      -4.648   0.682 -31.817  1.00  0.00     0.084 A 
HETATM    8  C   UNL     1      -4.431   2.047 -32.019  1.00  0.00     0.062 A 
ENDROOT
BRANCH   1   9
HETATM    9  S   UNL     1      -4.815   5.466 -32.004  1.00  0.00    -0.101 SA
BRANCH   9  10
HETATM   10  C   UNL     1      -3.808   5.947 -30.574  1.00  0.00     0.164 C 
BRANCH  10  11
HETATM   11  C   UNL     1      -2.343   5.852 -30.938  1.00  0.00     0.169 C 
HETATM   12  O   UNL     1      -1.969   5.240 -31.939  1.00  0.00    -0.291 OA
BRANCH  11  13
HETATM   13  C   UNL     1      -1.322   6.497 -30.057  1.00  0.00     0.011 A 
HETATM   14  C   UNL     1      -0.173   5.830 -29.617  1.00  0.00     0.016 A 
HETATM   15  C   UNL     1       0.751   6.487 -28.798  1.00  0.00     0.007 A 
HETATM   16  C   UNL     1       0.543   7.816 -28.412  1.00  0.00    -0.062 A 
HETATM   17  C   UNL     1       1.519   8.517 -27.513  1.00  0.00     0.048 C 
HETATM   18  C   UNL     1      -0.617   8.474 -28.834  1.00  0.00     0.007 A 
HETATM   19  C   UNL     1      -1.542   7.820 -29.650  1.00  0.00     0.016 A 
ENDBRANCH  11  13
ENDBRANCH  10  11
ENDBRANCH   9  10
ENDBRANCH   1   9
BRANCH   8  20
HETATM   20  N   UNL     1      -3.379   2.578 -32.678  1.00  0.00    -0.397 N 
HETATM   21  H   UNL     1      -2.882   2.095 -33.423  1.00  0.00     0.156 HD
HETATM   22  H   UNL     1      -2.821   3.325 -32.261  1.00  0.00     0.156 HD
ENDBRANCH   8  20
BRANCH   7  23
HETATM   23  C   UNL     1      -3.893  -0.488 -32.239  1.00  0.00     0.201 C 
HETATM   24  O   UNL     1      -2.733  -0.700 -31.885  1.00  0.00    -0.286 OA
BRANCH  23  25
HETATM   25  C   UNL     1      -4.527  -1.503 -33.131  1.00  0.00     0.015 A 
HETATM   26  C   UNL     1      -5.738  -1.265 -33.794  1.00  0.00     0.016 A 
HETATM   27  C   UNL     1      -6.307  -2.255 -34.599  1.00  0.00     0.007 A 
HETATM   28  C   UNL     1      -5.687  -3.502 -34.738  1.00  0.00    -0.062 A 
HETATM   29  C   UNL     1      -6.291  -4.573 -35.600  1.00  0.00     0.048 C 
HETATM   30  C   UNL     1      -4.483  -3.744 -34.066  1.00  0.00     0.007 A 
HETATM   31  C   UNL     1      -3.910  -2.755 -33.264  1.00  0.00     0.016 A 
ENDBRANCH  23  25
ENDBRANCH   7  23
TORSDOF 7
ENDMDL
