MODEL 1
REMARK VINA RESULT:      -7.5      0.000      0.000
REMARK  9 active torsions:
REMARK  status: ('A' for Active; 'I' for Inactive)
REMARK    1  A    between atoms: C_2  and  C_3 
REMARK       I    between atoms: C_3  and  N_4 
REMARK    2  A    between atoms: N_4  and  N_5 
REMARK    3  A    between atoms: N_5  and  C_6 
REMARK    4  A    between atoms: C_6  and  N_7 
REMARK    5  A    between atoms: N_7  and  C_8 
REMARK    6  A    between atoms: C_18  and  N_19 
REMARK    7  A    between atoms: N_19  and  C_20 
REMARK    8  A    between atoms: C_20  and  N_21 
REMARK    9  A    between atoms: N_21  and  C_22 
ROOT
HETATM    1  C   UNL     1      -9.186   0.426 -32.117  1.00  0.00     0.019 A 
HETATM    2  C   UNL     1      -9.454   1.015 -33.356  1.00  0.00     0.033 A 
HETATM    3  C   UNL     1      -8.382   1.440 -34.151  1.00  0.00     0.019 A 
HETATM    4  C   UNL     1      -7.060   1.303 -33.705  1.00  0.00     0.030 A 
HETATM    5  C   UNL     1      -6.792   0.746 -32.455  1.00  0.00     0.033 A 
HETATM    6  C   UNL     1      -7.865   0.296 -31.675  1.00  0.00     0.030 A 
ENDROOT
BRANCH   2   7
HETATM    7  C   UNL     1     -10.841   1.174 -33.883  1.00  0.00     0.270 C 
HETATM    8  N   UNL     1     -11.871   0.944 -32.992  1.00  0.00    -0.264 N 
HETATM    9  H   UNL     1     -11.748   0.660 -32.027  1.00  0.00     0.190 HD
HETATM   10  O   UNL     1     -11.039   1.503 -35.049  1.00  0.00    -0.266 OA
BRANCH   8  11
HETATM   11  N   UNL     1     -13.186   0.927 -33.477  1.00  0.00    -0.274 N 
HETATM   12  H   UNL     1     -13.641   0.028 -33.364  1.00  0.00     0.189 HD
BRANCH  11  13
HETATM   13  C   UNL     1     -13.966   2.041 -33.384  1.00  0.00     0.186 C 
HETATM   14  S   UNL     1     -15.256   2.222 -32.328  1.00  0.00    -0.040 SA
BRANCH  13  15
HETATM   15  N   UNL     1     -13.639   3.105 -34.158  1.00  0.00    -0.361 N 
HETATM   16  H   UNL     1     -14.092   3.055 -35.064  1.00  0.00     0.162 HD
BRANCH  15  17
HETATM   17  C   UNL     1     -12.994   4.393 -33.867  1.00  0.00     0.083 C 
HETATM   18  C   UNL     1     -12.436   4.492 -32.440  1.00  0.00     0.025 C 
HETATM   19  C   UNL     1     -10.926   4.322 -32.320  1.00  0.00     0.002 C 
HETATM   20  C   UNL     1     -10.187   5.195 -33.321  1.00  0.00     0.000 C 
HETATM   21  C   UNL     1     -10.582   4.856 -34.750  1.00  0.00     0.002 C 
HETATM   22  C   UNL     1     -12.088   4.929 -34.986  1.00  0.00     0.025 C 
ENDBRANCH  15  17
ENDBRANCH  13  15
ENDBRANCH  11  13
ENDBRANCH   8  11
ENDBRANCH   2   7
BRANCH   5  23
HETATM   23  N   UNL     1      -5.505   0.519 -31.933  1.00  0.00    -0.338 N 
HETATM   24  H   UNL     1      -5.120   1.287 -31.405  1.00  0.00     0.168 HD
BRANCH  23  25
HETATM   25  C   UNL     1      -4.569  -0.448 -32.162  1.00  0.00     0.151 C 
HETATM   26  S   UNL     1      -2.983  -0.509 -31.650  1.00  0.00    -0.047 SA
BRANCH  25  27
HETATM   27  N   UNL     1      -5.062  -1.564 -32.802  1.00  0.00    -0.265 NA
HETATM   28  H   UNL     1      -4.713  -2.377 -32.305  1.00  0.00     0.130 HD
BRANCH  27  29
HETATM   29  C   UNL     1      -5.047  -1.790 -34.264  1.00  0.00     0.062 C 
HETATM   30  C   UNL     1      -4.106  -2.968 -34.580  1.00  0.00     0.020 C 
HETATM   31  C   UNL     1      -4.707  -4.316 -34.171  1.00  0.00     0.002 C 
HETATM   32  C   UNL     1      -6.078  -4.541 -34.801  1.00  0.00     0.000 C 
HETATM   33  C   UNL     1      -7.026  -3.377 -34.523  1.00  0.00     0.002 C 
HETATM   34  C   UNL     1      -6.403  -2.047 -34.943  1.00  0.00     0.020 C 
ENDBRANCH  27  29
ENDBRANCH  25  27
ENDBRANCH  23  25
ENDBRANCH   5  23
TORSDOF 9
ENDMDL
MODEL 2
REMARK VINA RESULT:      -7.5      5.568      8.144
REMARK  9 active torsions:
REMARK  status: ('A' for Active; 'I' for Inactive)
REMARK    1  A    between atoms: C_2  and  C_3 
REMARK       I    between atoms: C_3  and  N_4 
REMARK    2  A    between atoms: N_4  and  N_5 
REMARK    3  A    between atoms: N_5  and  C_6 
REMARK    4  A    between atoms: C_6  and  N_7 
REMARK    5  A    between atoms: N_7  and  C_8 
REMARK    6  A    between atoms: C_18  and  N_19 
REMARK    7  A    between atoms: N_19  and  C_20 
REMARK    8  A    between atoms: C_20  and  N_21 
REMARK    9  A    between atoms: N_21  and  C_22 
ROOT
HETATM    1  C   UNL     1      -4.725   3.573 -32.068  1.00  0.00     0.019 A 
HETATM    2  C   UNL     1      -5.181   4.892 -32.146  1.00  0.00     0.033 A 
HETATM    3  C   UNL     1      -6.173   5.212 -33.081  1.00  0.00     0.019 A 
HETATM    4  C   UNL     1      -6.685   4.235 -33.946  1.00  0.00     0.030 A 
HETATM    5  C   UNL     1      -6.207   2.926 -33.893  1.00  0.00     0.033 A 
HETATM    6  C   UNL     1      -5.236   2.603 -32.936  1.00  0.00     0.030 A 
ENDROOT
BRANCH   2   7
HETATM    7  C   UNL     1      -4.679   5.967 -31.242  1.00  0.00     0.270 C 
HETATM    8  N   UNL     1      -3.916   5.561 -30.164  1.00  0.00    -0.264 N 
HETATM    9  H   UNL     1      -3.699   4.597 -29.939  1.00  0.00     0.190 HD
HETATM   10  O   UNL     1      -4.929   7.148 -31.465  1.00  0.00    -0.266 OA
BRANCH   8  11
HETATM   11  N   UNL     1      -3.554   6.515 -29.202  1.00  0.00    -0.274 N 
HETATM   12  H   UNL     1      -4.071   6.422 -28.334  1.00  0.00     0.189 HD
BRANCH  11  13
HETATM   13  C   UNL     1      -2.267   6.954 -29.122  1.00  0.00     0.186 C 
HETATM   14  S   UNL     1      -1.752   8.250 -28.191  1.00  0.00    -0.040 SA
BRANCH  13  15
HETATM   15  N   UNL     1      -1.321   6.255 -29.796  1.00  0.00    -0.361 N 
HETATM   16  H   UNL     1      -1.207   5.323 -29.412  1.00  0.00     0.162 HD
BRANCH  15  17
HETATM   17  C   UNL     1      -0.640   6.474 -31.080  1.00  0.00     0.083 C 
HETATM   18  C   UNL     1      -0.508   5.203 -31.931  1.00  0.00     0.025 C 
HETATM   19  C   UNL     1      -1.494   5.090 -33.087  1.00  0.00     0.002 C 
HETATM   20  C   UNL     1      -1.535   6.367 -33.910  1.00  0.00     0.000 C 
HETATM   21  C   UNL     1      -1.947   7.560 -33.062  1.00  0.00     0.002 C 
HETATM   22  C   UNL     1      -1.068   7.746 -31.828  1.00  0.00     0.025 C 
ENDBRANCH  15  17
ENDBRANCH  13  15
ENDBRANCH  11  13
ENDBRANCH   8  11
ENDBRANCH   2   7
BRANCH   5  23
HETATM   23  N   UNL     1      -6.685   1.861 -34.679  1.00  0.00    -0.338 N 
HETATM   24  H   UNL     1      -6.324   1.833 -35.620  1.00  0.00     0.168 HD
BRANCH  23  25
HETATM   25  C   UNL     1      -7.701   0.965 -34.508  1.00  0.00     0.151 C 
HETATM   26  S   UNL     1      -9.312   1.259 -34.198  1.00  0.00    -0.047 SA
BRANCH  25  27
HETATM   27  N   UNL     1      -7.339  -0.343 -34.749  1.00  0.00    -0.265 NA
HETATM   28  H   UNL     1      -7.963  -0.702 -35.466  1.00  0.00     0.130 HD
BRANCH  27  29
HETATM   29  C   UNL     1      -7.078  -1.365 -33.713  1.00  0.00     0.062 C 
HETATM   30  C   UNL     1      -6.872  -2.730 -34.395  1.00  0.00     0.020 C 
HETATM   31  C   UNL     1      -5.523  -2.821 -35.114  1.00  0.00     0.002 C 
HETATM   32  C   UNL     1      -4.359  -2.507 -34.180  1.00  0.00     0.000 C 
HETATM   33  C   UNL     1      -4.548  -1.168 -33.471  1.00  0.00     0.002 C 
HETATM   34  C   UNL     1      -5.899  -1.106 -32.761  1.00  0.00     0.020 C 
ENDBRANCH  27  29
ENDBRANCH  25  27
ENDBRANCH  23  25
ENDBRANCH   5  23
TORSDOF 9
ENDMDL
MODEL 3
REMARK VINA RESULT:      -7.5      2.200      2.880
REMARK  9 active torsions:
REMARK  status: ('A' for Active; 'I' for Inactive)
REMARK    1  A    between atoms: C_2  and  C_3 
REMARK       I    between atoms: C_3  and  N_4 
REMARK    2  A    between atoms: N_4  and  N_5 
REMARK    3  A    between atoms: N_5  and  C_6 
REMARK    4  A    between atoms: C_6  and  N_7 
REMARK    5  A    between atoms: N_7  and  C_8 
REMARK    6  A    between atoms: C_18  and  N_19 
REMARK    7  A    between atoms: N_19  and  C_20 
REMARK    8  A    between atoms: C_20  and  N_21 
REMARK    9  A    between atoms: N_21  and  C_22 
ROOT
HETATM    1  C   UNL     1      -9.170   1.685 -31.402  1.00  0.00     0.019 A 
HETATM    2  C   UNL     1      -8.890   2.827 -30.646  1.00  0.00     0.033 A 
HETATM    3  C   UNL     1      -7.627   2.955 -30.055  1.00  0.00     0.019 A 
HETATM    4  C   UNL     1      -6.664   1.946 -30.194  1.00  0.00     0.030 A 
HETATM    5  C   UNL     1      -6.953   0.792 -30.919  1.00  0.00     0.033 A 
HETATM    6  C   UNL     1      -8.207   0.679 -31.534  1.00  0.00     0.030 A 
ENDROOT
BRANCH   2   7
HETATM    7  C   UNL     1      -9.874   3.935 -30.477  1.00  0.00     0.270 C 
HETATM    8  N   UNL     1     -11.166   3.571 -30.154  1.00  0.00    -0.264 N 
HETATM    9  H   UNL     1     -11.489   2.616 -30.049  1.00  0.00     0.190 HD
HETATM   10  O   UNL     1      -9.533   5.108 -30.610  1.00  0.00    -0.266 OA
BRANCH   8  11
HETATM   11  N   UNL     1     -12.158   4.562 -30.139  1.00  0.00    -0.274 N 
HETATM   12  H   UNL     1     -11.781   5.504 -30.139  1.00  0.00     0.189 HD
BRANCH  11  13
HETATM   13  C   UNL     1     -13.339   4.360 -30.787  1.00  0.00     0.186 C 
HETATM   14  S   UNL     1     -14.611   5.453 -30.826  1.00  0.00    -0.040 SA
BRANCH  13  15
HETATM   15  N   UNL     1     -13.476   3.217 -31.505  1.00  0.00    -0.361 N 
HETATM   16  H   UNL     1     -13.886   2.477 -30.946  1.00  0.00     0.162 HD
BRANCH  15  17
HETATM   17  C   UNL     1     -13.394   2.924 -32.943  1.00  0.00     0.083 C 
HETATM   18  C   UNL     1     -12.400   3.819 -33.696  1.00  0.00     0.025 C 
HETATM   19  C   UNL     1     -11.065   3.165 -34.035  1.00  0.00     0.002 C 
HETATM   20  C   UNL     1     -11.261   1.803 -34.680  1.00  0.00     0.000 C 
HETATM   21  C   UNL     1     -12.022   0.860 -33.761  1.00  0.00     0.002 C 
HETATM   22  C   UNL     1     -13.359   1.429 -33.296  1.00  0.00     0.025 C 
ENDBRANCH  15  17
ENDBRANCH  13  15
ENDBRANCH  11  13
ENDBRANCH   8  11
ENDBRANCH   2   7
BRANCH   5  23
HETATM   23  N   UNL     1      -6.046  -0.257 -31.161  1.00  0.00    -0.338 N 
HETATM   24  H   UNL     1      -6.058  -0.995 -30.473  1.00  0.00     0.168 HD
BRANCH  23  25
HETATM   25  C   UNL     1      -4.995  -0.396 -32.021  1.00  0.00     0.151 C 
HETATM   26  S   UNL     1      -3.671   0.596 -32.221  1.00  0.00    -0.047 SA
BRANCH  25  27
HETATM   27  N   UNL     1      -4.998  -1.584 -32.719  1.00  0.00    -0.265 NA
HETATM   28  H   UNL     1      -4.265  -2.167 -32.326  1.00  0.00     0.130 HD
BRANCH  27  29
HETATM   29  C   UNL     1      -5.045  -1.713 -34.192  1.00  0.00     0.062 C 
HETATM   30  C   UNL     1      -4.152  -2.893 -34.621  1.00  0.00     0.020 C 
HETATM   31  C   UNL     1      -4.777  -4.248 -34.277  1.00  0.00     0.002 C 
HETATM   32  C   UNL     1      -6.177  -4.393 -34.866  1.00  0.00     0.000 C 
HETATM   33  C   UNL     1      -7.078  -3.224 -34.475  1.00  0.00     0.002 C 
HETATM   34  C   UNL     1      -6.432  -1.887 -34.831  1.00  0.00     0.020 C 
ENDBRANCH  27  29
ENDBRANCH  25  27
ENDBRANCH  23  25
ENDBRANCH   5  23
TORSDOF 9
ENDMDL
MODEL 4
REMARK VINA RESULT:      -7.5      5.387      8.100
REMARK  9 active torsions:
REMARK  status: ('A' for Active; 'I' for Inactive)
REMARK    1  A    between atoms: C_2  and  C_3 
REMARK       I    between atoms: C_3  and  N_4 
REMARK    2  A    between atoms: N_4  and  N_5 
REMARK    3  A    between atoms: N_5  and  C_6 
REMARK    4  A    between atoms: C_6  and  N_7 
REMARK    5  A    between atoms: N_7  and  C_8 
REMARK    6  A    between atoms: C_18  and  N_19 
REMARK    7  A    between atoms: N_19  and  C_20 
REMARK    8  A    between atoms: C_20  and  N_21 
REMARK    9  A    between atoms: N_21  and  C_22 
ROOT
HETATM    1  C   UNL     1      -5.613   3.900 -29.747  1.00  0.00     0.019 A 
HETATM    2  C   UNL     1      -5.375   4.720 -30.854  1.00  0.00     0.033 A 
HETATM    3  C   UNL     1      -5.997   4.414 -32.070  1.00  0.00     0.019 A 
HETATM    4  C   UNL     1      -6.826   3.290 -32.189  1.00  0.00     0.030 A 
HETATM    5  C   UNL     1      -7.039   2.453 -31.095  1.00  0.00     0.033 A 
HETATM    6  C   UNL     1      -6.438   2.777 -29.872  1.00  0.00     0.030 A 
ENDROOT
BRANCH   2   7
HETATM    7  C   UNL     1      -4.512   5.935 -30.778  1.00  0.00     0.270 C 
HETATM    8  N   UNL     1      -3.556   5.952 -29.782  1.00  0.00    -0.264 N 
HETATM    9  H   UNL     1      -3.419   5.217 -29.098  1.00  0.00     0.190 HD
HETATM   10  O   UNL     1      -4.650   6.858 -31.576  1.00  0.00    -0.266 OA
BRANCH   8  11
HETATM   11  N   UNL     1      -2.828   7.132 -29.572  1.00  0.00    -0.274 N 
HETATM   12  H   UNL     1      -3.138   7.653 -28.758  1.00  0.00     0.189 HD
BRANCH  11  13
HETATM   13  C   UNL     1      -1.502   7.185 -29.881  1.00  0.00     0.186 C 
HETATM   14  S   UNL     1      -0.256   6.799 -28.828  1.00  0.00    -0.040 SA
BRANCH  13  15
HETATM   15  N   UNL     1      -1.165   7.514 -31.153  1.00  0.00    -0.361 N 
HETATM   16  H   UNL     1      -0.994   8.509 -31.244  1.00  0.00     0.162 HD
BRANCH  15  17
HETATM   17  C   UNL     1      -0.761   6.715 -32.319  1.00  0.00     0.083 C 
HETATM   18  C   UNL     1      -0.780   5.202 -32.063  1.00  0.00     0.025 C 
HETATM   19  C   UNL     1      -1.976   4.458 -32.645  1.00  0.00     0.002 C 
HETATM   20  C   UNL     1      -2.206   4.828 -34.101  1.00  0.00     0.000 C 
HETATM   21  C   UNL     1      -2.460   6.319 -34.260  1.00  0.00     0.002 C 
HETATM   22  C   UNL     1      -1.355   7.181 -33.657  1.00  0.00     0.025 C 
ENDBRANCH  15  17
ENDBRANCH  13  15
ENDBRANCH  11  13
ENDBRANCH   8  11
ENDBRANCH   2   7
BRANCH   5  23
HETATM   23  N   UNL     1      -7.887   1.330 -31.093  1.00  0.00    -0.338 N 
HETATM   24  H   UNL     1      -8.119   0.975 -30.177  1.00  0.00     0.168 HD
BRANCH  23  25
HETATM   25  C   UNL     1      -8.304   0.479 -32.076  1.00  0.00     0.151 C 
HETATM   26  S   UNL     1      -9.777   0.424 -32.855  1.00  0.00    -0.047 SA
BRANCH  25  27
HETATM   27  N   UNL     1      -7.314  -0.355 -32.550  1.00  0.00    -0.265 NA
HETATM   28  H   UNL     1      -6.732  -0.613 -31.759  1.00  0.00     0.130 HD
BRANCH  27  29
HETATM   29  C   UNL     1      -6.493  -0.112 -33.756  1.00  0.00     0.062 C 
HETATM   30  C   UNL     1      -5.004  -0.167 -33.368  1.00  0.00     0.020 C 
HETATM   31  C   UNL     1      -4.531  -1.595 -33.084  1.00  0.00     0.002 C 
HETATM   32  C   UNL     1      -4.815  -2.531 -34.255  1.00  0.00     0.000 C 
HETATM   33  C   UNL     1      -6.281  -2.480 -34.676  1.00  0.00     0.002 C 
HETATM   34  C   UNL     1      -6.725  -1.046 -34.956  1.00  0.00     0.020 C 
ENDBRANCH  27  29
ENDBRANCH  25  27
ENDBRANCH  23  25
ENDBRANCH   5  23
TORSDOF 9
ENDMDL
MODEL 5
REMARK VINA RESULT:      -7.4      1.495      2.060
REMARK  9 active torsions:
REMARK  status: ('A' for Active; 'I' for Inactive)
REMARK    1  A    between atoms: C_2  and  C_3 
REMARK       I    between atoms: C_3  and  N_4 
REMARK    2  A    between atoms: N_4  and  N_5 
REMARK    3  A    between atoms: N_5  and  C_6 
REMARK    4  A    between atoms: C_6  and  N_7 
REMARK    5  A    between atoms: N_7  and  C_8 
REMARK    6  A    between atoms: C_18  and  N_19 
REMARK    7  A    between atoms: N_19  and  C_20 
REMARK    8  A    between atoms: C_20  and  N_21 
REMARK    9  A    between atoms: N_21  and  C_22 
ROOT
HETATM    1  C   UNL     1     -10.244   1.977 -34.406  1.00  0.00     0.019 A 
HETATM    2  C   UNL     1     -11.206   1.153 -33.814  1.00  0.00     0.033 A 
HETATM    3  C   UNL     1     -10.783   0.081 -33.019  1.00  0.00     0.019 A 
HETATM    4  C   UNL     1      -9.418  -0.183 -32.836  1.00  0.00     0.030 A 
HETATM    5  C   UNL     1      -8.458   0.617 -33.453  1.00  0.00     0.033 A 
HETATM    6  C   UNL     1      -8.883   1.706 -34.224  1.00  0.00     0.030 A 
ENDROOT
BRANCH   2   7
HETATM    7  C   UNL     1     -12.669   1.397 -33.966  1.00  0.00     0.270 C 
HETATM    8  N   UNL     1     -13.429   1.336 -32.814  1.00  0.00    -0.264 N 
HETATM    9  H   UNL     1     -13.066   1.118 -31.893  1.00  0.00     0.190 HD
HETATM   10  O   UNL     1     -13.157   1.651 -35.064  1.00  0.00    -0.266 OA
BRANCH   8  11
HETATM   11  N   UNL     1     -14.825   1.402 -32.926  1.00  0.00    -0.274 N 
HETATM   12  H   UNL     1     -15.259   0.494 -33.045  1.00  0.00     0.189 HD
BRANCH  11  13
HETATM   13  C   UNL     1     -15.524   2.346 -32.236  1.00  0.00     0.186 C 
HETATM   14  S   UNL     1     -17.171   2.624 -32.393  1.00  0.00    -0.040 SA
BRANCH  13  15
HETATM   15  N   UNL     1     -14.854   3.075 -31.310  1.00  0.00    -0.361 N 
HETATM   16  H   UNL     1     -14.715   2.546 -30.455  1.00  0.00     0.162 HD
BRANCH  15  17
HETATM   17  C   UNL     1     -14.091   4.329 -31.384  1.00  0.00     0.083 C 
HETATM   18  C   UNL     1     -12.765   4.288 -30.612  1.00  0.00     0.025 C 
HETATM   19  C   UNL     1     -11.519   4.108 -31.471  1.00  0.00     0.002 C 
HETATM   20  C   UNL     1     -11.507   5.076 -32.642  1.00  0.00     0.000 C 
HETATM   21  C   UNL     1     -12.721   4.878 -33.536  1.00  0.00     0.002 C 
HETATM   22  C   UNL     1     -14.042   4.973 -32.778  1.00  0.00     0.025 C 
ENDBRANCH  15  17
ENDBRANCH  13  15
ENDBRANCH  11  13
ENDBRANCH   8  11
ENDBRANCH   2   7
BRANCH   5  23
HETATM   23  N   UNL     1      -7.067   0.471 -33.298  1.00  0.00    -0.338 N 
HETATM   24  H   UNL     1      -6.515   0.812 -34.072  1.00  0.00     0.168 HD
BRANCH  23  25
HETATM   25  C   UNL     1      -6.301  -0.228 -32.410  1.00  0.00     0.151 C 
HETATM   26  S   UNL     1      -6.105   0.023 -30.774  1.00  0.00    -0.047 SA
BRANCH  25  27
HETATM   27  N   UNL     1      -5.717  -1.357 -32.943  1.00  0.00    -0.265 NA
HETATM   28  H   UNL     1      -4.822  -1.483 -32.480  1.00  0.00     0.130 HD
BRANCH  27  29
HETATM   29  C   UNL     1      -5.617  -1.671 -34.385  1.00  0.00     0.062 C 
HETATM   30  C   UNL     1      -4.332  -2.485 -34.633  1.00  0.00     0.020 C 
HETATM   31  C   UNL     1      -4.449  -3.922 -34.120  1.00  0.00     0.002 C 
HETATM   32  C   UNL     1      -5.660  -4.639 -34.708  1.00  0.00     0.000 C 
HETATM   33  C   UNL     1      -6.945  -3.844 -34.497  1.00  0.00     0.002 C 
HETATM   34  C   UNL     1      -6.803  -2.416 -35.020  1.00  0.00     0.020 C 
ENDBRANCH  27  29
ENDBRANCH  25  27
ENDBRANCH  23  25
ENDBRANCH   5  23
TORSDOF 9
ENDMDL
MODEL 6
REMARK VINA RESULT:      -7.3      5.294      8.192
REMARK  9 active torsions:
REMARK  status: ('A' for Active; 'I' for Inactive)
REMARK    1  A    between atoms: C_2  and  C_3 
REMARK       I    between atoms: C_3  and  N_4 
REMARK    2  A    between atoms: N_4  and  N_5 
REMARK    3  A    between atoms: N_5  and  C_6 
REMARK    4  A    between atoms: C_6  and  N_7 
REMARK    5  A    between atoms: N_7  and  C_8 
REMARK    6  A    between atoms: C_18  and  N_19 
REMARK    7  A    between atoms: N_19  and  C_20 
REMARK    8  A    between atoms: C_20  and  N_21 
REMARK    9  A    between atoms: N_21  and  C_22 
ROOT
HETATM    1  C   UNL     1      -5.198   2.635 -30.669  1.00  0.00     0.019 A 
HETATM    2  C   UNL     1      -4.459   1.810 -31.521  1.00  0.00     0.033 A 
HETATM    3  C   UNL     1      -3.421   2.371 -32.276  1.00  0.00     0.019 A 
HETATM    4  C   UNL     1      -3.140   3.742 -32.201  1.00  0.00     0.030 A 
HETATM    5  C   UNL     1      -3.897   4.573 -31.377  1.00  0.00     0.033 A 
HETATM    6  C   UNL     1      -4.916   4.004 -30.601  1.00  0.00     0.030 A 
ENDROOT
BRANCH   2   7
HETATM    7  C   UNL     1      -4.709   0.344 -31.629  1.00  0.00     0.270 C 
HETATM    8  N   UNL     1      -4.111  -0.309 -32.689  1.00  0.00    -0.264 N 
HETATM    9  H   UNL     1      -3.542   0.139 -33.398  1.00  0.00     0.190 HD
HETATM   10  O   UNL     1      -5.404  -0.241 -30.802  1.00  0.00    -0.266 OA
BRANCH   8  11
HETATM   11  N   UNL     1      -4.441  -1.652 -32.922  1.00  0.00    -0.274 N 
HETATM   12  H   UNL     1      -4.309  -2.242 -32.108  1.00  0.00     0.189 HD
BRANCH  11  13
HETATM   13  C   UNL     1      -5.459  -1.971 -33.770  1.00  0.00     0.186 C 
HETATM   14  S   UNL     1      -5.304  -2.930 -35.137  1.00  0.00    -0.040 SA
BRANCH  13  15
HETATM   15  N   UNL     1      -6.702  -1.532 -33.453  1.00  0.00    -0.361 N 
HETATM   16  H   UNL     1      -6.992  -1.870 -32.541  1.00  0.00     0.162 HD
BRANCH  15  17
HETATM   17  C   UNL     1      -7.573  -0.497 -34.025  1.00  0.00     0.083 C 
HETATM   18  C   UNL     1      -8.573   0.091 -33.020  1.00  0.00     0.025 C 
HETATM   19  C   UNL     1      -8.210   1.463 -32.467  1.00  0.00     0.002 C 
HETATM   20  C   UNL     1      -7.834   2.428 -33.579  1.00  0.00     0.000 C 
HETATM   21  C   UNL     1      -6.645   1.918 -34.378  1.00  0.00     0.002 C 
HETATM   22  C   UNL     1      -6.861   0.514 -34.938  1.00  0.00     0.025 C 
ENDBRANCH  15  17
ENDBRANCH  13  15
ENDBRANCH  11  13
ENDBRANCH   8  11
ENDBRANCH   2   7
BRANCH   5  23
HETATM   23  N   UNL     1      -3.669   5.949 -31.191  1.00  0.00    -0.338 N 
HETATM   24  H   UNL     1      -3.550   6.478 -32.042  1.00  0.00     0.168 HD
BRANCH  23  25
HETATM   25  C   UNL     1      -3.364   6.699 -30.092  1.00  0.00     0.151 C 
HETATM   26  S   UNL     1      -4.316   7.805 -29.285  1.00  0.00    -0.047 SA
BRANCH  25  27
HETATM   27  N   UNL     1      -2.146   6.392 -29.526  1.00  0.00    -0.265 NA
HETATM   28  H   UNL     1      -2.287   6.321 -28.523  1.00  0.00     0.130 HD
BRANCH  27  29
HETATM   29  C   UNL     1      -0.864   7.063 -29.835  1.00  0.00     0.062 C 
HETATM   30  C   UNL     1       0.236   6.487 -28.923  1.00  0.00     0.020 C 
HETATM   31  C   UNL     1       0.645   5.069 -29.333  1.00  0.00     0.002 C 
HETATM   32  C   UNL     1       1.070   5.002 -30.797  1.00  0.00     0.000 C 
HETATM   33  C   UNL     1       0.008   5.588 -31.722  1.00  0.00     0.002 C 
HETATM   34  C   UNL     1      -0.379   7.001 -31.292  1.00  0.00     0.020 C 
ENDBRANCH  27  29
ENDBRANCH  25  27
ENDBRANCH  23  25
ENDBRANCH   5  23
TORSDOF 9
ENDMDL
MODEL 7
REMARK VINA RESULT:      -7.2      6.532      9.300
REMARK  9 active torsions:
REMARK  status: ('A' for Active; 'I' for Inactive)
REMARK    1  A    between atoms: C_2  and  C_3 
REMARK       I    between atoms: C_3  and  N_4 
REMARK    2  A    between atoms: N_4  and  N_5 
REMARK    3  A    between atoms: N_5  and  C_6 
REMARK    4  A    between atoms: C_6  and  N_7 
REMARK    5  A    between atoms: N_7  and  C_8 
REMARK    6  A    between atoms: C_18  and  N_19 
REMARK    7  A    between atoms: N_19  and  C_20 
REMARK    8  A    between atoms: C_20  and  N_21 
REMARK    9  A    between atoms: N_21  and  C_22 
ROOT
HETATM    1  C   UNL     1      -4.757   3.749 -32.691  1.00  0.00     0.019 A 
HETATM    2  C   UNL     1      -3.588   3.482 -31.973  1.00  0.00     0.033 A 
HETATM    3  C   UNL     1      -3.578   2.413 -31.068  1.00  0.00     0.019 A 
HETATM    4  C   UNL     1      -4.727   1.636 -30.863  1.00  0.00     0.030 A 
HETATM    5  C   UNL     1      -5.903   1.922 -31.554  1.00  0.00     0.033 A 
HETATM    6  C   UNL     1      -5.902   2.974 -32.479  1.00  0.00     0.030 A 
ENDROOT
BRANCH   2   7
HETATM    7  C   UNL     1      -2.336   4.269 -32.163  1.00  0.00     0.270 C 
HETATM    8  N   UNL     1      -1.653   4.630 -31.018  1.00  0.00    -0.264 N 
HETATM    9  H   UNL     1      -1.954   4.418 -30.073  1.00  0.00     0.190 HD
HETATM   10  O   UNL     1      -1.938   4.563 -33.287  1.00  0.00    -0.266 OA
BRANCH   8  11
HETATM   11  N   UNL     1      -0.560   5.500 -31.135  1.00  0.00    -0.274 N 
HETATM   12  H   UNL     1      -0.057   5.394 -32.010  1.00  0.00     0.189 HD
BRANCH  11  13
HETATM   13  C   UNL     1      -0.615   6.749 -30.592  1.00  0.00     0.186 C 
HETATM   14  S   UNL     1      -1.939   7.775 -30.680  1.00  0.00    -0.040 SA
BRANCH  13  15
HETATM   15  N   UNL     1       0.455   7.171 -29.874  1.00  0.00    -0.361 N 
HETATM   16  H   UNL     1       1.025   7.818 -30.408  1.00  0.00     0.162 HD
BRANCH  15  17
HETATM   17  C   UNL     1       0.800   7.085 -28.448  1.00  0.00     0.083 C 
HETATM   18  C   UNL     1       1.395   8.382 -27.881  1.00  0.00     0.025 C 
HETATM   19  C   UNL     1       0.438   9.225 -27.047  1.00  0.00     0.002 C 
HETATM   20  C   UNL     1      -0.281   8.384 -26.005  1.00  0.00     0.000 C 
HETATM   21  C   UNL     1      -1.087   7.269 -26.654  1.00  0.00     0.002 C 
HETATM   22  C   UNL     1      -0.249   6.383 -27.572  1.00  0.00     0.025 C 
ENDBRANCH  15  17
ENDBRANCH  13  15
ENDBRANCH  11  13
ENDBRANCH   8  11
ENDBRANCH   2   7
BRANCH   5  23
HETATM   23  N   UNL     1      -7.095   1.179 -31.459  1.00  0.00    -0.338 N 
HETATM   24  H   UNL     1      -7.534   1.195 -30.550  1.00  0.00     0.168 HD
BRANCH  23  25
HETATM   25  C   UNL     1      -7.684   0.261 -32.280  1.00  0.00     0.151 C 
HETATM   26  S   UNL     1      -9.230   0.257 -32.904  1.00  0.00    -0.047 SA
BRANCH  25  27
HETATM   27  N   UNL     1      -6.825  -0.716 -32.733  1.00  0.00    -0.265 NA
HETATM   28  H   UNL     1      -6.220  -0.971 -31.958  1.00  0.00     0.130 HD
BRANCH  27  29
HETATM   29  C   UNL     1      -6.067  -0.670 -34.003  1.00  0.00     0.062 C 
HETATM   30  C   UNL     1      -4.564  -0.807 -33.695  1.00  0.00     0.020 C 
HETATM   31  C   UNL     1      -4.184  -2.232 -33.283  1.00  0.00     0.002 C 
HETATM   32  C   UNL     1      -4.614  -3.259 -34.326  1.00  0.00     0.000 C 
HETATM   33  C   UNL     1      -6.096  -3.131 -34.668  1.00  0.00     0.002 C 
HETATM   34  C   UNL     1      -6.446  -1.702 -35.078  1.00  0.00     0.020 C 
ENDBRANCH  27  29
ENDBRANCH  25  27
ENDBRANCH  23  25
ENDBRANCH   5  23
TORSDOF 9
ENDMDL
MODEL 8
REMARK VINA RESULT:      -7.0      5.214      7.845
REMARK  9 active torsions:
REMARK  status: ('A' for Active; 'I' for Inactive)
REMARK    1  A    between atoms: C_2  and  C_3 
REMARK       I    between atoms: C_3  and  N_4 
REMARK    2  A    between atoms: N_4  and  N_5 
REMARK    3  A    between atoms: N_5  and  C_6 
REMARK    4  A    between atoms: C_6  and  N_7 
REMARK    5  A    between atoms: N_7  and  C_8 
REMARK    6  A    between atoms: C_18  and  N_19 
REMARK    7  A    between atoms: N_19  and  C_20 
REMARK    8  A    between atoms: C_20  and  N_21 
REMARK    9  A    between atoms: N_21  and  C_22 
ROOT
HETATM    1  C   UNL     1      -4.652   3.034 -31.320  1.00  0.00     0.019 A 
HETATM    2  C   UNL     1      -5.474   3.831 -30.519  1.00  0.00     0.033 A 
HETATM    3  C   UNL     1      -6.735   3.348 -30.150  1.00  0.00     0.019 A 
HETATM    4  C   UNL     1      -7.183   2.097 -30.597  1.00  0.00     0.030 A 
HETATM    5  C   UNL     1      -6.378   1.315 -31.423  1.00  0.00     0.033 A 
HETATM    6  C   UNL     1      -5.105   1.788 -31.766  1.00  0.00     0.030 A 
ENDROOT
BRANCH   2   7
HETATM    7  C   UNL     1      -5.041   5.164 -30.006  1.00  0.00     0.270 C 
HETATM    8  N   UNL     1      -3.702   5.473 -30.142  1.00  0.00    -0.264 N 
HETATM    9  H   UNL     1      -3.003   4.856 -30.540  1.00  0.00     0.190 HD
HETATM   10  O   UNL     1      -5.849   5.940 -29.503  1.00  0.00    -0.266 OA
BRANCH   8  11
HETATM   11  N   UNL     1      -3.220   6.643 -29.538  1.00  0.00    -0.274 N 
HETATM   12  H   UNL     1      -3.670   6.850 -28.653  1.00  0.00     0.189 HD
BRANCH  11  13
HETATM   13  C   UNL     1      -1.910   6.994 -29.672  1.00  0.00     0.186 C 
HETATM   14  S   UNL     1      -0.721   6.715 -28.522  1.00  0.00    -0.040 SA
BRANCH  13  15
HETATM   15  N   UNL     1      -1.525   7.554 -30.845  1.00  0.00    -0.361 N 
HETATM   16  H   UNL     1      -1.475   8.565 -30.772  1.00  0.00     0.162 HD
BRANCH  15  17
HETATM   17  C   UNL     1      -0.938   7.000 -32.073  1.00  0.00     0.083 C 
HETATM   18  C   UNL     1      -0.653   5.493 -31.992  1.00  0.00     0.025 C 
HETATM   19  C   UNL     1      -1.658   4.603 -32.712  1.00  0.00     0.002 C 
HETATM   20  C   UNL     1      -1.923   5.093 -34.126  1.00  0.00     0.000 C 
HETATM   21  C   UNL     1      -2.472   6.511 -34.127  1.00  0.00     0.002 C 
HETATM   22  C   UNL     1      -1.581   7.497 -33.377  1.00  0.00     0.025 C 
ENDBRANCH  15  17
ENDBRANCH  13  15
ENDBRANCH  11  13
ENDBRANCH   8  11
ENDBRANCH   2   7
BRANCH   5  23
HETATM   23  N   UNL     1      -6.710   0.028 -31.887  1.00  0.00    -0.338 N 
HETATM   24  H   UNL     1      -6.561  -0.715 -31.220  1.00  0.00     0.168 HD
BRANCH  23  25
HETATM   25  C   UNL     1      -6.997  -0.466 -33.127  1.00  0.00     0.151 C 
HETATM   26  S   UNL     1      -7.794   0.276 -34.389  1.00  0.00    -0.047 SA
BRANCH  25  27
HETATM   27  N   UNL     1      -6.436  -1.699 -33.380  1.00  0.00    -0.265 NA
HETATM   28  H   UNL     1      -5.789  -1.899 -32.623  1.00  0.00     0.130 HD
BRANCH  27  29
HETATM   29  C   UNL     1      -5.883  -2.139 -34.680  1.00  0.00     0.062 C 
HETATM   30  C   UNL     1      -4.383  -2.446 -34.508  1.00  0.00     0.020 C 
HETATM   31  C   UNL     1      -4.143  -3.746 -33.735  1.00  0.00     0.002 C 
HETATM   32  C   UNL     1      -4.863  -4.929 -34.373  1.00  0.00     0.000 C 
HETATM   33  C   UNL     1      -6.349  -4.643 -34.576  1.00  0.00     0.002 C 
HETATM   34  C   UNL     1      -6.560  -3.345 -35.352  1.00  0.00     0.020 C 
ENDBRANCH  27  29
ENDBRANCH  25  27
ENDBRANCH  23  25
ENDBRANCH   5  23
TORSDOF 9
ENDMDL
MODEL 9
REMARK VINA RESULT:      -7.0      2.215      2.916
REMARK  9 active torsions:
REMARK  status: ('A' for Active; 'I' for Inactive)
REMARK    1  A    between atoms: C_2  and  C_3 
REMARK       I    between atoms: C_3  and  N_4 
REMARK    2  A    between atoms: N_4  and  N_5 
REMARK    3  A    between atoms: N_5  and  C_6 
REMARK    4  A    between atoms: C_6  and  N_7 
REMARK    5  A    between atoms: N_7  and  C_8 
REMARK    6  A    between atoms: C_18  and  N_19 
REMARK    7  A    between atoms: N_19  and  C_20 
REMARK    8  A    between atoms: C_20  and  N_21 
REMARK    9  A    between atoms: N_21  and  C_22 
ROOT
HETATM    1  C   UNL     1      -9.615   2.720 -33.241  1.00  0.00     0.019 A 
HETATM    2  C   UNL     1     -10.661   1.962 -33.772  1.00  0.00     0.033 A 
HETATM    3  C   UNL     1     -10.790   0.622 -33.388  1.00  0.00     0.019 A 
HETATM    4  C   UNL     1      -9.871   0.037 -32.505  1.00  0.00     0.030 A 
HETATM    5  C   UNL     1      -8.807   0.782 -32.001  1.00  0.00     0.033 A 
HETATM    6  C   UNL     1      -8.697   2.131 -32.364  1.00  0.00     0.030 A 
ENDROOT
BRANCH   2   7
HETATM    7  C   UNL     1     -11.673   2.538 -34.704  1.00  0.00     0.270 C 
HETATM    8  N   UNL     1     -11.490   3.855 -35.079  1.00  0.00    -0.264 N 
HETATM    9  H   UNL     1     -10.738   4.450 -34.750  1.00  0.00     0.190 HD
HETATM   10  O   UNL     1     -12.609   1.859 -35.118  1.00  0.00    -0.266 OA
BRANCH   8  11
HETATM   11  N   UNL     1     -12.495   4.485 -35.826  1.00  0.00    -0.274 N 
HETATM   12  H   UNL     1     -13.203   3.843 -36.164  1.00  0.00     0.189 HD
BRANCH  11  13
HETATM   13  C   UNL     1     -12.894   5.749 -35.508  1.00  0.00     0.186 C 
HETATM   14  S   UNL     1     -13.881   6.711 -36.464  1.00  0.00    -0.040 SA
BRANCH  13  15
HETATM   15  N   UNL     1     -12.518   6.244 -34.303  1.00  0.00    -0.361 N 
HETATM   16  H   UNL     1     -11.814   6.966 -34.405  1.00  0.00     0.162 HD
BRANCH  15  17
HETATM   17  C   UNL     1     -13.090   6.132 -32.954  1.00  0.00     0.083 C 
HETATM   18  C   UNL     1     -14.425   5.376 -32.913  1.00  0.00     0.025 C 
HETATM   19  C   UNL     1     -14.343   3.939 -32.413  1.00  0.00     0.002 C 
HETATM   20  C   UNL     1     -13.555   3.845 -31.116  1.00  0.00     0.000 C 
HETATM   21  C   UNL     1     -12.135   4.359 -31.293  1.00  0.00     0.002 C 
HETATM   22  C   UNL     1     -12.079   5.778 -31.852  1.00  0.00     0.025 C 
ENDBRANCH  15  17
ENDBRANCH  13  15
ENDBRANCH  11  13
ENDBRANCH   8  11
ENDBRANCH   2   7
BRANCH   5  23
HETATM   23  N   UNL     1      -7.859   0.309 -31.074  1.00  0.00    -0.338 N 
HETATM   24  H   UNL     1      -8.208   0.185 -30.135  1.00  0.00     0.168 HD
BRANCH  23  25
HETATM   25  C   UNL     1      -6.501   0.177 -31.122  1.00  0.00     0.151 C 
HETATM   26  S   UNL     1      -5.349   0.858 -30.128  1.00  0.00    -0.047 SA
BRANCH  25  27
HETATM   27  N   UNL     1      -6.062  -0.743 -32.049  1.00  0.00    -0.265 NA
HETATM   28  H   UNL     1      -5.383  -1.341 -31.585  1.00  0.00     0.130 HD
BRANCH  27  29
HETATM   29  C   UNL     1      -5.635  -0.431 -33.430  1.00  0.00     0.062 C 
HETATM   30  C   UNL     1      -4.274  -1.101 -33.698  1.00  0.00     0.020 C 
HETATM   31  C   UNL     1      -4.396  -2.618 -33.861  1.00  0.00     0.002 C 
HETATM   32  C   UNL     1      -5.401  -2.994 -34.945  1.00  0.00     0.000 C 
HETATM   33  C   UNL     1      -6.754  -2.325 -34.717  1.00  0.00     0.002 C 
HETATM   34  C   UNL     1      -6.603  -0.814 -34.562  1.00  0.00     0.020 C 
ENDBRANCH  27  29
ENDBRANCH  25  27
ENDBRANCH  23  25
ENDBRANCH   5  23
TORSDOF 9
ENDMDL
MODEL 10
REMARK VINA RESULT:      -6.9      6.750     10.085
REMARK  9 active torsions:
REMARK  status: ('A' for Active; 'I' for Inactive)
REMARK    1  A    between atoms: C_2  and  C_3 
REMARK       I    between atoms: C_3  and  N_4 
REMARK    2  A    between atoms: N_4  and  N_5 
REMARK    3  A    between atoms: N_5  and  C_6 
REMARK    4  A    between atoms: C_6  and  N_7 
REMARK    5  A    between atoms: N_7  and  C_8 
REMARK    6  A    between atoms: C_18  and  N_19 
REMARK    7  A    between atoms: N_19  and  C_20 
REMARK    8  A    between atoms: C_20  and  N_21 
REMARK    9  A    between atoms: N_21  and  C_22 
ROOT
HETATM    1  C   UNL     1      -4.364   5.307 -31.594  1.00  0.00     0.019 A 
HETATM    2  C   UNL     1      -3.999   4.424 -32.614  1.00  0.00     0.033 A 
HETATM    3  C   UNL     1      -2.722   4.533 -33.180  1.00  0.00     0.019 A 
HETATM    4  C   UNL     1      -1.831   5.528 -32.753  1.00  0.00     0.030 A 
HETATM    5  C   UNL     1      -2.206   6.431 -31.760  1.00  0.00     0.033 A 
HETATM    6  C   UNL     1      -3.472   6.301 -31.175  1.00  0.00     0.030 A 
ENDROOT
BRANCH   2   7
HETATM    7  C   UNL     1      -4.904   3.341 -33.097  1.00  0.00     0.270 C 
HETATM    8  N   UNL     1      -4.814   2.126 -32.447  1.00  0.00    -0.264 N 
HETATM    9  H   UNL     1      -4.170   1.919 -31.692  1.00  0.00     0.190 HD
HETATM   10  O   UNL     1      -5.691   3.540 -34.018  1.00  0.00    -0.266 OA
BRANCH   8  11
HETATM   11  N   UNL     1      -5.529   1.036 -32.963  1.00  0.00    -0.274 N 
HETATM   12  H   UNL     1      -5.252   0.788 -33.907  1.00  0.00     0.189 HD
BRANCH  11  13
HETATM   13  C   UNL     1      -5.926   0.025 -32.141  1.00  0.00     0.186 C 
HETATM   14  S   UNL     1      -6.298   0.201 -30.515  1.00  0.00    -0.040 SA
BRANCH  13  15
HETATM   15  N   UNL     1      -6.094  -1.204 -32.690  1.00  0.00    -0.361 N 
HETATM   16  H   UNL     1      -6.689  -1.788 -32.112  1.00  0.00     0.162 HD
BRANCH  15  17
HETATM   17  C   UNL     1      -5.811  -1.750 -34.024  1.00  0.00     0.083 C 
HETATM   18  C   UNL     1      -4.435  -2.423 -34.134  1.00  0.00     0.025 C 
HETATM   19  C   UNL     1      -4.453  -3.946 -34.106  1.00  0.00     0.002 C 
HETATM   20  C   UNL     1      -5.480  -4.509 -35.074  1.00  0.00     0.000 C 
HETATM   21  C   UNL     1      -6.881  -4.021 -34.741  1.00  0.00     0.002 C 
HETATM   22  C   UNL     1      -6.983  -2.499 -34.676  1.00  0.00     0.025 C 
ENDBRANCH  15  17
ENDBRANCH  13  15
ENDBRANCH  11  13
ENDBRANCH   8  11
ENDBRANCH   2   7
BRANCH   5  23
HETATM   23  N   UNL     1      -1.374   7.432 -31.225  1.00  0.00    -0.338 N 
HETATM   24  H   UNL     1      -0.393   7.326 -31.436  1.00  0.00     0.168 HD
BRANCH  23  25
HETATM   25  C   UNL     1      -1.582   8.414 -30.300  1.00  0.00     0.151 C 
HETATM   26  S   UNL     1      -2.598   9.733 -30.385  1.00  0.00    -0.047 SA
BRANCH  25  27
HETATM   27  N   UNL     1      -0.942   8.195 -29.099  1.00  0.00    -0.265 NA
HETATM   28  H   UNL     1      -0.921   9.080 -28.601  1.00  0.00     0.130 HD
BRANCH  27  29
HETATM   29  C   UNL     1       0.329   7.459 -28.927  1.00  0.00     0.062 C 
HETATM   30  C   UNL     1       1.391   8.419 -28.358  1.00  0.00     0.020 C 
HETATM   31  C   UNL     1       1.145   8.748 -26.884  1.00  0.00     0.002 C 
HETATM   32  C   UNL     1       1.049   7.488 -26.029  1.00  0.00     0.000 C 
HETATM   33  C   UNL     1       0.019   6.508 -26.582  1.00  0.00     0.002 C 
HETATM   34  C   UNL     1       0.289   6.195 -28.052  1.00  0.00     0.020 C 
ENDBRANCH  27  29
ENDBRANCH  25  27
ENDBRANCH  23  25
ENDBRANCH   5  23
TORSDOF 9
ENDMDL
