MODEL 1
REMARK VINA RESULT:      -7.5      0.000      0.000
REMARK  5 active torsions:
REMARK  status: ('A' for Active; 'I' for Inactive)
REMARK    1  A    between atoms: C_2  and  O_3 
REMARK    2  A    between atoms: O_3  and  C_4 
REMARK    3  A    between atoms: C_6  and  C_7 
REMARK    4  A    between atoms: C_11  and  N_12 
REMARK       I    between atoms: N_12  and  C_13 
REMARK       I    between atoms: C_13  and  N_14 
REMARK    5  A    between atoms: N_14  and  C_15 
ROOT
HETATM    1  N   UNL     1      -6.175   0.676 -31.435  1.00  0.00    -0.308 N 
HETATM    2  C   UNL     1      -6.180   2.045 -31.583  1.00  0.00     0.325 C 
HETATM    3  N   UNL     1      -5.773   2.532 -32.795  1.00  0.00    -0.305 N 
HETATM    4  O   UNL     1      -6.467   2.716 -30.596  1.00  0.00    -0.247 OA
HETATM    5  H   UNL     1      -6.166   0.433 -30.448  1.00  0.00     0.170 HD
HETATM    6  H   UNL     1      -5.640   1.877 -33.543  1.00  0.00     0.171 HD
ENDROOT
BRANCH   1   7
HETATM    7  C   UNL     1      -5.967  -0.347 -32.379  1.00  0.00     0.051 C 
HETATM    8  C   UNL     1      -4.672  -0.849 -32.599  1.00  0.00     0.077 C 
HETATM    9  C   UNL     1      -4.467  -1.777 -33.640  1.00  0.00     0.055 C 
HETATM   10  C   UNL     1      -5.535  -2.224 -34.413  1.00  0.00     0.069 C 
HETATM   11  C   UNL     1      -6.830  -1.835 -34.097  1.00  0.00     0.039 C 
HETATM   12  C   UNL     1      -7.046  -0.902 -33.083  1.00  0.00     0.033 C 
BRANCH   8  13
HETATM   13  C   UNL     1      -3.474  -0.347 -31.835  1.00  0.00     0.419 C 
HETATM   14  F   UNL     1      -3.685  -0.273 -30.491  1.00  0.00    -0.166 F 
HETATM   15  F   UNL     1      -2.386  -1.149 -31.996  1.00  0.00    -0.166 F 
HETATM   16  F   UNL     1      -3.080   0.901 -32.215  1.00  0.00    -0.166 F 
ENDBRANCH   8  13
BRANCH  10  17
HETATM   17  O   UNL     1      -5.395  -3.073 -35.473  1.00  0.00    -0.351 OA
BRANCH  17  18
HETATM   18  C   UNL     1      -5.974  -4.364 -35.247  1.00  0.00     0.171 C 
HETATM   19  C   UNL     1      -4.979  -5.192 -34.454  1.00  0.00     0.034 C 
ENDBRANCH  17  18
ENDBRANCH  10  17
ENDBRANCH   1   7
BRANCH   3  20
HETATM   20  C   UNL     1      -5.511   3.848 -33.131  1.00  0.00     0.086 A 
HETATM   21  C   UNL     1      -4.317   4.620 -33.237  1.00  0.00     0.079 A 
HETATM   22  C   UNL     1      -2.898   4.226 -33.058  1.00  0.00     0.075 C 
HETATM   23  N   UNL     1      -4.583   5.879 -33.622  1.00  0.00    -0.177 NA
HETATM   24  N   UNL     1      -5.910   5.907 -33.768  1.00  0.00    -0.280 N 
HETATM   25  H   UNL     1      -6.337   6.781 -34.057  1.00  0.00     0.189 HD
HETATM   26  C   UNL     1      -6.521   4.714 -33.508  1.00  0.00     0.052 A 
HETATM   27  C   UNL     1      -7.991   4.552 -33.613  1.00  0.00     0.072 C 
ENDBRANCH   3  20
TORSDOF 5
ENDMDL
MODEL 2
REMARK VINA RESULT:      -7.5      2.639      3.360
REMARK  5 active torsions:
REMARK  status: ('A' for Active; 'I' for Inactive)
REMARK    1  A    between atoms: C_2  and  O_3 
REMARK    2  A    between atoms: O_3  and  C_4 
REMARK    3  A    between atoms: C_6  and  C_7 
REMARK    4  A    between atoms: C_11  and  N_12 
REMARK       I    between atoms: N_12  and  C_13 
REMARK       I    between atoms: C_13  and  N_14 
REMARK    5  A    between atoms: N_14  and  C_15 
ROOT
HETATM    1  N   UNL     1      -4.427   2.328 -31.161  1.00  0.00    -0.308 N 
HETATM    2  C   UNL     1      -4.049   3.569 -31.623  1.00  0.00     0.325 C 
HETATM    3  N   UNL     1      -3.162   3.592 -32.664  1.00  0.00    -0.305 N 
HETATM    4  O   UNL     1      -4.472   4.548 -31.015  1.00  0.00    -0.247 OA
HETATM    5  H   UNL     1      -4.802   2.408 -30.219  1.00  0.00     0.170 HD
HETATM    6  H   UNL     1      -2.954   2.723 -33.122  1.00  0.00     0.171 HD
ENDROOT
BRANCH   1   7
HETATM    7  C   UNL     1      -4.177   1.043 -31.677  1.00  0.00     0.051 C 
HETATM    8  C   UNL     1      -5.042   0.489 -32.638  1.00  0.00     0.077 C 
HETATM    9  C   UNL     1      -4.849  -0.848 -33.040  1.00  0.00     0.055 C 
HETATM   10  C   UNL     1      -3.793  -1.598 -32.527  1.00  0.00     0.069 C 
HETATM   11  C   UNL     1      -2.860  -1.001 -31.691  1.00  0.00     0.039 C 
HETATM   12  C   UNL     1      -3.050   0.315 -31.269  1.00  0.00     0.033 C 
BRANCH   8  13
HETATM   13  C   UNL     1      -6.236   1.237 -33.171  1.00  0.00     0.419 C 
HETATM   14  F   UNL     1      -7.040   1.736 -32.192  1.00  0.00    -0.166 F 
HETATM   15  F   UNL     1      -5.877   2.303 -33.937  1.00  0.00    -0.166 F 
HETATM   16  F   UNL     1      -7.044   0.468 -33.955  1.00  0.00    -0.166 F 
ENDBRANCH   8  13
BRANCH  10  17
HETATM   17  O   UNL     1      -3.588  -2.914 -32.829  1.00  0.00    -0.351 OA
BRANCH  17  18
HETATM   18  C   UNL     1      -4.217  -3.321 -34.050  1.00  0.00     0.171 C 
HETATM   19  C   UNL     1      -4.257  -4.839 -34.075  1.00  0.00     0.034 C 
ENDBRANCH  17  18
ENDBRANCH  10  17
ENDBRANCH   1   7
BRANCH   3  20
HETATM   20  C   UNL     1      -2.491   4.687 -33.178  1.00  0.00     0.086 A 
HETATM   21  C   UNL     1      -1.330   5.409 -32.779  1.00  0.00     0.079 A 
HETATM   22  C   UNL     1      -0.392   5.177 -31.653  1.00  0.00     0.075 C 
HETATM   23  N   UNL     1      -1.060   6.410 -33.633  1.00  0.00    -0.177 NA
HETATM   24  N   UNL     1      -2.018   6.322 -34.559  1.00  0.00    -0.280 N 
HETATM   25  H   UNL     1      -2.009   6.998 -35.316  1.00  0.00     0.189 HD
HETATM   26  C   UNL     1      -2.894   5.296 -34.352  1.00  0.00     0.052 A 
HETATM   27  C   UNL     1      -4.028   5.043 -35.274  1.00  0.00     0.072 C 
ENDBRANCH   3  20
TORSDOF 5
ENDMDL
MODEL 3
REMARK VINA RESULT:      -7.4      3.791      4.936
REMARK  5 active torsions:
REMARK  status: ('A' for Active; 'I' for Inactive)
REMARK    1  A    between atoms: C_2  and  O_3 
REMARK    2  A    between atoms: O_3  and  C_4 
REMARK    3  A    between atoms: C_6  and  C_7 
REMARK    4  A    between atoms: C_11  and  N_12 
REMARK       I    between atoms: N_12  and  C_13 
REMARK       I    between atoms: C_13  and  N_14 
REMARK    5  A    between atoms: N_14  and  C_15 
ROOT
HETATM    1  N   UNL     1      -8.340   1.317 -32.484  1.00  0.00    -0.308 N 
HETATM    2  C   UNL     1      -9.642   1.727 -32.667  1.00  0.00     0.325 C 
HETATM    3  N   UNL     1     -10.322   1.163 -33.711  1.00  0.00    -0.305 N 
HETATM    4  O   UNL     1     -10.059   2.620 -31.934  1.00  0.00    -0.247 OA
HETATM    5  H   UNL     1      -7.835   2.003 -31.928  1.00  0.00     0.170 HD
HETATM    6  H   UNL     1      -9.894   0.388 -34.185  1.00  0.00     0.171 HD
ENDROOT
BRANCH   1   7
HETATM    7  C   UNL     1      -7.609   0.285 -33.101  1.00  0.00     0.051 C 
HETATM    8  C   UNL     1      -6.519  -0.301 -32.433  1.00  0.00     0.077 C 
HETATM    9  C   UNL     1      -5.721  -1.238 -33.120  1.00  0.00     0.055 C 
HETATM   10  C   UNL     1      -6.030  -1.612 -34.425  1.00  0.00     0.069 C 
HETATM   11  C   UNL     1      -7.189  -1.139 -35.025  1.00  0.00     0.039 C 
HETATM   12  C   UNL     1      -7.976  -0.197 -34.366  1.00  0.00     0.033 C 
BRANCH   8  13
HETATM   13  C   UNL     1      -6.105   0.119 -31.046  1.00  0.00     0.419 C 
HETATM   14  F   UNL     1      -6.901  -0.395 -30.067  1.00  0.00    -0.166 F 
HETATM   15  F   UNL     1      -4.839  -0.279 -30.743  1.00  0.00    -0.166 F 
HETATM   16  F   UNL     1      -6.125   1.470 -30.867  1.00  0.00    -0.166 F 
ENDBRANCH   8  13
BRANCH  10  17
HETATM   17  O   UNL     1      -5.264  -2.466 -35.166  1.00  0.00    -0.351 OA
BRANCH  17  18
HETATM   18  C   UNL     1      -5.266  -3.808 -34.665  1.00  0.00     0.171 C 
HETATM   19  C   UNL     1      -6.360  -4.577 -35.384  1.00  0.00     0.034 C 
ENDBRANCH  17  18
ENDBRANCH  10  17
ENDBRANCH   1   7
BRANCH   3  20
HETATM   20  C   UNL     1     -11.556   1.534 -34.215  1.00  0.00     0.086 A 
HETATM   21  C   UNL     1     -12.846   0.928 -34.210  1.00  0.00     0.079 A 
HETATM   22  C   UNL     1     -13.313  -0.335 -33.589  1.00  0.00     0.075 C 
HETATM   23  N   UNL     1     -13.751   1.704 -34.830  1.00  0.00    -0.177 NA
HETATM   24  N   UNL     1     -13.058   2.780 -35.212  1.00  0.00    -0.280 N 
HETATM   25  H   UNL     1     -13.555   3.510 -35.711  1.00  0.00     0.189 HD
HETATM   26  C   UNL     1     -11.741   2.746 -34.853  1.00  0.00     0.052 A 
HETATM   27  C   UNL     1     -10.813   3.851 -35.194  1.00  0.00     0.072 C 
ENDBRANCH   3  20
TORSDOF 5
ENDMDL
MODEL 4
REMARK VINA RESULT:      -7.3      3.499      6.548
REMARK  5 active torsions:
REMARK  status: ('A' for Active; 'I' for Inactive)
REMARK    1  A    between atoms: C_2  and  O_3 
REMARK    2  A    between atoms: O_3  and  C_4 
REMARK    3  A    between atoms: C_6  and  C_7 
REMARK    4  A    between atoms: C_11  and  N_12 
REMARK       I    between atoms: N_12  and  C_13 
REMARK       I    between atoms: C_13  and  N_14 
REMARK    5  A    between atoms: N_14  and  C_15 
ROOT
HETATM    1  N   UNL     1      -5.311   0.332 -33.394  1.00  0.00    -0.308 N 
HETATM    2  C   UNL     1      -4.550  -0.794 -33.616  1.00  0.00     0.325 C 
HETATM    3  N   UNL     1      -5.220  -1.985 -33.672  1.00  0.00    -0.305 N 
HETATM    4  O   UNL     1      -3.332  -0.649 -33.662  1.00  0.00    -0.247 OA
HETATM    5  H   UNL     1      -4.723   1.086 -33.046  1.00  0.00     0.170 HD
HETATM    6  H   UNL     1      -6.224  -1.958 -33.698  1.00  0.00     0.171 HD
ENDROOT
BRANCH   1   7
HETATM    7  C   UNL     1      -6.707   0.505 -33.364  1.00  0.00     0.051 C 
HETATM    8  C   UNL     1      -7.367   0.701 -32.137  1.00  0.00     0.077 C 
HETATM    9  C   UNL     1      -8.775   0.736 -32.118  1.00  0.00     0.055 C 
HETATM   10  C   UNL     1      -9.505   0.623 -33.299  1.00  0.00     0.069 C 
HETATM   11  C   UNL     1      -8.845   0.576 -34.519  1.00  0.00     0.039 C 
HETATM   12  C   UNL     1      -7.453   0.519 -34.552  1.00  0.00     0.033 C 
BRANCH   8  13
HETATM   13  C   UNL     1      -6.626   0.761 -30.827  1.00  0.00     0.419 C 
HETATM   14  F   UNL     1      -6.632  -0.421 -30.150  1.00  0.00    -0.166 F 
HETATM   15  F   UNL     1      -5.315   1.089 -30.990  1.00  0.00    -0.166 F 
HETATM   16  F   UNL     1      -7.138   1.684 -29.963  1.00  0.00    -0.166 F 
ENDBRANCH   8  13
BRANCH  10  17
HETATM   17  O   UNL     1     -10.870   0.590 -33.341  1.00  0.00    -0.351 OA
BRANCH  17  18
HETATM   18  C   UNL     1     -11.440   1.666 -34.095  1.00  0.00     0.171 C 
HETATM   19  C   UNL     1     -12.746   1.176 -34.697  1.00  0.00     0.034 C 
ENDBRANCH  17  18
ENDBRANCH  10  17
ENDBRANCH   1   7
BRANCH   3  20
HETATM   20  C   UNL     1      -4.680  -3.258 -33.695  1.00  0.00     0.086 A 
HETATM   21  C   UNL     1      -3.653  -3.907 -32.950  1.00  0.00     0.079 A 
HETATM   22  C   UNL     1      -2.826  -3.415 -31.822  1.00  0.00     0.075 C 
HETATM   23  N   UNL     1      -3.501  -5.184 -33.339  1.00  0.00    -0.177 NA
HETATM   24  N   UNL     1      -4.413  -5.348 -34.301  1.00  0.00    -0.280 N 
HETATM   25  H   UNL     1      -4.473  -6.257 -34.747  1.00  0.00     0.189 HD
HETATM   26  C   UNL     1      -5.166  -4.235 -34.544  1.00  0.00     0.052 A 
HETATM   27  C   UNL     1      -6.227  -4.224 -35.580  1.00  0.00     0.072 C 
ENDBRANCH   3  20
TORSDOF 5
ENDMDL
MODEL 5
REMARK VINA RESULT:      -7.2      2.906      3.680
REMARK  5 active torsions:
REMARK  status: ('A' for Active; 'I' for Inactive)
REMARK    1  A    between atoms: C_2  and  O_3 
REMARK    2  A    between atoms: O_3  and  C_4 
REMARK    3  A    between atoms: C_6  and  C_7 
REMARK    4  A    between atoms: C_11  and  N_12 
REMARK       I    between atoms: N_12  and  C_13 
REMARK       I    between atoms: C_13  and  N_14 
REMARK    5  A    between atoms: N_14  and  C_15 
ROOT
HETATM    1  N   UNL     1      -7.601   2.886 -34.227  1.00  0.00    -0.308 N 
HETATM    2  C   UNL     1      -6.630   3.798 -33.876  1.00  0.00     0.325 C 
HETATM    3  N   UNL     1      -5.510   3.299 -33.271  1.00  0.00    -0.305 N 
HETATM    4  O   UNL     1      -6.883   4.985 -34.059  1.00  0.00    -0.247 OA
HETATM    5  H   UNL     1      -8.493   3.358 -34.353  1.00  0.00     0.170 HD
HETATM    6  H   UNL     1      -5.393   2.302 -33.251  1.00  0.00     0.171 HD
ENDROOT
BRANCH   1   7
HETATM    7  C   UNL     1      -7.584   1.479 -34.213  1.00  0.00     0.051 C 
HETATM    8  C   UNL     1      -8.180   0.778 -33.149  1.00  0.00     0.077 C 
HETATM    9  C   UNL     1      -8.036  -0.622 -33.087  1.00  0.00     0.055 C 
HETATM   10  C   UNL     1      -7.351  -1.310 -34.086  1.00  0.00     0.069 C 
HETATM   11  C   UNL     1      -6.892  -0.629 -35.205  1.00  0.00     0.039 C 
HETATM   12  C   UNL     1      -7.009   0.758 -35.270  1.00  0.00     0.033 C 
BRANCH   8  13
HETATM   13  C   UNL     1      -8.873   1.482 -32.010  1.00  0.00     0.419 C 
HETATM   14  F   UNL     1      -9.906   2.272 -32.415  1.00  0.00    -0.166 F 
HETATM   15  F   UNL     1      -9.403   0.610 -31.110  1.00  0.00    -0.166 F 
HETATM   16  F   UNL     1      -8.043   2.296 -31.298  1.00  0.00    -0.166 F 
ENDBRANCH   8  13
BRANCH  10  17
HETATM   17  O   UNL     1      -7.124  -2.656 -34.054  1.00  0.00    -0.351 OA
BRANCH  17  18
HETATM   18  C   UNL     1      -6.098  -3.080 -34.960  1.00  0.00     0.171 C 
HETATM   19  C   UNL     1      -6.345  -4.539 -35.299  1.00  0.00     0.034 C 
ENDBRANCH  17  18
ENDBRANCH  10  17
ENDBRANCH   1   7
BRANCH   3  20
HETATM   20  C   UNL     1      -4.492   4.009 -32.662  1.00  0.00     0.086 A 
HETATM   21  C   UNL     1      -3.439   4.838 -33.148  1.00  0.00     0.079 A 
HETATM   22  C   UNL     1      -3.113   5.267 -34.530  1.00  0.00     0.075 C 
HETATM   23  N   UNL     1      -2.699   5.328 -32.140  1.00  0.00    -0.177 NA
HETATM   24  N   UNL     1      -3.269   4.832 -31.039  1.00  0.00    -0.280 N 
HETATM   25  H   UNL     1      -2.861   5.076 -30.143  1.00  0.00     0.189 HD
HETATM   26  C   UNL     1      -4.361   4.051 -31.286  1.00  0.00     0.052 A 
HETATM   27  C   UNL     1      -5.123   3.409 -30.188  1.00  0.00     0.072 C 
ENDBRANCH   3  20
TORSDOF 5
ENDMDL
MODEL 6
REMARK VINA RESULT:      -7.2      1.748      2.537
REMARK  5 active torsions:
REMARK  status: ('A' for Active; 'I' for Inactive)
REMARK    1  A    between atoms: C_2  and  O_3 
REMARK    2  A    between atoms: O_3  and  C_4 
REMARK    3  A    between atoms: C_6  and  C_7 
REMARK    4  A    between atoms: C_11  and  N_12 
REMARK       I    between atoms: N_12  and  C_13 
REMARK       I    between atoms: C_13  and  N_14 
REMARK    5  A    between atoms: N_14  and  C_15 
ROOT
HETATM    1  N   UNL     1      -5.556   2.548 -31.526  1.00  0.00    -0.308 N 
HETATM    2  C   UNL     1      -4.787   3.676 -31.710  1.00  0.00     0.325 C 
HETATM    3  N   UNL     1      -3.960   3.683 -32.800  1.00  0.00    -0.305 N 
HETATM    4  O   UNL     1      -4.843   4.542 -30.843  1.00  0.00    -0.247 OA
HETATM    5  H   UNL     1      -5.867   2.494 -30.560  1.00  0.00     0.170 HD
HETATM    6  H   UNL     1      -4.066   2.946 -33.474  1.00  0.00     0.171 HD
ENDROOT
BRANCH   1   7
HETATM    7  C   UNL     1      -5.764   1.434 -32.361  1.00  0.00     0.051 C 
HETATM    8  C   UNL     1      -5.033   0.251 -32.151  1.00  0.00     0.077 C 
HETATM    9  C   UNL     1      -5.159  -0.803 -33.077  1.00  0.00     0.055 C 
HETATM   10  C   UNL     1      -6.026  -0.695 -34.162  1.00  0.00     0.069 C 
HETATM   11  C   UNL     1      -6.851   0.415 -34.282  1.00  0.00     0.039 C 
HETATM   12  C   UNL     1      -6.722   1.475 -33.384  1.00  0.00     0.033 C 
BRANCH   8  13
HETATM   13  C   UNL     1      -4.033   0.111 -31.032  1.00  0.00     0.419 C 
HETATM   14  F   UNL     1      -3.054   1.058 -31.064  1.00  0.00    -0.166 F 
HETATM   15  F   UNL     1      -4.613   0.218 -29.805  1.00  0.00    -0.166 F 
HETATM   16  F   UNL     1      -3.386  -1.089 -31.037  1.00  0.00    -0.166 F 
ENDBRANCH   8  13
BRANCH  10  17
HETATM   17  O   UNL     1      -6.149  -1.654 -35.127  1.00  0.00    -0.351 OA
BRANCH  17  18
HETATM   18  C   UNL     1      -5.486  -2.880 -34.796  1.00  0.00     0.171 C 
HETATM   19  C   UNL     1      -6.430  -4.025 -35.115  1.00  0.00     0.034 C 
ENDBRANCH  17  18
ENDBRANCH  10  17
ENDBRANCH   1   7
BRANCH   3  20
HETATM   20  C   UNL     1      -2.965   4.596 -33.100  1.00  0.00     0.086 A 
HETATM   21  C   UNL     1      -1.811   5.061 -32.406  1.00  0.00     0.079 A 
HETATM   22  C   UNL     1      -1.250   4.657 -31.093  1.00  0.00     0.075 C 
HETATM   23  N   UNL     1      -1.133   5.962 -33.136  1.00  0.00    -0.177 NA
HETATM   24  N   UNL     1      -1.831   6.062 -34.270  1.00  0.00    -0.280 N 
HETATM   25  H   UNL     1      -1.492   6.703 -34.980  1.00  0.00     0.189 HD
HETATM   26  C   UNL     1      -2.929   5.252 -34.316  1.00  0.00     0.052 A 
HETATM   27  C   UNL     1      -3.829   5.228 -35.495  1.00  0.00     0.072 C 
ENDBRANCH   3  20
TORSDOF 5
ENDMDL
MODEL 7
REMARK VINA RESULT:      -7.1      2.059      2.628
REMARK  5 active torsions:
REMARK  status: ('A' for Active; 'I' for Inactive)
REMARK    1  A    between atoms: C_2  and  O_3 
REMARK    2  A    between atoms: O_3  and  C_4 
REMARK    3  A    between atoms: C_6  and  C_7 
REMARK    4  A    between atoms: C_11  and  N_12 
REMARK       I    between atoms: N_12  and  C_13 
REMARK       I    between atoms: C_13  and  N_14 
REMARK    5  A    between atoms: N_14  and  C_15 
ROOT
HETATM    1  N   UNL     1      -5.450   0.901 -31.104  1.00  0.00    -0.308 N 
HETATM    2  C   UNL     1      -5.344   2.273 -31.059  1.00  0.00     0.325 C 
HETATM    3  N   UNL     1      -4.928   2.894 -32.205  1.00  0.00    -0.305 N 
HETATM    4  O   UNL     1      -5.548   2.817 -29.978  1.00  0.00    -0.247 OA
HETATM    5  H   UNL     1      -5.436   0.520 -30.162  1.00  0.00     0.170 HD
HETATM    6  H   UNL     1      -4.870   2.343 -33.042  1.00  0.00     0.171 HD
ENDROOT
BRANCH   1   7
HETATM    7  C   UNL     1      -5.353   0.009 -32.189  1.00  0.00     0.051 C 
HETATM    8  C   UNL     1      -6.505  -0.351 -32.910  1.00  0.00     0.077 C 
HETATM    9  C   UNL     1      -6.406  -1.346 -33.903  1.00  0.00     0.055 C 
HETATM   10  C   UNL     1      -5.178  -1.933 -34.199  1.00  0.00     0.069 C 
HETATM   11  C   UNL     1      -4.023  -1.470 -33.586  1.00  0.00     0.039 C 
HETATM   12  C   UNL     1      -4.109  -0.502 -32.586  1.00  0.00     0.033 C 
BRANCH   8  13
HETATM   13  C   UNL     1      -7.866   0.207 -32.582  1.00  0.00     0.419 C 
HETATM   14  F   UNL     1      -8.880  -0.429 -33.233  1.00  0.00    -0.166 F 
HETATM   15  F   UNL     1      -8.158   0.109 -31.256  1.00  0.00    -0.166 F 
HETATM   16  F   UNL     1      -7.996   1.527 -32.898  1.00  0.00    -0.166 F 
ENDBRANCH   8  13
BRANCH  10  17
HETATM   17  O   UNL     1      -5.025  -2.943 -35.106  1.00  0.00    -0.351 OA
BRANCH  17  18
HETATM   18  C   UNL     1      -5.455  -4.218 -34.614  1.00  0.00     0.171 C 
HETATM   19  C   UNL     1      -6.650  -4.661 -35.438  1.00  0.00     0.034 C 
ENDBRANCH  17  18
ENDBRANCH  10  17
ENDBRANCH   1   7
BRANCH   3  20
HETATM   20  C   UNL     1      -4.565   4.220 -32.363  1.00  0.00     0.086 A 
HETATM   21  C   UNL     1      -3.389   4.964 -32.055  1.00  0.00     0.079 A 
HETATM   22  C   UNL     1      -2.094   4.522 -31.482  1.00  0.00     0.075 C 
HETATM   23  N   UNL     1      -3.514   6.249 -32.423  1.00  0.00    -0.177 NA
HETATM   24  N   UNL     1      -4.735   6.321 -32.960  1.00  0.00    -0.280 N 
HETATM   25  H   UNL     1      -5.046   7.222 -33.310  1.00  0.00     0.189 HD
HETATM   26  C   UNL     1      -5.405   5.132 -32.972  1.00  0.00     0.052 A 
HETATM   27  C   UNL     1      -6.776   5.017 -33.526  1.00  0.00     0.072 C 
ENDBRANCH   3  20
TORSDOF 5
ENDMDL
MODEL 8
REMARK VINA RESULT:      -7.1      2.005      2.939
REMARK  5 active torsions:
REMARK  status: ('A' for Active; 'I' for Inactive)
REMARK    1  A    between atoms: C_2  and  O_3 
REMARK    2  A    between atoms: O_3  and  C_4 
REMARK    3  A    between atoms: C_6  and  C_7 
REMARK    4  A    between atoms: C_11  and  N_12 
REMARK       I    between atoms: N_12  and  C_13 
REMARK       I    between atoms: C_13  and  N_14 
REMARK    5  A    between atoms: N_14  and  C_15 
ROOT
HETATM    1  N   UNL     1      -8.124   1.029 -31.345  1.00  0.00    -0.308 N 
HETATM    2  C   UNL     1      -8.674   2.229 -31.734  1.00  0.00     0.325 C 
HETATM    3  N   UNL     1      -8.308   2.700 -32.965  1.00  0.00    -0.305 N 
HETATM    4  O   UNL     1      -9.378   2.817 -30.918  1.00  0.00    -0.247 OA
HETATM    5  H   UNL     1      -8.182   0.931 -30.334  1.00  0.00     0.170 HD
HETATM    6  H   UNL     1      -7.789   2.087 -33.566  1.00  0.00     0.171 HD
ENDROOT
BRANCH   1   7
HETATM    7  C   UNL     1      -7.351   0.097 -32.064  1.00  0.00     0.051 C 
HETATM    8  C   UNL     1      -6.027  -0.170 -31.672  1.00  0.00     0.077 C 
HETATM    9  C   UNL     1      -5.230  -1.002 -32.484  1.00  0.00     0.055 C 
HETATM   10  C   UNL     1      -5.756  -1.588 -33.633  1.00  0.00     0.069 C 
HETATM   11  C   UNL     1      -7.103  -1.437 -33.933  1.00  0.00     0.039 C 
HETATM   12  C   UNL     1      -7.898  -0.599 -33.151  1.00  0.00     0.033 C 
BRANCH   8  13
HETATM   13  C   UNL     1      -5.393   0.492 -30.477  1.00  0.00     0.419 C 
HETATM   14  F   UNL     1      -6.051   0.243 -29.311  1.00  0.00    -0.166 F 
HETATM   15  F   UNL     1      -4.112   0.077 -30.276  1.00  0.00    -0.166 F 
HETATM   16  F   UNL     1      -5.333   1.850 -30.584  1.00  0.00    -0.166 F 
ENDBRANCH   8  13
BRANCH  10  17
HETATM   17  O   UNL     1      -5.022  -2.354 -34.492  1.00  0.00    -0.351 OA
BRANCH  17  18
HETATM   18  C   UNL     1      -5.790  -3.373 -35.142  1.00  0.00     0.171 C 
HETATM   19  C   UNL     1      -5.335  -4.718 -34.604  1.00  0.00     0.034 C 
ENDBRANCH  17  18
ENDBRANCH  10  17
ENDBRANCH   1   7
BRANCH   3  20
HETATM   20  C   UNL     1      -8.565   3.949 -33.503  1.00  0.00     0.086 A 
HETATM   21  C   UNL     1      -9.554   4.454 -34.396  1.00  0.00     0.079 A 
HETATM   22  C   UNL     1     -10.713   3.778 -35.029  1.00  0.00     0.075 C 
HETATM   23  N   UNL     1      -9.392   5.769 -34.610  1.00  0.00    -0.177 NA
HETATM   24  N   UNL     1      -8.333   6.098 -33.865  1.00  0.00    -0.280 N 
HETATM   25  H   UNL     1      -8.026   7.065 -33.879  1.00  0.00     0.189 HD
HETATM   26  C   UNL     1      -7.807   5.053 -33.162  1.00  0.00     0.052 A 
HETATM   27  C   UNL     1      -6.625   5.224 -32.282  1.00  0.00     0.072 C 
ENDBRANCH   3  20
TORSDOF 5
ENDMDL
MODEL 9
REMARK VINA RESULT:      -7.1      3.031      6.895
REMARK  5 active torsions:
REMARK  status: ('A' for Active; 'I' for Inactive)
REMARK    1  A    between atoms: C_2  and  O_3 
REMARK    2  A    between atoms: O_3  and  C_4 
REMARK    3  A    between atoms: C_6  and  C_7 
REMARK    4  A    between atoms: C_11  and  N_12 
REMARK       I    between atoms: N_12  and  C_13 
REMARK       I    between atoms: C_13  and  N_14 
REMARK    5  A    between atoms: N_14  and  C_15 
ROOT
HETATM    1  N   UNL     1      -5.511   1.639 -31.400  1.00  0.00    -0.308 N 
HETATM    2  C   UNL     1      -5.563   0.293 -31.687  1.00  0.00     0.325 C 
HETATM    3  N   UNL     1      -4.797  -0.141 -32.733  1.00  0.00    -0.305 N 
HETATM    4  O   UNL     1      -6.351  -0.389 -31.037  1.00  0.00    -0.247 OA
HETATM    5  H   UNL     1      -6.327   1.912 -30.858  1.00  0.00     0.170 HD
HETATM    6  H   UNL     1      -4.138   0.503 -33.131  1.00  0.00     0.171 HD
ENDROOT
BRANCH   1   7
HETATM    7  C   UNL     1      -4.674   2.652 -31.906  1.00  0.00     0.051 C 
HETATM    8  C   UNL     1      -5.136   3.504 -32.926  1.00  0.00     0.077 C 
HETATM    9  C   UNL     1      -4.238   4.421 -33.508  1.00  0.00     0.055 C 
HETATM   10  C   UNL     1      -2.925   4.515 -33.053  1.00  0.00     0.069 C 
HETATM   11  C   UNL     1      -2.519   3.776 -31.951  1.00  0.00     0.039 C 
HETATM   12  C   UNL     1      -3.389   2.849 -31.378  1.00  0.00     0.033 C 
BRANCH   8  13
HETATM   13  C   UNL     1      -6.526   3.394 -33.497  1.00  0.00     0.419 C 
HETATM   14  F   UNL     1      -6.732   2.242 -34.194  1.00  0.00    -0.166 F 
HETATM   15  F   UNL     1      -7.484   3.419 -32.531  1.00  0.00    -0.166 F 
HETATM   16  F   UNL     1      -6.834   4.406 -34.357  1.00  0.00    -0.166 F 
ENDBRANCH   8  13
BRANCH  10  17
HETATM   17  O   UNL     1      -1.991   5.339 -33.614  1.00  0.00    -0.351 OA
BRANCH  17  18
HETATM   18  C   UNL     1      -2.454   6.682 -33.794  1.00  0.00     0.171 C 
HETATM   19  C   UNL     1      -1.558   7.601 -32.984  1.00  0.00     0.034 C 
ENDBRANCH  17  18
ENDBRANCH  10  17
ENDBRANCH   1   7
BRANCH   3  20
HETATM   20  C   UNL     1      -4.815  -1.388 -33.333  1.00  0.00     0.086 A 
HETATM   21  C   UNL     1      -4.087  -2.595 -33.123  1.00  0.00     0.079 A 
HETATM   22  C   UNL     1      -3.059  -2.933 -32.109  1.00  0.00     0.075 C 
HETATM   23  N   UNL     1      -4.486  -3.558 -33.969  1.00  0.00    -0.177 NA
HETATM   24  N   UNL     1      -5.449  -2.984 -34.694  1.00  0.00    -0.280 N 
HETATM   25  H   UNL     1      -5.899  -3.543 -35.412  1.00  0.00     0.189 HD
HETATM   26  C   UNL     1      -5.707  -1.690 -34.345  1.00  0.00     0.052 A 
HETATM   27  C   UNL     1      -6.742  -0.887 -35.041  1.00  0.00     0.072 C 
ENDBRANCH   3  20
TORSDOF 5
ENDMDL
MODEL 10
REMARK VINA RESULT:      -7.1      2.364      3.266
REMARK  5 active torsions:
REMARK  status: ('A' for Active; 'I' for Inactive)
REMARK    1  A    between atoms: C_2  and  O_3 
REMARK    2  A    between atoms: O_3  and  C_4 
REMARK    3  A    between atoms: C_6  and  C_7 
REMARK    4  A    between atoms: C_11  and  N_12 
REMARK       I    between atoms: N_12  and  C_13 
REMARK       I    between atoms: C_13  and  N_14 
REMARK    5  A    between atoms: N_14  and  C_15 
ROOT
HETATM    1  N   UNL     1      -6.881   0.815 -31.874  1.00  0.00    -0.308 N 
HETATM    2  C   UNL     1      -6.783   2.188 -31.832  1.00  0.00     0.325 C 
HETATM    3  N   UNL     1      -5.768   2.753 -32.553  1.00  0.00    -0.305 N 
HETATM    4  O   UNL     1      -7.558   2.784 -31.089  1.00  0.00    -0.247 OA
HETATM    5  H   UNL     1      -7.422   0.480 -31.081  1.00  0.00     0.170 HD
HETATM    6  H   UNL     1      -5.253   2.161 -33.181  1.00  0.00     0.171 HD
ENDROOT
BRANCH   1   7
HETATM    7  C   UNL     1      -6.202  -0.129 -32.667  1.00  0.00     0.051 C 
HETATM    8  C   UNL     1      -6.699  -0.469 -33.938  1.00  0.00     0.077 C 
HETATM    9  C   UNL     1      -6.080  -1.511 -34.657  1.00  0.00     0.055 C 
HETATM   10  C   UNL     1      -4.966  -2.167 -34.138  1.00  0.00     0.069 C 
HETATM   11  C   UNL     1      -4.394  -1.729 -32.952  1.00  0.00     0.039 C 
HETATM   12  C   UNL     1      -5.008  -0.713 -32.220  1.00  0.00     0.033 C 
BRANCH   8  13
HETATM   13  C   UNL     1      -7.940   0.164 -34.512  1.00  0.00     0.419 C 
HETATM   14  F   UNL     1      -8.292  -0.345 -35.725  1.00  0.00    -0.166 F 
HETATM   15  F   UNL     1      -9.025  -0.007 -33.709  1.00  0.00    -0.166 F 
HETATM   16  F   UNL     1      -7.819   1.509 -34.698  1.00  0.00    -0.166 F 
ENDBRANCH   8  13
BRANCH  10  17
HETATM   17  O   UNL     1      -4.358  -3.222 -34.755  1.00  0.00    -0.351 OA
BRANCH  17  18
HETATM   18  C   UNL     1      -4.900  -4.492 -34.374  1.00  0.00     0.171 C 
HETATM   19  C   UNL     1      -3.842  -5.234 -33.577  1.00  0.00     0.034 C 
ENDBRANCH  17  18
ENDBRANCH  10  17
ENDBRANCH   1   7
BRANCH   3  20
HETATM   20  C   UNL     1      -5.344   4.069 -32.528  1.00  0.00     0.086 A 
HETATM   21  C   UNL     1      -5.968   5.313 -32.836  1.00  0.00     0.079 A 
HETATM   22  C   UNL     1      -7.358   5.612 -33.258  1.00  0.00     0.075 C 
HETATM   23  N   UNL     1      -5.130   6.342 -32.634  1.00  0.00    -0.177 NA
HETATM   24  N   UNL     1      -4.004   5.772 -32.199  1.00  0.00    -0.280 N 
HETATM   25  H   UNL     1      -3.219   6.377 -31.983  1.00  0.00     0.189 HD
HETATM   26  C   UNL     1      -4.077   4.412 -32.094  1.00  0.00     0.052 A 
HETATM   27  C   UNL     1      -2.923   3.604 -31.632  1.00  0.00     0.072 C 
ENDBRANCH   3  20
TORSDOF 5
ENDMDL
