MODEL 1
REMARK VINA RESULT:      -7.5      0.000      0.000
REMARK  7 active torsions:
REMARK  status: ('A' for Active; 'I' for Inactive)
REMARK    1  A    between atoms: O_2  and  C_3 
REMARK    2  A    between atoms: C_6  and  C_7 
REMARK    3  A    between atoms: C_7  and  N_8 
REMARK    4  A    between atoms: N_8  and  C_11 
REMARK    5  A    between atoms: C_11  and  C_12 
REMARK    6  A    between atoms: C_11  and  C_20 
REMARK       I    between atoms: C_12  and  N_13 
REMARK    7  A    between atoms: N_13  and  C_14 
ROOT
HETATM    1  C   UNL     1      -4.343   1.772 -31.704  1.00  0.00     0.310 C 
ENDROOT
BRANCH   1   2
HETATM    2  N   UNL     1      -3.327   0.796 -32.271  1.00  0.00    -0.054 N 
HETATM    3  H   UNL     1      -2.433   1.258 -32.455  1.00  0.00     0.278 HD
HETATM    4  H   UNL     1      -3.710   0.495 -33.181  1.00  0.00     0.278 HD
BRANCH   2   5
HETATM    5  C   UNL     1      -3.088  -0.457 -31.499  1.00  0.00     0.272 C 
BRANCH   5   6
HETATM    6  C   UNL     1      -3.514  -1.660 -32.294  1.00  0.00    -0.033 A 
HETATM    7  C   UNL     1      -3.035  -2.937 -31.968  1.00  0.00     0.011 A 
HETATM    8  C   UNL     1      -3.419  -4.054 -32.718  1.00  0.00     0.037 A 
HETATM    9  C   UNL     1      -4.276  -3.908 -33.806  1.00  0.00     0.068 A 
HETATM   10  C   UNL     1      -4.742  -2.636 -34.142  1.00  0.00     0.037 A 
HETATM   11  C   UNL     1      -4.370  -1.517 -33.393  1.00  0.00     0.011 A 
BRANCH   9  12
HETATM   12  O   UNL     1      -4.725  -4.913 -34.616  1.00  0.00    -0.356 OA
HETATM   13  C   UNL     1      -5.988  -4.724 -35.245  1.00  0.00     0.210 C 
ENDBRANCH   9  12
ENDBRANCH   5   6
ENDBRANCH   2   5
ENDBRANCH   1   2
BRANCH   1  14
HETATM   14  C   UNL     1      -3.864   3.226 -31.913  1.00  0.00     0.259 C 
HETATM   15  N   UNL     1      -2.900   3.409 -32.876  1.00  0.00    -0.304 N 
HETATM   16  H   UNL     1      -2.516   2.650 -33.427  1.00  0.00     0.171 HD
HETATM   17  O   UNL     1      -4.416   4.099 -31.238  1.00  0.00    -0.270 OA
BRANCH  15  18
HETATM   18  C   UNL     1      -2.329   4.634 -33.092  1.00  0.00     0.172 A 
HETATM   19  S   UNL     1      -3.020   5.513 -34.381  1.00  0.00    -0.062 SA
HETATM   20  C   UNL     1      -1.889   6.773 -34.091  1.00  0.00     0.072 A 
HETATM   21  C   UNL     1      -1.073   6.425 -33.034  1.00  0.00     0.126 A 
HETATM   22  N   UNL     1      -1.327   5.189 -32.469  1.00  0.00    -0.236 NA
ENDBRANCH  15  18
ENDBRANCH   1  14
BRANCH   1  23
HETATM   23  C   UNL     1      -5.757   1.459 -32.149  1.00  0.00    -0.019 A 
HETATM   24  C   UNL     1      -6.611   0.754 -31.282  1.00  0.00     0.010 A 
HETATM   25  C   UNL     1      -7.909   0.428 -31.675  1.00  0.00     0.001 A 
HETATM   26  C   UNL     1      -8.370   0.790 -32.938  1.00  0.00     0.000 A 
HETATM   27  C   UNL     1      -7.534   1.480 -33.812  1.00  0.00     0.001 A 
HETATM   28  C   UNL     1      -6.233   1.809 -33.425  1.00  0.00     0.010 A 
ENDBRANCH   1  23
TORSDOF 7
ENDMDL
MODEL 2
REMARK VINA RESULT:      -7.5      3.150      7.328
REMARK  7 active torsions:
REMARK  status: ('A' for Active; 'I' for Inactive)
REMARK    1  A    between atoms: O_2  and  C_3 
REMARK    2  A    between atoms: C_6  and  C_7 
REMARK    3  A    between atoms: C_7  and  N_8 
REMARK    4  A    between atoms: N_8  and  C_11 
REMARK    5  A    between atoms: C_11  and  C_12 
REMARK    6  A    between atoms: C_11  and  C_20 
REMARK       I    between atoms: C_12  and  N_13 
REMARK    7  A    between atoms: N_13  and  C_14 
ROOT
HETATM    1  C   UNL     1      -6.146  -0.277 -32.982  1.00  0.00     0.310 C 
ENDROOT
BRANCH   1   2
HETATM    2  N   UNL     1      -4.918   0.615 -32.957  1.00  0.00    -0.054 N 
HETATM    3  H   UNL     1      -4.682   0.946 -33.897  1.00  0.00     0.278 HD
HETATM    4  H   UNL     1      -4.143   0.010 -32.642  1.00  0.00     0.278 HD
BRANCH   2   5
HETATM    5  C   UNL     1      -4.937   1.770 -32.015  1.00  0.00     0.272 C 
BRANCH   5   6
HETATM    6  C   UNL     1      -4.448   3.018 -32.694  1.00  0.00    -0.033 A 
HETATM    7  C   UNL     1      -5.314   3.790 -33.481  1.00  0.00     0.011 A 
HETATM    8  C   UNL     1      -4.854   4.943 -34.126  1.00  0.00     0.037 A 
HETATM    9  C   UNL     1      -3.522   5.334 -34.001  1.00  0.00     0.068 A 
HETATM   10  C   UNL     1      -2.653   4.558 -33.232  1.00  0.00     0.037 A 
HETATM   11  C   UNL     1      -3.107   3.410 -32.578  1.00  0.00     0.011 A 
BRANCH   9  12
HETATM   12  O   UNL     1      -2.949   6.432 -34.577  1.00  0.00    -0.356 OA
HETATM   13  C   UNL     1      -1.912   7.079 -33.848  1.00  0.00     0.210 C 
ENDBRANCH   9  12
ENDBRANCH   5   6
ENDBRANCH   2   5
ENDBRANCH   1   2
BRANCH   1  14
HETATM   14  C   UNL     1      -7.382   0.526 -33.447  1.00  0.00     0.259 C 
HETATM   15  N   UNL     1      -8.423   0.599 -32.551  1.00  0.00    -0.304 N 
HETATM   16  H   UNL     1      -8.399   0.162 -31.637  1.00  0.00     0.171 HD
HETATM   17  O   UNL     1      -7.312   1.068 -34.553  1.00  0.00    -0.270 OA
BRANCH  15  18
HETATM   18  C   UNL     1      -9.606   1.203 -32.879  1.00  0.00     0.172 A 
HETATM   19  S   UNL     1      -9.705   2.846 -32.432  1.00  0.00    -0.062 SA
HETATM   20  C   UNL     1     -11.300   2.896 -33.067  1.00  0.00     0.072 A 
HETATM   21  C   UNL     1     -11.633   1.655 -33.572  1.00  0.00     0.126 A 
HETATM   22  N   UNL     1     -10.656   0.683 -33.453  1.00  0.00    -0.236 NA
ENDBRANCH  15  18
ENDBRANCH   1  14
BRANCH   1  23
HETATM   23  C   UNL     1      -5.893  -1.593 -33.688  1.00  0.00    -0.019 A 
HETATM   24  C   UNL     1      -6.983  -2.324 -34.192  1.00  0.00     0.010 A 
HETATM   25  C   UNL     1      -6.783  -3.552 -34.823  1.00  0.00     0.001 A 
HETATM   26  C   UNL     1      -5.498  -4.071 -34.951  1.00  0.00     0.000 A 
HETATM   27  C   UNL     1      -4.409  -3.364 -34.449  1.00  0.00     0.001 A 
HETATM   28  C   UNL     1      -4.602  -2.135 -33.817  1.00  0.00     0.010 A 
ENDBRANCH   1  23
TORSDOF 7
ENDMDL
MODEL 3
REMARK VINA RESULT:      -7.2      2.557      4.843
REMARK  7 active torsions:
REMARK  status: ('A' for Active; 'I' for Inactive)
REMARK    1  A    between atoms: O_2  and  C_3 
REMARK    2  A    between atoms: C_6  and  C_7 
REMARK    3  A    between atoms: C_7  and  N_8 
REMARK    4  A    between atoms: N_8  and  C_11 
REMARK    5  A    between atoms: C_11  and  C_12 
REMARK    6  A    between atoms: C_11  and  C_20 
REMARK       I    between atoms: C_12  and  N_13 
REMARK    7  A    between atoms: N_13  and  C_14 
ROOT
HETATM    1  C   UNL     1      -5.787   2.098 -32.526  1.00  0.00     0.310 C 
ENDROOT
BRANCH   1   2
HETATM    2  N   UNL     1      -6.128   1.853 -31.068  1.00  0.00    -0.054 N 
HETATM    3  H   UNL     1      -5.378   2.178 -30.452  1.00  0.00     0.278 HD
HETATM    4  H   UNL     1      -6.186   0.827 -30.966  1.00  0.00     0.278 HD
BRANCH   2   5
HETATM    5  C   UNL     1      -7.434   2.381 -30.580  1.00  0.00     0.272 C 
BRANCH   5   6
HETATM    6  C   UNL     1      -8.547   1.992 -31.512  1.00  0.00    -0.033 A 
HETATM    7  C   UNL     1      -8.938   0.652 -31.639  1.00  0.00     0.011 A 
HETATM    8  C   UNL     1      -9.963   0.289 -32.519  1.00  0.00     0.037 A 
HETATM    9  C   UNL     1     -10.603   1.258 -33.289  1.00  0.00     0.068 A 
HETATM   10  C   UNL     1     -10.206   2.591 -33.176  1.00  0.00     0.037 A 
HETATM   11  C   UNL     1      -9.189   2.962 -32.294  1.00  0.00     0.011 A 
BRANCH   9  12
HETATM   12  O   UNL     1     -11.614   1.037 -34.182  1.00  0.00    -0.356 OA
HETATM   13  C   UNL     1     -12.756   0.333 -33.707  1.00  0.00     0.210 C 
ENDBRANCH   9  12
ENDBRANCH   5   6
ENDBRANCH   2   5
ENDBRANCH   1   2
BRANCH   1  14
HETATM   14  C   UNL     1      -4.371   2.706 -32.650  1.00  0.00     0.259 C 
HETATM   15  N   UNL     1      -4.317   4.041 -32.974  1.00  0.00    -0.304 N 
HETATM   16  H   UNL     1      -5.142   4.609 -33.123  1.00  0.00     0.171 HD
HETATM   17  O   UNL     1      -3.419   1.960 -32.404  1.00  0.00    -0.270 OA
BRANCH  15  18
HETATM   18  C   UNL     1      -3.124   4.673 -33.201  1.00  0.00     0.172 A 
HETATM   19  S   UNL     1      -2.942   5.281 -34.785  1.00  0.00    -0.062 SA
HETATM   20  C   UNL     1      -1.374   5.839 -34.362  1.00  0.00     0.072 A 
HETATM   21  C   UNL     1      -1.111   5.518 -33.045  1.00  0.00     0.126 A 
HETATM   22  N   UNL     1      -2.120   4.841 -32.386  1.00  0.00    -0.236 NA
ENDBRANCH  15  18
ENDBRANCH   1  14
BRANCH   1  23
HETATM   23  C   UNL     1      -6.082   0.897 -33.401  1.00  0.00    -0.019 A 
HETATM   24  C   UNL     1      -6.776   1.080 -34.610  1.00  0.00     0.010 A 
HETATM   25  C   UNL     1      -7.087  -0.010 -35.423  1.00  0.00     0.001 A 
HETATM   26  C   UNL     1      -6.720  -1.296 -35.037  1.00  0.00     0.000 A 
HETATM   27  C   UNL     1      -6.040  -1.496 -33.839  1.00  0.00     0.001 A 
HETATM   28  C   UNL     1      -5.727  -0.409 -33.021  1.00  0.00     0.010 A 
ENDBRANCH   1  23
TORSDOF 7
ENDMDL
MODEL 4
REMARK VINA RESULT:      -7.1      3.567      6.193
REMARK  7 active torsions:
REMARK  status: ('A' for Active; 'I' for Inactive)
REMARK    1  A    between atoms: O_2  and  C_3 
REMARK    2  A    between atoms: C_6  and  C_7 
REMARK    3  A    between atoms: C_7  and  N_8 
REMARK    4  A    between atoms: N_8  and  C_11 
REMARK    5  A    between atoms: C_11  and  C_12 
REMARK    6  A    between atoms: C_11  and  C_20 
REMARK       I    between atoms: C_12  and  N_13 
REMARK    7  A    between atoms: N_13  and  C_14 
ROOT
HETATM    1  C   UNL     1      -6.671   1.238 -33.370  1.00  0.00     0.310 C 
ENDROOT
BRANCH   1   2
HETATM    2  N   UNL     1      -8.072   1.275 -32.788  1.00  0.00    -0.054 N 
HETATM    3  H   UNL     1      -8.062   1.061 -31.787  1.00  0.00     0.278 HD
HETATM    4  H   UNL     1      -8.588   0.516 -33.259  1.00  0.00     0.278 HD
BRANCH   2   5
HETATM    5  C   UNL     1      -8.870   2.513 -33.022  1.00  0.00     0.272 C 
BRANCH   5   6
HETATM    6  C   UNL     1     -10.214   2.176 -33.605  1.00  0.00    -0.033 A 
HETATM    7  C   UNL     1     -10.856   3.065 -34.479  1.00  0.00     0.011 A 
HETATM    8  C   UNL     1     -12.114   2.758 -35.009  1.00  0.00     0.037 A 
HETATM    9  C   UNL     1     -12.749   1.566 -34.666  1.00  0.00     0.068 A 
HETATM   10  C   UNL     1     -12.119   0.686 -33.785  1.00  0.00     0.037 A 
HETATM   11  C   UNL     1     -10.859   0.982 -33.258  1.00  0.00     0.011 A 
BRANCH   9  12
HETATM   12  O   UNL     1     -13.972   1.150 -35.111  1.00  0.00    -0.356 OA
HETATM   13  C   UNL     1     -14.938   0.805 -34.124  1.00  0.00     0.210 C 
ENDBRANCH   9  12
ENDBRANCH   5   6
ENDBRANCH   2   5
ENDBRANCH   1   2
BRANCH   1  14
HETATM   14  C   UNL     1      -5.694   2.028 -32.470  1.00  0.00     0.259 C 
HETATM   15  N   UNL     1      -4.942   2.991 -33.101  1.00  0.00    -0.304 N 
HETATM   16  H   UNL     1      -5.010   3.186 -34.093  1.00  0.00     0.171 HD
HETATM   17  O   UNL     1      -5.706   1.764 -31.265  1.00  0.00    -0.270 OA
BRANCH  15  18
HETATM   18  C   UNL     1      -3.977   3.695 -32.433  1.00  0.00     0.172 A 
HETATM   19  S   UNL     1      -4.489   5.218 -31.860  1.00  0.00    -0.062 SA
HETATM   20  C   UNL     1      -2.912   5.484 -31.235  1.00  0.00     0.072 A 
HETATM   21  C   UNL     1      -2.117   4.390 -31.512  1.00  0.00     0.126 A 
HETATM   22  N   UNL     1      -2.735   3.367 -32.208  1.00  0.00    -0.236 NA
ENDBRANCH  15  18
ENDBRANCH   1  14
BRANCH   1  23
HETATM   23  C   UNL     1      -6.243  -0.162 -33.760  1.00  0.00    -0.019 A 
HETATM   24  C   UNL     1      -7.199  -1.056 -34.276  1.00  0.00     0.010 A 
HETATM   25  C   UNL     1      -6.841  -2.360 -34.618  1.00  0.00     0.001 A 
HETATM   26  C   UNL     1      -5.530  -2.793 -34.442  1.00  0.00     0.000 A 
HETATM   27  C   UNL     1      -4.573  -1.925 -33.923  1.00  0.00     0.001 A 
HETATM   28  C   UNL     1      -4.926  -0.618 -33.579  1.00  0.00     0.010 A 
ENDBRANCH   1  23
TORSDOF 7
ENDMDL
MODEL 5
REMARK VINA RESULT:      -7.0      1.843      2.202
REMARK  7 active torsions:
REMARK  status: ('A' for Active; 'I' for Inactive)
REMARK    1  A    between atoms: O_2  and  C_3 
REMARK    2  A    between atoms: C_6  and  C_7 
REMARK    3  A    between atoms: C_7  and  N_8 
REMARK    4  A    between atoms: N_8  and  C_11 
REMARK    5  A    between atoms: C_11  and  C_12 
REMARK    6  A    between atoms: C_11  and  C_20 
REMARK       I    between atoms: C_12  and  N_13 
REMARK    7  A    between atoms: N_13  and  C_14 
ROOT
HETATM    1  C   UNL     1      -3.801   2.483 -31.449  1.00  0.00     0.310 C 
ENDROOT
BRANCH   1   2
HETATM    2  N   UNL     1      -3.441   1.236 -32.234  1.00  0.00    -0.054 N 
HETATM    3  H   UNL     1      -2.448   1.229 -32.482  1.00  0.00     0.278 HD
HETATM    4  H   UNL     1      -3.975   1.298 -33.115  1.00  0.00     0.278 HD
BRANCH   2   5
HETATM    5  C   UNL     1      -3.810  -0.076 -31.630  1.00  0.00     0.272 C 
BRANCH   5   6
HETATM    6  C   UNL     1      -4.650  -0.882 -32.580  1.00  0.00    -0.033 A 
HETATM    7  C   UNL     1      -6.019  -0.616 -32.726  1.00  0.00     0.011 A 
HETATM    8  C   UNL     1      -6.804  -1.377 -33.599  1.00  0.00     0.037 A 
HETATM    9  C   UNL     1      -6.234  -2.419 -34.328  1.00  0.00     0.068 A 
HETATM   10  C   UNL     1      -4.874  -2.696 -34.174  1.00  0.00     0.037 A 
HETATM   11  C   UNL     1      -4.083  -1.935 -33.311  1.00  0.00     0.011 A 
BRANCH   9  12
HETATM   12  O   UNL     1      -6.886  -3.234 -35.209  1.00  0.00    -0.356 OA
HETATM   13  C   UNL     1      -6.404  -4.567 -35.337  1.00  0.00     0.210 C 
ENDBRANCH   9  12
ENDBRANCH   5   6
ENDBRANCH   2   5
ENDBRANCH   1   2
BRANCH   1  14
HETATM   14  C   UNL     1      -2.974   3.690 -31.950  1.00  0.00     0.259 C 
HETATM   15  N   UNL     1      -2.795   4.710 -31.046  1.00  0.00    -0.304 N 
HETATM   16  H   UNL     1      -3.171   4.691 -30.106  1.00  0.00     0.171 HD
HETATM   17  O   UNL     1      -2.510   3.614 -33.090  1.00  0.00    -0.270 OA
BRANCH  15  18
HETATM   18  C   UNL     1      -2.159   5.871 -31.396  1.00  0.00     0.172 A 
HETATM   19  S   UNL     1      -3.209   7.145 -31.825  1.00  0.00    -0.062 SA
HETATM   20  C   UNL     1      -1.840   8.134 -32.135  1.00  0.00     0.072 A 
HETATM   21  C   UNL     1      -0.688   7.415 -31.886  1.00  0.00     0.126 A 
HETATM   22  N   UNL     1      -0.879   6.111 -31.469  1.00  0.00    -0.236 NA
ENDBRANCH  15  18
ENDBRANCH   1  14
BRANCH   1  23
HETATM   23  C   UNL     1      -5.298   2.690 -31.347  1.00  0.00    -0.019 A 
HETATM   24  C   UNL     1      -5.932   2.529 -30.101  1.00  0.00     0.010 A 
HETATM   25  C   UNL     1      -7.313   2.686 -29.981  1.00  0.00     0.001 A 
HETATM   26  C   UNL     1      -8.081   2.996 -31.100  1.00  0.00     0.000 A 
HETATM   27  C   UNL     1      -7.471   3.150 -32.342  1.00  0.00     0.001 A 
HETATM   28  C   UNL     1      -6.089   2.994 -32.469  1.00  0.00     0.010 A 
ENDBRANCH   1  23
TORSDOF 7
ENDMDL
MODEL 6
REMARK VINA RESULT:      -7.0      3.790      7.515
REMARK  7 active torsions:
REMARK  status: ('A' for Active; 'I' for Inactive)
REMARK    1  A    between atoms: O_2  and  C_3 
REMARK    2  A    between atoms: C_6  and  C_7 
REMARK    3  A    between atoms: C_7  and  N_8 
REMARK    4  A    between atoms: N_8  and  C_11 
REMARK    5  A    between atoms: C_11  and  C_12 
REMARK    6  A    between atoms: C_11  and  C_20 
REMARK       I    between atoms: C_12  and  N_13 
REMARK    7  A    between atoms: N_13  and  C_14 
ROOT
HETATM    1  C   UNL     1      -7.630  -0.077 -32.668  1.00  0.00     0.310 C 
ENDROOT
BRANCH   1   2
HETATM    2  N   UNL     1      -6.923   1.120 -32.059  1.00  0.00    -0.054 N 
HETATM    3  H   UNL     1      -6.074   0.836 -31.564  1.00  0.00     0.278 HD
HETATM    4  H   UNL     1      -7.575   1.499 -31.356  1.00  0.00     0.278 HD
BRANCH   2   5
HETATM    5  C   UNL     1      -6.607   2.257 -32.971  1.00  0.00     0.272 C 
BRANCH   5   6
HETATM    6  C   UNL     1      -5.235   2.801 -32.687  1.00  0.00    -0.033 A 
HETATM    7  C   UNL     1      -4.422   2.213 -31.708  1.00  0.00     0.011 A 
HETATM    8  C   UNL     1      -3.151   2.730 -31.432  1.00  0.00     0.037 A 
HETATM    9  C   UNL     1      -2.682   3.845 -32.124  1.00  0.00     0.068 A 
HETATM   10  C   UNL     1      -3.495   4.441 -33.089  1.00  0.00     0.037 A 
HETATM   11  C   UNL     1      -4.762   3.926 -33.375  1.00  0.00     0.011 A 
BRANCH   9  12
HETATM   12  O   UNL     1      -1.467   4.445 -31.951  1.00  0.00    -0.356 OA
HETATM   13  C   UNL     1      -1.365   5.415 -30.914  1.00  0.00     0.210 C 
ENDBRANCH   9  12
ENDBRANCH   5   6
ENDBRANCH   2   5
ENDBRANCH   1   2
BRANCH   1  14
HETATM   14  C   UNL     1      -8.849   0.385 -33.498  1.00  0.00     0.259 C 
HETATM   15  N   UNL     1      -9.972   0.721 -32.779  1.00  0.00    -0.304 N 
HETATM   16  H   UNL     1     -10.017   0.677 -31.768  1.00  0.00     0.171 HD
HETATM   17  O   UNL     1      -8.698   0.459 -34.720  1.00  0.00    -0.270 OA
BRANCH  15  18
HETATM   18  C   UNL     1     -11.144   1.058 -33.401  1.00  0.00     0.172 A 
HETATM   19  S   UNL     1     -11.222   2.681 -33.921  1.00  0.00    -0.062 SA
HETATM   20  C   UNL     1     -12.810   2.389 -34.506  1.00  0.00     0.072 A 
HETATM   21  C   UNL     1     -13.157   1.076 -34.260  1.00  0.00     0.126 A 
HETATM   22  N   UNL     1     -12.196   0.318 -33.617  1.00  0.00    -0.236 NA
ENDBRANCH  15  18
ENDBRANCH   1  14
BRANCH   1  23
HETATM   23  C   UNL     1      -6.671  -1.029 -33.354  1.00  0.00    -0.019 A 
HETATM   24  C   UNL     1      -7.185  -2.077 -34.138  1.00  0.00     0.010 A 
HETATM   25  C   UNL     1      -6.328  -2.986 -34.758  1.00  0.00     0.001 A 
HETATM   26  C   UNL     1      -4.950  -2.868 -34.599  1.00  0.00     0.000 A 
HETATM   27  C   UNL     1      -4.425  -1.842 -33.818  1.00  0.00     0.001 A 
HETATM   28  C   UNL     1      -5.278  -0.929 -33.194  1.00  0.00     0.010 A 
ENDBRANCH   1  23
TORSDOF 7
ENDMDL
MODEL 7
REMARK VINA RESULT:      -6.8      3.582      5.129
REMARK  7 active torsions:
REMARK  status: ('A' for Active; 'I' for Inactive)
REMARK    1  A    between atoms: O_2  and  C_3 
REMARK    2  A    between atoms: C_6  and  C_7 
REMARK    3  A    between atoms: C_7  and  N_8 
REMARK    4  A    between atoms: N_8  and  C_11 
REMARK    5  A    between atoms: C_11  and  C_12 
REMARK    6  A    between atoms: C_11  and  C_20 
REMARK       I    between atoms: C_12  and  N_13 
REMARK    7  A    between atoms: N_13  and  C_14 
ROOT
HETATM    1  C   UNL     1      -9.313   1.205 -33.440  1.00  0.00     0.310 C 
ENDROOT
BRANCH   1   2
HETATM    2  N   UNL     1      -8.369   1.274 -34.627  1.00  0.00    -0.054 N 
HETATM    3  H   UNL     1      -7.537   1.828 -34.406  1.00  0.00     0.278 HD
HETATM    4  H   UNL     1      -8.886   1.779 -35.363  1.00  0.00     0.278 HD
BRANCH   2   5
HETATM    5  C   UNL     1      -7.955  -0.020 -35.240  1.00  0.00     0.272 C 
BRANCH   5   6
HETATM    6  C   UNL     1      -6.720  -0.554 -34.571  1.00  0.00    -0.033 A 
HETATM    7  C   UNL     1      -6.310  -1.879 -34.780  1.00  0.00     0.011 A 
HETATM    8  C   UNL     1      -5.169  -2.380 -34.144  1.00  0.00     0.037 A 
HETATM    9  C   UNL     1      -4.430  -1.569 -33.285  1.00  0.00     0.068 A 
HETATM   10  C   UNL     1      -4.844  -0.255 -33.064  1.00  0.00     0.037 A 
HETATM   11  C   UNL     1      -5.977   0.256 -33.701  1.00  0.00     0.011 A 
BRANCH   9  12
HETATM   12  O   UNL     1      -3.303  -1.935 -32.605  1.00  0.00    -0.356 OA
HETATM   13  C   UNL     1      -2.666  -0.933 -31.820  1.00  0.00     0.210 C 
ENDBRANCH   9  12
ENDBRANCH   5   6
ENDBRANCH   2   5
ENDBRANCH   1   2
BRANCH   1  14
HETATM   14  C   UNL     1      -8.891   2.226 -32.359  1.00  0.00     0.259 C 
HETATM   15  N   UNL     1      -7.832   3.041 -32.684  1.00  0.00    -0.304 N 
HETATM   16  H   UNL     1      -7.348   2.993 -33.572  1.00  0.00     0.171 HD
HETATM   17  O   UNL     1      -9.563   2.255 -31.325  1.00  0.00    -0.270 OA
BRANCH  15  18
HETATM   18  C   UNL     1      -7.306   3.923 -31.778  1.00  0.00     0.172 A 
HETATM   19  S   UNL     1      -6.019   3.295 -30.853  1.00  0.00    -0.062 SA
HETATM   20  C   UNL     1      -5.920   4.795 -30.021  1.00  0.00     0.072 A 
HETATM   21  C   UNL     1      -6.877   5.658 -30.515  1.00  0.00     0.126 A 
HETATM   22  N   UNL     1      -7.677   5.147 -31.521  1.00  0.00    -0.236 NA
ENDBRANCH  15  18
ENDBRANCH   1  14
BRANCH   1  23
HETATM   23  C   UNL     1     -10.769   1.230 -33.856  1.00  0.00    -0.019 A 
HETATM   24  C   UNL     1     -11.236   2.279 -34.668  1.00  0.00     0.010 A 
HETATM   25  C   UNL     1     -12.577   2.343 -35.045  1.00  0.00     0.001 A 
HETATM   26  C   UNL     1     -13.472   1.369 -34.610  1.00  0.00     0.000 A 
HETATM   27  C   UNL     1     -13.029   0.329 -33.798  1.00  0.00     0.001 A 
HETATM   28  C   UNL     1     -11.688   0.260 -33.418  1.00  0.00     0.010 A 
ENDBRANCH   1  23
TORSDOF 7
ENDMDL
MODEL 8
REMARK VINA RESULT:      -6.8     14.887     16.021
REMARK  7 active torsions:
REMARK  status: ('A' for Active; 'I' for Inactive)
REMARK    1  A    between atoms: O_2  and  C_3 
REMARK    2  A    between atoms: C_6  and  C_7 
REMARK    3  A    between atoms: C_7  and  N_8 
REMARK    4  A    between atoms: N_8  and  C_11 
REMARK    5  A    between atoms: C_11  and  C_12 
REMARK    6  A    between atoms: C_11  and  C_20 
REMARK       I    between atoms: C_12  and  N_13 
REMARK    7  A    between atoms: N_13  and  C_14 
ROOT
HETATM    1  C   UNL     1      -7.450 -12.863 -37.635  1.00  0.00     0.310 C 
ENDROOT
BRANCH   1   2
HETATM    2  N   UNL     1      -7.699 -13.512 -36.286  1.00  0.00    -0.054 N 
HETATM    3  H   UNL     1      -8.700 -13.584 -36.088  1.00  0.00     0.278 HD
HETATM    4  H   UNL     1      -7.295 -12.867 -35.589  1.00  0.00     0.278 HD
BRANCH   2   5
HETATM    5  C   UNL     1      -7.049 -14.831 -36.038  1.00  0.00     0.272 C 
BRANCH   5   6
HETATM    6  C   UNL     1      -6.585 -14.937 -34.613  1.00  0.00    -0.033 A 
HETATM    7  C   UNL     1      -6.786 -16.116 -33.881  1.00  0.00     0.011 A 
HETATM    8  C   UNL     1      -6.368 -16.208 -32.549  1.00  0.00     0.037 A 
HETATM    9  C   UNL     1      -5.754 -15.121 -31.929  1.00  0.00     0.068 A 
HETATM   10  C   UNL     1      -5.567 -13.941 -32.650  1.00  0.00     0.037 A 
HETATM   11  C   UNL     1      -5.974 -13.844 -33.983  1.00  0.00     0.011 A 
BRANCH   9  12
HETATM   12  O   UNL     1      -5.303 -15.081 -30.640  1.00  0.00    -0.356 OA
HETATM   13  C   UNL     1      -5.217 -16.319 -29.944  1.00  0.00     0.210 C 
ENDBRANCH   9  12
ENDBRANCH   5   6
ENDBRANCH   2   5
ENDBRANCH   1   2
BRANCH   1  14
HETATM   14  C   UNL     1      -5.988 -13.092 -38.079  1.00  0.00     0.259 C 
HETATM   15  N   UNL     1      -5.020 -12.597 -37.238  1.00  0.00    -0.304 N 
HETATM   16  H   UNL     1      -5.232 -12.111 -36.374  1.00  0.00     0.171 HD
HETATM   17  O   UNL     1      -5.814 -13.736 -39.117  1.00  0.00    -0.270 OA
BRANCH  15  18
HETATM   18  C   UNL     1      -3.692 -12.656 -37.564  1.00  0.00     0.172 A 
HETATM   19  S   UNL     1      -2.867 -13.998 -36.911  1.00  0.00    -0.062 SA
HETATM   20  C   UNL     1      -1.420 -13.432 -37.642  1.00  0.00     0.072 A 
HETATM   21  C   UNL     1      -1.679 -12.263 -38.328  1.00  0.00     0.126 A 
HETATM   22  N   UNL     1      -2.987 -11.817 -38.272  1.00  0.00    -0.236 NA
ENDBRANCH  15  18
ENDBRANCH   1  14
BRANCH   1  23
HETATM   23  C   UNL     1      -8.523 -13.204 -38.648  1.00  0.00    -0.019 A 
HETATM   24  C   UNL     1      -9.073 -12.181 -39.440  1.00  0.00     0.010 A 
HETATM   25  C   UNL     1     -10.082 -12.460 -40.362  1.00  0.00     0.001 A 
HETATM   26  C   UNL     1     -10.562 -13.760 -40.501  1.00  0.00     0.000 A 
HETATM   27  C   UNL     1     -10.034 -14.783 -39.718  1.00  0.00     0.001 A 
HETATM   28  C   UNL     1      -9.025 -14.510 -38.793  1.00  0.00     0.010 A 
ENDBRANCH   1  23
TORSDOF 7
ENDMDL
MODEL 9
REMARK VINA RESULT:      -6.6      3.349      6.799
REMARK  7 active torsions:
REMARK  status: ('A' for Active; 'I' for Inactive)
REMARK    1  A    between atoms: O_2  and  C_3 
REMARK    2  A    between atoms: C_6  and  C_7 
REMARK    3  A    between atoms: C_7  and  N_8 
REMARK    4  A    between atoms: N_8  and  C_11 
REMARK    5  A    between atoms: C_11  and  C_12 
REMARK    6  A    between atoms: C_11  and  C_20 
REMARK       I    between atoms: C_12  and  N_13 
REMARK    7  A    between atoms: N_13  and  C_14 
ROOT
HETATM    1  C   UNL     1      -5.365   2.409 -31.960  1.00  0.00     0.310 C 
ENDROOT
BRANCH   1   2
HETATM    2  N   UNL     1      -6.836   2.783 -31.956  1.00  0.00    -0.054 N 
HETATM    3  H   UNL     1      -7.181   2.939 -32.907  1.00  0.00     0.278 HD
HETATM    4  H   UNL     1      -6.891   3.686 -31.459  1.00  0.00     0.278 HD
BRANCH   2   5
HETATM    5  C   UNL     1      -7.767   1.869 -31.235  1.00  0.00     0.272 C 
BRANCH   5   6
HETATM    6  C   UNL     1      -9.012   1.632 -32.043  1.00  0.00    -0.033 A 
HETATM    7  C   UNL     1      -9.794   2.709 -32.482  1.00  0.00     0.011 A 
HETATM    8  C   UNL     1     -10.961   2.487 -33.221  1.00  0.00     0.037 A 
HETATM    9  C   UNL     1     -11.366   1.188 -33.521  1.00  0.00     0.068 A 
HETATM   10  C   UNL     1     -10.598   0.113 -33.071  1.00  0.00     0.037 A 
HETATM   11  C   UNL     1      -9.426   0.326 -32.340  1.00  0.00     0.011 A 
BRANCH   9  12
HETATM   12  O   UNL     1     -12.480   0.836 -34.230  1.00  0.00    -0.356 OA
HETATM   13  C   UNL     1     -13.331  -0.149 -33.653  1.00  0.00     0.210 C 
ENDBRANCH   9  12
ENDBRANCH   5   6
ENDBRANCH   2   5
ENDBRANCH   1   2
BRANCH   1  14
HETATM   14  C   UNL     1      -5.197   0.900 -32.252  1.00  0.00     0.259 C 
HETATM   15  N   UNL     1      -5.436   0.509 -33.549  1.00  0.00    -0.304 N 
HETATM   16  H   UNL     1      -5.705   1.155 -34.281  1.00  0.00     0.171 HD
HETATM   17  O   UNL     1      -4.819   0.189 -31.318  1.00  0.00    -0.270 OA
BRANCH  15  18
HETATM   18  C   UNL     1      -5.409  -0.809 -33.914  1.00  0.00     0.172 A 
HETATM   19  S   UNL     1      -6.909  -1.422 -34.447  1.00  0.00    -0.062 SA
HETATM   20  C   UNL     1      -6.172  -2.958 -34.670  1.00  0.00     0.072 A 
HETATM   21  C   UNL     1      -4.839  -2.883 -34.321  1.00  0.00     0.126 A 
HETATM   22  N   UNL     1      -4.408  -1.646 -33.879  1.00  0.00    -0.236 NA
ENDBRANCH  15  18
ENDBRANCH   1  14
BRANCH   1  23
HETATM   23  C   UNL     1      -4.529   3.354 -32.798  1.00  0.00    -0.019 A 
HETATM   24  C   UNL     1      -3.139   3.409 -32.592  1.00  0.00     0.010 A 
HETATM   25  C   UNL     1      -2.346   4.290 -33.329  1.00  0.00     0.001 A 
HETATM   26  C   UNL     1      -2.929   5.131 -34.273  1.00  0.00     0.000 A 
HETATM   27  C   UNL     1      -4.305   5.095 -34.482  1.00  0.00     0.001 A 
HETATM   28  C   UNL     1      -5.103   4.217 -33.748  1.00  0.00     0.010 A 
ENDBRANCH   1  23
TORSDOF 7
ENDMDL
MODEL 10
REMARK VINA RESULT:      -6.6     14.988     16.756
REMARK  7 active torsions:
REMARK  status: ('A' for Active; 'I' for Inactive)
REMARK    1  A    between atoms: O_2  and  C_3 
REMARK    2  A    between atoms: C_6  and  C_7 
REMARK    3  A    between atoms: C_7  and  N_8 
REMARK    4  A    between atoms: N_8  and  C_11 
REMARK    5  A    between atoms: C_11  and  C_12 
REMARK    6  A    between atoms: C_11  and  C_20 
REMARK       I    between atoms: C_12  and  N_13 
REMARK    7  A    between atoms: N_13  and  C_14 
ROOT
HETATM    1  C   UNL     1      -2.656 -13.504 -37.303  1.00  0.00     0.310 C 
ENDROOT
BRANCH   1   2
HETATM    2  N   UNL     1      -3.190 -13.115 -38.670  1.00  0.00    -0.054 N 
HETATM    3  H   UNL     1      -3.665 -13.902 -39.119  1.00  0.00     0.278 HD
HETATM    4  H   UNL     1      -2.358 -12.893 -39.239  1.00  0.00     0.278 HD
BRANCH   2   5
HETATM    5  C   UNL     1      -4.060 -11.906 -38.739  1.00  0.00     0.272 C 
BRANCH   5   6
HETATM    6  C   UNL     1      -5.431 -12.266 -39.240  1.00  0.00    -0.033 A 
HETATM    7  C   UNL     1      -5.672 -12.419 -40.612  1.00  0.00     0.011 A 
HETATM    8  C   UNL     1      -6.952 -12.738 -41.079  1.00  0.00     0.037 A 
HETATM    9  C   UNL     1      -8.007 -12.897 -40.182  1.00  0.00     0.068 A 
HETATM   10  C   UNL     1      -7.773 -12.729 -38.816  1.00  0.00     0.037 A 
HETATM   11  C   UNL     1      -6.496 -12.419 -38.342  1.00  0.00     0.011 A 
BRANCH   9  12
HETATM   12  O   UNL     1      -9.298 -13.206 -40.506  1.00  0.00    -0.356 OA
HETATM   13  C   UNL     1     -10.325 -12.473 -39.848  1.00  0.00     0.210 C 
ENDBRANCH   9  12
ENDBRANCH   5   6
ENDBRANCH   2   5
ENDBRANCH   1   2
BRANCH   1  14
HETATM   14  C   UNL     1      -3.752 -14.225 -36.485  1.00  0.00     0.259 C 
HETATM   15  N   UNL     1      -4.143 -13.600 -35.324  1.00  0.00    -0.304 N 
HETATM   16  H   UNL     1      -3.751 -12.720 -35.009  1.00  0.00     0.171 HD
HETATM   17  O   UNL     1      -4.212 -15.265 -36.962  1.00  0.00    -0.270 OA
BRANCH  15  18
HETATM   18  C   UNL     1      -5.039 -14.180 -34.467  1.00  0.00     0.172 A 
HETATM   19  S   UNL     1      -6.645 -13.639 -34.657  1.00  0.00    -0.062 SA
HETATM   20  C   UNL     1      -7.117 -14.672 -33.368  1.00  0.00     0.072 A 
HETATM   21  C   UNL     1      -6.012 -15.349 -32.894  1.00  0.00     0.126 A 
HETATM   22  N   UNL     1      -4.818 -15.056 -33.526  1.00  0.00    -0.236 NA
ENDBRANCH  15  18
ENDBRANCH   1  14
BRANCH   1  23
HETATM   23  C   UNL     1      -1.311 -14.195 -37.382  1.00  0.00    -0.019 A 
HETATM   24  C   UNL     1      -0.458 -13.920 -38.465  1.00  0.00     0.010 A 
HETATM   25  C   UNL     1       0.775 -14.563 -38.579  1.00  0.00     0.001 A 
HETATM   26  C   UNL     1       1.170 -15.493 -37.621  1.00  0.00     0.000 A 
HETATM   27  C   UNL     1       0.333 -15.783 -36.547  1.00  0.00     0.001 A 
HETATM   28  C   UNL     1      -0.902 -15.144 -36.428  1.00  0.00     0.010 A 
ENDBRANCH   1  23
TORSDOF 7
ENDMDL
