MODEL 1
REMARK VINA RESULT:      -9.0      0.000      0.000
REMARK  6 active torsions:
REMARK  status: ('A' for Active; 'I' for Inactive)
REMARK    1  A    between atoms: O_2  and  C_3 
REMARK    2  A    between atoms: C_6  and  C_7 
REMARK    3  A    between atoms: C_12  and  C_13 
REMARK       I    between atoms: C_13  and  N_14 
REMARK    4  A    between atoms: N_14  and  C_15 
REMARK    5  A    between atoms: C_17  and  O_18 
REMARK    6  A    between atoms: C_24  and  C_25 
ROOT
HETATM    1  C   UNL     1     -12.157   3.707 -32.187  1.00  0.00     0.118 C 
HETATM    2  N   UNL     1     -11.310   2.531 -32.024  1.00  0.00    -0.366 N 
HETATM    3  C   UNL     1     -10.429   2.119 -32.959  1.00  0.00     0.123 A 
HETATM    4  N   UNL     1     -10.352   2.715 -34.184  1.00  0.00    -0.240 N 
HETATM    5  N   UNL     1      -9.368   2.236 -34.969  1.00  0.00    -0.165 NA
HETATM    6  C   UNL     1      -8.844   1.228 -34.231  1.00  0.00     0.148 A 
HETATM    7  C   UNL     1      -9.487   1.126 -32.966  1.00  0.00     0.089 A 
HETATM    8  C   UNL     1     -11.199   3.816 -34.598  1.00  0.00     0.221 C 
HETATM    9  C   UNL     1     -11.692   4.588 -33.363  1.00  0.00     0.066 C 
HETATM   10  H   UNL     1     -11.394   2.052 -31.128  1.00  0.00     0.161 HD
ENDROOT
BRANCH   6  11
HETATM   11  C   UNL     1      -7.737   0.388 -34.724  1.00  0.00     0.276 C 
HETATM   12  N   UNL     1      -7.547  -0.729 -33.933  1.00  0.00    -0.322 N 
HETATM   13  H   UNL     1      -8.193  -0.781 -33.149  1.00  0.00     0.169 HD
HETATM   14  O   UNL     1      -7.098   0.696 -35.724  1.00  0.00    -0.266 OA
BRANCH  12  15
HETATM   15  C   UNL     1      -6.600  -1.756 -34.084  1.00  0.00     0.037 A 
HETATM   16  C   UNL     1      -6.877  -2.985 -34.687  1.00  0.00     0.066 A 
HETATM   17  C   UNL     1      -5.872  -3.947 -34.792  1.00  0.00     0.067 A 
HETATM   18  C   UNL     1      -4.594  -3.708 -34.304  1.00  0.00     0.036 A 
HETATM   19  C   UNL     1      -4.311  -2.484 -33.702  1.00  0.00     0.005 A 
HETATM   20  C   UNL     1      -5.310  -1.513 -33.592  1.00  0.00     0.029 A 
BRANCH  17  21
HETATM   21  O   UNL     1      -6.110  -5.158 -35.377  1.00  0.00    -0.361 OA
HETATM   22  H   UNL     1      -5.316  -5.709 -35.272  1.00  0.00     0.217 HD
ENDBRANCH  17  21
ENDBRANCH  12  15
ENDBRANCH   6  11
BRANCH   8  23
HETATM   23  C   UNL     1     -12.301   3.307 -35.498  1.00  0.00     0.409 C 
HETATM   24  F   UNL     1     -12.616   2.014 -35.306  1.00  0.00    -0.169 F 
HETATM   25  F   UNL     1     -13.433   4.032 -35.305  1.00  0.00    -0.169 F 
HETATM   26  F   UNL     1     -11.979   3.453 -36.806  1.00  0.00    -0.169 F 
ENDBRANCH   8  23
BRANCH   1  27
HETATM   27  C   UNL     1     -13.636   3.364 -32.201  1.00  0.00    -0.035 A 
HETATM   28  C   UNL     1     -14.037   2.079 -32.604  1.00  0.00     0.012 A 
HETATM   29  C   UNL     1     -15.391   1.719 -32.652  1.00  0.00     0.037 A 
HETATM   30  C   UNL     1     -16.372   2.639 -32.294  1.00  0.00     0.068 A 
HETATM   31  C   UNL     1     -15.987   3.920 -31.899  1.00  0.00     0.037 A 
HETATM   32  C   UNL     1     -14.637   4.281 -31.856  1.00  0.00     0.012 A 
BRANCH  30  33
HETATM   33  O   UNL     1     -17.721   2.420 -32.293  1.00  0.00    -0.356 OA
HETATM   34  C   UNL     1     -18.531   3.379 -32.961  1.00  0.00     0.210 C 
ENDBRANCH  30  33
ENDBRANCH   1  27
TORSDOF 6
ENDMDL
MODEL 2
REMARK VINA RESULT:      -8.8      6.961      9.581
REMARK  6 active torsions:
REMARK  status: ('A' for Active; 'I' for Inactive)
REMARK    1  A    between atoms: O_2  and  C_3 
REMARK    2  A    between atoms: C_6  and  C_7 
REMARK    3  A    between atoms: C_12  and  C_13 
REMARK       I    between atoms: C_13  and  N_14 
REMARK    4  A    between atoms: N_14  and  C_15 
REMARK    5  A    between atoms: C_17  and  O_18 
REMARK    6  A    between atoms: C_24  and  C_25 
ROOT
HETATM    1  C   UNL     1      -2.711   5.521 -32.839  1.00  0.00     0.118 C 
HETATM    2  N   UNL     1      -2.433   4.092 -32.755  1.00  0.00    -0.366 N 
HETATM    3  C   UNL     1      -3.398   3.157 -32.638  1.00  0.00     0.123 A 
HETATM    4  N   UNL     1      -4.709   3.497 -32.472  1.00  0.00    -0.240 N 
HETATM    5  N   UNL     1      -5.552   2.446 -32.451  1.00  0.00    -0.165 NA
HETATM    6  C   UNL     1      -4.721   1.379 -32.530  1.00  0.00     0.148 A 
HETATM    7  C   UNL     1      -3.363   1.789 -32.646  1.00  0.00     0.089 A 
HETATM    8  C   UNL     1      -5.182   4.864 -32.393  1.00  0.00     0.221 C 
HETATM    9  C   UNL     1      -4.200   5.799 -33.118  1.00  0.00     0.066 C 
HETATM   10  H   UNL     1      -1.450   3.832 -32.833  1.00  0.00     0.161 HD
ENDROOT
BRANCH   6  11
HETATM   11  C   UNL     1      -5.222  -0.008 -32.508  1.00  0.00     0.276 C 
HETATM   12  N   UNL     1      -4.891  -0.692 -33.663  1.00  0.00    -0.322 N 
HETATM   13  H   UNL     1      -4.368  -0.128 -34.328  1.00  0.00     0.169 HD
HETATM   14  O   UNL     1      -5.850  -0.446 -31.551  1.00  0.00    -0.266 OA
BRANCH  12  15
HETATM   15  C   UNL     1      -5.187  -2.022 -34.007  1.00  0.00     0.037 A 
HETATM   16  C   UNL     1      -4.272  -3.073 -33.902  1.00  0.00     0.066 A 
HETATM   17  C   UNL     1      -4.656  -4.364 -34.267  1.00  0.00     0.067 A 
HETATM   18  C   UNL     1      -5.935  -4.627 -34.737  1.00  0.00     0.036 A 
HETATM   19  C   UNL     1      -6.853  -3.585 -34.843  1.00  0.00     0.005 A 
HETATM   20  C   UNL     1      -6.479  -2.288 -34.479  1.00  0.00     0.029 A 
BRANCH  17  21
HETATM   21  O   UNL     1      -3.786  -5.412 -34.176  1.00  0.00    -0.361 OA
HETATM   22  H   UNL     1      -3.174  -5.238 -33.440  1.00  0.00     0.217 HD
ENDBRANCH  17  21
ENDBRANCH  12  15
ENDBRANCH   6  11
BRANCH   8  23
HETATM   23  C   UNL     1      -5.450   5.234 -30.952  1.00  0.00     0.409 C 
HETATM   24  F   UNL     1      -4.573   4.711 -30.078  1.00  0.00    -0.169 F 
HETATM   25  F   UNL     1      -5.414   6.583 -30.803  1.00  0.00    -0.169 F 
HETATM   26  F   UNL     1      -6.687   4.845 -30.563  1.00  0.00    -0.169 F 
ENDBRANCH   8  23
BRANCH   1  27
HETATM   27  C   UNL     1      -2.131   6.298 -31.670  1.00  0.00    -0.035 A 
HETATM   28  C   UNL     1      -2.413   7.670 -31.551  1.00  0.00     0.012 A 
HETATM   29  C   UNL     1      -1.887   8.435 -30.502  1.00  0.00     0.037 A 
HETATM   30  C   UNL     1      -1.068   7.841 -29.546  1.00  0.00     0.068 A 
HETATM   31  C   UNL     1      -0.775   6.482 -29.656  1.00  0.00     0.037 A 
HETATM   32  C   UNL     1      -1.296   5.719 -30.706  1.00  0.00     0.012 A 
BRANCH  30  33
HETATM   33  O   UNL     1      -0.494   8.467 -28.475  1.00  0.00    -0.356 OA
HETATM   34  C   UNL     1       0.867   8.159 -28.203  1.00  0.00     0.210 C 
ENDBRANCH  30  33
ENDBRANCH   1  27
TORSDOF 6
ENDMDL
MODEL 3
REMARK VINA RESULT:      -8.7      9.107     11.736
REMARK  6 active torsions:
REMARK  status: ('A' for Active; 'I' for Inactive)
REMARK    1  A    between atoms: O_2  and  C_3 
REMARK    2  A    between atoms: C_6  and  C_7 
REMARK    3  A    between atoms: C_12  and  C_13 
REMARK       I    between atoms: C_13  and  N_14 
REMARK    4  A    between atoms: N_14  and  C_15 
REMARK    5  A    between atoms: C_17  and  O_18 
REMARK    6  A    between atoms: C_24  and  C_25 
ROOT
HETATM    1  C   UNL     1       0.179   6.079 -30.864  1.00  0.00     0.118 C 
HETATM    2  N   UNL     1      -0.664   4.890 -30.887  1.00  0.00    -0.366 N 
HETATM    3  C   UNL     1      -1.844   4.834 -31.538  1.00  0.00     0.123 A 
HETATM    4  N   UNL     1      -2.390   5.936 -32.130  1.00  0.00    -0.240 N 
HETATM    5  N   UNL     1      -3.531   5.691 -32.804  1.00  0.00    -0.165 NA
HETATM    6  C   UNL     1      -3.761   4.378 -32.560  1.00  0.00     0.148 A 
HETATM    7  C   UNL     1      -2.724   3.811 -31.767  1.00  0.00     0.089 A 
HETATM    8  C   UNL     1      -1.777   7.249 -32.107  1.00  0.00     0.221 C 
HETATM    9  C   UNL     1      -0.257   7.111 -31.922  1.00  0.00     0.066 C 
HETATM   10  H   UNL     1      -0.285   4.075 -30.408  1.00  0.00     0.161 HD
ENDROOT
BRANCH   6  11
HETATM   11  C   UNL     1      -4.946   3.679 -33.089  1.00  0.00     0.276 C 
HETATM   12  N   UNL     1      -5.216   2.520 -32.385  1.00  0.00    -0.322 N 
HETATM   13  H   UNL     1      -4.555   2.344 -31.632  1.00  0.00     0.169 HD
HETATM   14  O   UNL     1      -5.578   4.121 -34.041  1.00  0.00    -0.266 OA
BRANCH  12  15
HETATM   15  C   UNL     1      -6.255   1.595 -32.588  1.00  0.00     0.037 A 
HETATM   16  C   UNL     1      -7.374   1.490 -31.757  1.00  0.00     0.066 A 
HETATM   17  C   UNL     1      -8.357   0.541 -32.037  1.00  0.00     0.067 A 
HETATM   18  C   UNL     1      -8.245  -0.309 -33.129  1.00  0.00     0.036 A 
HETATM   19  C   UNL     1      -7.133  -0.210 -33.961  1.00  0.00     0.005 A 
HETATM   20  C   UNL     1      -6.142   0.739 -33.690  1.00  0.00     0.029 A 
BRANCH  17  21
HETATM   21  O   UNL     1      -9.462   0.414 -31.245  1.00  0.00    -0.361 OA
HETATM   22  H   UNL     1     -10.213   0.159 -31.808  1.00  0.00     0.217 HD
ENDBRANCH  17  21
ENDBRANCH  12  15
ENDBRANCH   6  11
BRANCH   8  23
HETATM   23  C   UNL     1      -2.458   8.116 -31.073  1.00  0.00     0.409 C 
HETATM   24  F   UNL     1      -2.819   7.461 -29.956  1.00  0.00    -0.169 F 
HETATM   25  F   UNL     1      -1.633   9.129 -30.700  1.00  0.00    -0.169 F 
HETATM   26  F   UNL     1      -3.571   8.702 -31.574  1.00  0.00    -0.169 F 
ENDBRANCH   8  23
BRANCH   1  27
HETATM   27  C   UNL     1       0.354   6.644 -29.465  1.00  0.00    -0.035 A 
HETATM   28  C   UNL     1      -0.147   5.923 -28.367  1.00  0.00     0.012 A 
HETATM   29  C   UNL     1      -0.028   6.410 -27.059  1.00  0.00     0.037 A 
HETATM   30  C   UNL     1       0.598   7.630 -26.821  1.00  0.00     0.068 A 
HETATM   31  C   UNL     1       1.094   8.359 -27.902  1.00  0.00     0.037 A 
HETATM   32  C   UNL     1       0.971   7.875 -29.209  1.00  0.00     0.012 A 
BRANCH  30  33
HETATM   33  O   UNL     1       0.784   8.217 -25.601  1.00  0.00    -0.356 OA
HETATM   34  C   UNL     1       2.102   8.647 -25.286  1.00  0.00     0.210 C 
ENDBRANCH  30  33
ENDBRANCH   1  27
TORSDOF 6
ENDMDL
MODEL 4
REMARK VINA RESULT:      -8.6      3.002      9.610
REMARK  6 active torsions:
REMARK  status: ('A' for Active; 'I' for Inactive)
REMARK    1  A    between atoms: O_2  and  C_3 
REMARK    2  A    between atoms: C_6  and  C_7 
REMARK    3  A    between atoms: C_12  and  C_13 
REMARK       I    between atoms: C_13  and  N_14 
REMARK    4  A    between atoms: N_14  and  C_15 
REMARK    5  A    between atoms: C_17  and  O_18 
REMARK    6  A    between atoms: C_24  and  C_25 
ROOT
HETATM    1  C   UNL     1      -6.815   0.738 -34.799  1.00  0.00     0.118 C 
HETATM    2  N   UNL     1      -8.267   0.870 -34.834  1.00  0.00    -0.366 N 
HETATM    3  C   UNL     1      -8.969   1.564 -33.916  1.00  0.00     0.123 A 
HETATM    4  N   UNL     1      -8.372   2.101 -32.813  1.00  0.00    -0.240 N 
HETATM    5  N   UNL     1      -9.199   2.829 -32.038  1.00  0.00    -0.165 NA
HETATM    6  C   UNL     1     -10.402   2.681 -32.642  1.00  0.00     0.148 A 
HETATM    7  C   UNL     1     -10.295   1.891 -33.821  1.00  0.00     0.089 A 
HETATM    8  C   UNL     1      -6.959   1.969 -32.518  1.00  0.00     0.221 C 
HETATM    9  C   UNL     1      -6.174   1.740 -33.820  1.00  0.00     0.066 C 
HETATM   10  H   UNL     1      -8.727   0.432 -35.632  1.00  0.00     0.161 HD
ENDROOT
BRANCH   6  11
HETATM   11  C   UNL     1     -11.630   3.297 -32.106  1.00  0.00     0.276 C 
HETATM   12  N   UNL     1     -12.766   2.779 -32.698  1.00  0.00    -0.322 N 
HETATM   13  H   UNL     1     -12.566   2.070 -33.400  1.00  0.00     0.169 HD
HETATM   14  O   UNL     1     -11.586   4.160 -31.237  1.00  0.00    -0.266 OA
BRANCH  12  15
HETATM   15  C   UNL     1     -14.110   3.109 -32.450  1.00  0.00     0.037 A 
HETATM   16  C   UNL     1     -14.562   4.413 -32.235  1.00  0.00     0.066 A 
HETATM   17  C   UNL     1     -15.917   4.646 -31.996  1.00  0.00     0.067 A 
HETATM   18  C   UNL     1     -16.831   3.601 -31.966  1.00  0.00     0.036 A 
HETATM   19  C   UNL     1     -16.387   2.298 -32.180  1.00  0.00     0.005 A 
HETATM   20  C   UNL     1     -15.032   2.054 -32.421  1.00  0.00     0.029 A 
BRANCH  17  21
HETATM   21  O   UNL     1     -16.390   5.908 -31.783  1.00  0.00    -0.361 OA
HETATM   22  H   UNL     1     -17.121   6.069 -32.404  1.00  0.00     0.217 HD
ENDBRANCH  17  21
ENDBRANCH  12  15
ENDBRANCH   6  11
BRANCH   8  23
HETATM   23  C   UNL     1      -6.750   0.906 -31.465  1.00  0.00     0.409 C 
HETATM   24  F   UNL     1      -7.561  -0.160 -31.590  1.00  0.00    -0.169 F 
HETATM   25  F   UNL     1      -5.471   0.449 -31.512  1.00  0.00    -0.169 F 
HETATM   26  F   UNL     1      -6.926   1.402 -30.218  1.00  0.00    -0.169 F 
ENDBRANCH   8  23
BRANCH   1  27
HETATM   27  C   UNL     1      -6.364  -0.700 -34.617  1.00  0.00    -0.035 A 
HETATM   28  C   UNL     1      -5.044  -0.958 -34.207  1.00  0.00     0.012 A 
HETATM   29  C   UNL     1      -4.574  -2.268 -34.043  1.00  0.00     0.037 A 
HETATM   30  C   UNL     1      -5.417  -3.349 -34.284  1.00  0.00     0.068 A 
HETATM   31  C   UNL     1      -6.727  -3.107 -34.698  1.00  0.00     0.037 A 
HETATM   32  C   UNL     1      -7.195  -1.800 -34.866  1.00  0.00     0.012 A 
BRANCH  30  33
HETATM   33  O   UNL     1      -5.089  -4.670 -34.161  1.00  0.00    -0.356 OA
HETATM   34  C   UNL     1      -3.792  -4.969 -33.660  1.00  0.00     0.210 C 
ENDBRANCH  30  33
ENDBRANCH   1  27
TORSDOF 6
ENDMDL
MODEL 5
REMARK VINA RESULT:      -8.5      6.302      9.770
REMARK  6 active torsions:
REMARK  status: ('A' for Active; 'I' for Inactive)
REMARK    1  A    between atoms: O_2  and  C_3 
REMARK    2  A    between atoms: C_6  and  C_7 
REMARK    3  A    between atoms: C_12  and  C_13 
REMARK       I    between atoms: C_13  and  N_14 
REMARK    4  A    between atoms: N_14  and  C_15 
REMARK    5  A    between atoms: C_17  and  O_18 
REMARK    6  A    between atoms: C_24  and  C_25 
ROOT
HETATM    1  C   UNL     1      -7.948   0.318 -32.316  1.00  0.00     0.118 C 
HETATM    2  N   UNL     1      -7.502   0.871 -31.042  1.00  0.00    -0.366 N 
HETATM    3  C   UNL     1      -7.279   2.186 -30.845  1.00  0.00     0.123 A 
HETATM    4  N   UNL     1      -7.344   3.086 -31.868  1.00  0.00    -0.240 N 
HETATM    5  N   UNL     1      -7.172   4.366 -31.488  1.00  0.00    -0.165 NA
HETATM    6  C   UNL     1      -6.907   4.265 -30.164  1.00  0.00     0.148 A 
HETATM    7  C   UNL     1      -6.963   2.911 -29.728  1.00  0.00     0.089 A 
HETATM    8  C   UNL     1      -7.639   2.724 -33.241  1.00  0.00     0.221 C 
HETATM    9  C   UNL     1      -8.448   1.417 -33.273  1.00  0.00     0.066 C 
HETATM   10  H   UNL     1      -7.407   0.198 -30.282  1.00  0.00     0.161 HD
ENDROOT
BRANCH   6  11
HETATM   11  C   UNL     1      -6.618   5.445 -29.329  1.00  0.00     0.276 C 
HETATM   12  N   UNL     1      -5.298   5.476 -28.920  1.00  0.00    -0.322 N 
HETATM   13  H   UNL     1      -4.755   4.685 -29.256  1.00  0.00     0.169 HD
HETATM   14  O   UNL     1      -7.487   6.269 -29.064  1.00  0.00    -0.266 OA
BRANCH  12  15
HETATM   15  C   UNL     1      -4.651   6.436 -28.123  1.00  0.00     0.037 A 
HETATM   16  C   UNL     1      -4.982   6.689 -26.789  1.00  0.00     0.066 A 
HETATM   17  C   UNL     1      -4.284   7.664 -26.075  1.00  0.00     0.067 A 
HETATM   18  C   UNL     1      -3.262   8.394 -26.668  1.00  0.00     0.036 A 
HETATM   19  C   UNL     1      -2.927   8.147 -27.997  1.00  0.00     0.005 A 
HETATM   20  C   UNL     1      -3.620   7.172 -28.720  1.00  0.00     0.029 A 
BRANCH  17  21
HETATM   21  O   UNL     1      -4.582   7.933 -24.771  1.00  0.00    -0.361 OA
HETATM   22  H   UNL     1      -4.013   8.663 -24.472  1.00  0.00     0.217 HD
ENDBRANCH  17  21
ENDBRANCH  12  15
ENDBRANCH   6  11
BRANCH   8  23
HETATM   23  C   UNL     1      -6.363   2.690 -34.050  1.00  0.00     0.409 C 
HETATM   24  F   UNL     1      -6.046   3.862 -34.627  1.00  0.00    -0.169 F 
HETATM   25  F   UNL     1      -5.319   2.333 -33.259  1.00  0.00    -0.169 F 
HETATM   26  F   UNL     1      -6.425   1.761 -35.033  1.00  0.00    -0.169 F 
ENDBRANCH   8  23
BRANCH   1  27
HETATM   27  C   UNL     1      -6.935  -0.636 -32.924  1.00  0.00    -0.035 A 
HETATM   28  C   UNL     1      -5.655  -0.735 -32.351  1.00  0.00     0.012 A 
HETATM   29  C   UNL     1      -4.680  -1.586 -32.887  1.00  0.00     0.037 A 
HETATM   30  C   UNL     1      -4.966  -2.360 -34.008  1.00  0.00     0.068 A 
HETATM   31  C   UNL     1      -6.230  -2.267 -34.590  1.00  0.00     0.037 A 
HETATM   32  C   UNL     1      -7.202  -1.413 -34.059  1.00  0.00     0.012 A 
BRANCH  30  33
HETATM   33  O   UNL     1      -4.112  -3.229 -34.627  1.00  0.00    -0.356 OA
HETATM   34  C   UNL     1      -3.751  -4.400 -33.907  1.00  0.00     0.210 C 
ENDBRANCH  30  33
ENDBRANCH   1  27
TORSDOF 6
ENDMDL
MODEL 6
REMARK VINA RESULT:      -8.4      2.873      9.524
REMARK  6 active torsions:
REMARK  status: ('A' for Active; 'I' for Inactive)
REMARK    1  A    between atoms: O_2  and  C_3 
REMARK    2  A    between atoms: C_6  and  C_7 
REMARK    3  A    between atoms: C_12  and  C_13 
REMARK       I    between atoms: C_13  and  N_14 
REMARK    4  A    between atoms: N_14  and  C_15 
REMARK    5  A    between atoms: C_17  and  O_18 
REMARK    6  A    between atoms: C_24  and  C_25 
ROOT
HETATM    1  C   UNL     1      -7.016   1.149 -34.694  1.00  0.00     0.118 C 
HETATM    2  N   UNL     1      -8.357   0.699 -35.049  1.00  0.00    -0.366 N 
HETATM    3  C   UNL     1      -9.466   1.091 -34.391  1.00  0.00     0.123 A 
HETATM    4  N   UNL     1      -9.399   1.856 -33.262  1.00  0.00    -0.240 N 
HETATM    5  N   UNL     1     -10.598   2.226 -32.775  1.00  0.00    -0.165 NA
HETATM    6  C   UNL     1     -11.475   1.596 -33.593  1.00  0.00     0.148 A 
HETATM    7  C   UNL     1     -10.799   0.874 -34.616  1.00  0.00     0.089 A 
HETATM    8  C   UNL     1      -8.155   2.300 -32.665  1.00  0.00     0.221 C 
HETATM    9  C   UNL     1      -7.053   2.355 -33.735  1.00  0.00     0.066 C 
HETATM   10  H   UNL     1      -8.412   0.089 -35.864  1.00  0.00     0.161 HD
ENDROOT
BRANCH   6  11
HETATM   11  C   UNL     1     -12.934   1.697 -33.406  1.00  0.00     0.276 C 
HETATM   12  N   UNL     1     -13.286   2.839 -32.712  1.00  0.00    -0.322 N 
HETATM   13  H   UNL     1     -12.487   3.410 -32.447  1.00  0.00     0.169 HD
HETATM   14  O   UNL     1     -13.695   0.838 -33.839  1.00  0.00    -0.266 OA
BRANCH  12  15
HETATM   15  C   UNL     1     -14.570   3.280 -32.348  1.00  0.00     0.037 A 
HETATM   16  C   UNL     1     -15.700   2.458 -32.338  1.00  0.00     0.066 A 
HETATM   17  C   UNL     1     -16.936   2.985 -31.961  1.00  0.00     0.067 A 
HETATM   18  C   UNL     1     -17.067   4.318 -31.595  1.00  0.00     0.036 A 
HETATM   19  C   UNL     1     -15.945   5.143 -31.602  1.00  0.00     0.005 A 
HETATM   20  C   UNL     1     -14.702   4.625 -31.977  1.00  0.00     0.029 A 
BRANCH  17  21
HETATM   21  O   UNL     1     -18.058   2.208 -31.940  1.00  0.00    -0.361 OA
HETATM   22  H   UNL     1     -17.962   1.514 -32.615  1.00  0.00     0.217 HD
ENDBRANCH  17  21
ENDBRANCH  12  15
ENDBRANCH   6  11
BRANCH   8  23
HETATM   23  C   UNL     1      -7.823   1.440 -31.468  1.00  0.00     0.409 C 
HETATM   24  F   UNL     1      -8.112   0.136 -31.629  1.00  0.00    -0.169 F 
HETATM   25  F   UNL     1      -6.498   1.528 -31.184  1.00  0.00    -0.169 F 
HETATM   26  F   UNL     1      -8.475   1.862 -30.358  1.00  0.00    -0.169 F 
ENDBRANCH   8  23
BRANCH   1  27
HETATM   27  C   UNL     1      -6.117   0.011 -34.244  1.00  0.00    -0.035 A 
HETATM   28  C   UNL     1      -6.442  -1.306 -34.613  1.00  0.00     0.012 A 
HETATM   29  C   UNL     1      -5.656  -2.392 -34.207  1.00  0.00     0.037 A 
HETATM   30  C   UNL     1      -4.524  -2.183 -33.424  1.00  0.00     0.068 A 
HETATM   31  C   UNL     1      -4.194  -0.881 -33.046  1.00  0.00     0.037 A 
HETATM   32  C   UNL     1      -4.982   0.203 -33.446  1.00  0.00     0.012 A 
BRANCH  30  33
HETATM   33  O   UNL     1      -3.672  -3.147 -32.964  1.00  0.00    -0.356 OA
HETATM   34  C   UNL     1      -3.728  -4.415 -33.604  1.00  0.00     0.210 C 
ENDBRANCH  30  33
ENDBRANCH   1  27
TORSDOF 6
ENDMDL
MODEL 7
REMARK VINA RESULT:      -8.3      6.492      8.194
REMARK  6 active torsions:
REMARK  status: ('A' for Active; 'I' for Inactive)
REMARK    1  A    between atoms: O_2  and  C_3 
REMARK    2  A    between atoms: C_6  and  C_7 
REMARK    3  A    between atoms: C_12  and  C_13 
REMARK       I    between atoms: C_13  and  N_14 
REMARK    4  A    between atoms: N_14  and  C_15 
REMARK    5  A    between atoms: C_17  and  O_18 
REMARK    6  A    between atoms: C_24  and  C_25 
ROOT
HETATM    1  C   UNL     1      -2.974   5.546 -31.862  1.00  0.00     0.118 C 
HETATM    2  N   UNL     1      -3.065   4.239 -31.222  1.00  0.00    -0.366 N 
HETATM    3  C   UNL     1      -3.801   3.223 -31.716  1.00  0.00     0.123 A 
HETATM    4  N   UNL     1      -4.614   3.388 -32.800  1.00  0.00    -0.240 N 
HETATM    5  N   UNL     1      -5.218   2.257 -33.212  1.00  0.00    -0.165 NA
HETATM    6  C   UNL     1      -4.828   1.342 -32.292  1.00  0.00     0.148 A 
HETATM    7  C   UNL     1      -3.941   1.915 -31.338  1.00  0.00     0.089 A 
HETATM    8  C   UNL     1      -4.773   4.645 -33.503  1.00  0.00     0.221 C 
HETATM    9  C   UNL     1      -3.523   5.517 -33.302  1.00  0.00     0.066 C 
HETATM   10  H   UNL     1      -2.495   4.122 -30.384  1.00  0.00     0.161 HD
ENDROOT
BRANCH   6  11
HETATM   11  C   UNL     1      -5.287  -0.058 -32.336  1.00  0.00     0.276 C 
HETATM   12  N   UNL     1      -4.933  -0.679 -33.519  1.00  0.00    -0.322 N 
HETATM   13  H   UNL     1      -4.425  -0.070 -34.156  1.00  0.00     0.169 HD
HETATM   14  O   UNL     1      -5.903  -0.559 -31.401  1.00  0.00    -0.266 OA
BRANCH  12  15
HETATM   15  C   UNL     1      -5.188  -2.001 -33.923  1.00  0.00     0.037 A 
HETATM   16  C   UNL     1      -4.246  -3.031 -33.849  1.00  0.00     0.066 A 
HETATM   17  C   UNL     1      -4.589  -4.314 -34.275  1.00  0.00     0.067 A 
HETATM   18  C   UNL     1      -5.854  -4.591 -34.776  1.00  0.00     0.036 A 
HETATM   19  C   UNL     1      -6.798  -3.569 -34.852  1.00  0.00     0.005 A 
HETATM   20  C   UNL     1      -6.465  -2.280 -34.427  1.00  0.00     0.029 A 
BRANCH  17  21
HETATM   21  O   UNL     1      -3.693  -5.342 -34.215  1.00  0.00    -0.361 OA
HETATM   22  H   UNL     1      -3.733  -5.832 -35.054  1.00  0.00     0.217 HD
ENDBRANCH  17  21
ENDBRANCH  12  15
ENDBRANCH   6  11
BRANCH   8  23
HETATM   23  C   UNL     1      -6.069   5.305 -33.091  1.00  0.00     0.409 C 
HETATM   24  F   UNL     1      -6.498   4.958 -31.865  1.00  0.00    -0.169 F 
HETATM   25  F   UNL     1      -5.929   6.656 -33.104  1.00  0.00    -0.169 F 
HETATM   26  F   UNL     1      -7.067   5.022 -33.962  1.00  0.00    -0.169 F 
ENDBRANCH   8  23
BRANCH   1  27
HETATM   27  C   UNL     1      -3.533   6.661 -30.995  1.00  0.00    -0.035 A 
HETATM   28  C   UNL     1      -4.224   6.331 -29.816  1.00  0.00     0.012 A 
HETATM   29  C   UNL     1      -4.776   7.322 -28.993  1.00  0.00     0.037 A 
HETATM   30  C   UNL     1      -4.645   8.665 -29.331  1.00  0.00     0.068 A 
HETATM   31  C   UNL     1      -3.967   9.006 -30.501  1.00  0.00     0.037 A 
HETATM   32  C   UNL     1      -3.421   8.017 -31.327  1.00  0.00     0.012 A 
BRANCH  30  33
HETATM   33  O   UNL     1      -5.129   9.727 -28.619  1.00  0.00    -0.356 OA
HETATM   34  C   UNL     1      -4.924  11.021 -29.173  1.00  0.00     0.210 C 
ENDBRANCH  30  33
ENDBRANCH   1  27
TORSDOF 6
ENDMDL
MODEL 8
REMARK VINA RESULT:      -8.3      3.882      9.581
REMARK  6 active torsions:
REMARK  status: ('A' for Active; 'I' for Inactive)
REMARK    1  A    between atoms: O_2  and  C_3 
REMARK    2  A    between atoms: C_6  and  C_7 
REMARK    3  A    between atoms: C_12  and  C_13 
REMARK       I    between atoms: C_13  and  N_14 
REMARK    4  A    between atoms: N_14  and  C_15 
REMARK    5  A    between atoms: C_17  and  O_18 
REMARK    6  A    between atoms: C_24  and  C_25 
ROOT
HETATM    1  C   UNL     1      -6.859   1.317 -30.786  1.00  0.00     0.118 C 
HETATM    2  N   UNL     1      -7.978   2.243 -30.660  1.00  0.00    -0.366 N 
HETATM    3  C   UNL     1      -9.029   2.253 -31.504  1.00  0.00     0.123 A 
HETATM    4  N   UNL     1      -9.063   1.463 -32.617  1.00  0.00    -0.240 N 
HETATM    5  N   UNL     1     -10.216   1.535 -33.309  1.00  0.00    -0.165 NA
HETATM    6  C   UNL     1     -10.921   2.480 -32.643  1.00  0.00     0.148 A 
HETATM    7  C   UNL     1     -10.205   2.953 -31.507  1.00  0.00     0.089 A 
HETATM    8  C   UNL     1      -7.990   0.567 -33.000  1.00  0.00     0.221 C 
HETATM    9  C   UNL     1      -7.179   0.164 -31.757  1.00  0.00     0.066 C 
HETATM   10  H   UNL     1      -7.940   2.869 -29.856  1.00  0.00     0.161 HD
ENDROOT
BRANCH   6  11
HETATM   11  C   UNL     1     -12.262   2.912 -33.079  1.00  0.00     0.276 C 
HETATM   12  N   UNL     1     -13.137   3.023 -32.015  1.00  0.00    -0.322 N 
HETATM   13  H   UNL     1     -12.715   2.787 -31.121  1.00  0.00     0.169 HD
HETATM   14  O   UNL     1     -12.510   3.131 -34.259  1.00  0.00    -0.266 OA
BRANCH  12  15
HETATM   15  C   UNL     1     -14.489   3.408 -32.032  1.00  0.00     0.037 A 
HETATM   16  C   UNL     1     -15.553   2.505 -32.092  1.00  0.00     0.066 A 
HETATM   17  C   UNL     1     -16.865   2.980 -32.104  1.00  0.00     0.067 A 
HETATM   18  C   UNL     1     -17.137   4.341 -32.060  1.00  0.00     0.036 A 
HETATM   19  C   UNL     1     -16.081   5.247 -32.000  1.00  0.00     0.005 A 
HETATM   20  C   UNL     1     -14.763   4.781 -31.986  1.00  0.00     0.029 A 
BRANCH  17  21
HETATM   21  O   UNL     1     -17.926   2.123 -32.162  1.00  0.00    -0.361 OA
HETATM   22  H   UNL     1     -17.677   1.298 -31.711  1.00  0.00     0.217 HD
ENDBRANCH  17  21
ENDBRANCH  12  15
ENDBRANCH   6  11
BRANCH   8  23
HETATM   23  C   UNL     1      -7.171   1.187 -34.108  1.00  0.00     0.409 C 
HETATM   24  F   UNL     1      -7.031   2.521 -34.008  1.00  0.00    -0.169 F 
HETATM   25  F   UNL     1      -5.924   0.649 -34.122  1.00  0.00    -0.169 F 
HETATM   26  F   UNL     1      -7.707   0.929 -35.324  1.00  0.00    -0.169 F 
ENDBRANCH   8  23
BRANCH   1  27
HETATM   27  C   UNL     1      -5.543   2.024 -31.056  1.00  0.00    -0.035 A 
HETATM   28  C   UNL     1      -5.490   3.427 -30.979  1.00  0.00     0.012 A 
HETATM   29  C   UNL     1      -4.305   4.127 -31.238  1.00  0.00     0.037 A 
HETATM   30  C   UNL     1      -3.145   3.437 -31.578  1.00  0.00     0.068 A 
HETATM   31  C   UNL     1      -3.185   2.046 -31.664  1.00  0.00     0.037 A 
HETATM   32  C   UNL     1      -4.370   1.346 -31.411  1.00  0.00     0.012 A 
BRANCH  30  33
HETATM   33  O   UNL     1      -1.926   3.993 -31.852  1.00  0.00    -0.356 OA
HETATM   34  C   UNL     1      -1.583   5.175 -31.140  1.00  0.00     0.210 C 
ENDBRANCH  30  33
ENDBRANCH   1  27
TORSDOF 6
ENDMDL
MODEL 9
REMARK VINA RESULT:      -8.2      6.104      8.381
REMARK  6 active torsions:
REMARK  status: ('A' for Active; 'I' for Inactive)
REMARK    1  A    between atoms: O_2  and  C_3 
REMARK    2  A    between atoms: C_6  and  C_7 
REMARK    3  A    between atoms: C_12  and  C_13 
REMARK       I    between atoms: C_13  and  N_14 
REMARK    4  A    between atoms: N_14  and  C_15 
REMARK    5  A    between atoms: C_17  and  O_18 
REMARK    6  A    between atoms: C_24  and  C_25 
ROOT
HETATM    1  C   UNL     1      -6.149   5.559 -33.020  1.00  0.00     0.118 C 
HETATM    2  N   UNL     1      -6.017   4.422 -33.924  1.00  0.00    -0.366 N 
HETATM    3  C   UNL     1      -6.319   3.156 -33.568  1.00  0.00     0.123 A 
HETATM    4  N   UNL     1      -6.662   2.833 -32.287  1.00  0.00    -0.240 N 
HETATM    5  N   UNL     1      -7.009   1.543 -32.119  1.00  0.00    -0.165 NA
HETATM    6  C   UNL     1      -6.799   1.001 -33.342  1.00  0.00     0.148 A 
HETATM    7  C   UNL     1      -6.364   1.984 -34.274  1.00  0.00     0.089 A 
HETATM    8  C   UNL     1      -6.721   3.794 -31.204  1.00  0.00     0.221 C 
HETATM    9  C   UNL     1      -6.973   5.202 -31.768  1.00  0.00     0.066 C 
HETATM   10  H   UNL     1      -5.717   4.648 -34.872  1.00  0.00     0.161 HD
ENDROOT
BRANCH   6  11
HETATM   11  C   UNL     1      -7.025  -0.430 -33.616  1.00  0.00     0.276 C 
HETATM   12  N   UNL     1      -5.849  -1.087 -33.922  1.00  0.00    -0.322 N 
HETATM   13  H   UNL     1      -5.034  -0.479 -33.911  1.00  0.00     0.169 HD
HETATM   14  O   UNL     1      -8.147  -0.922 -33.562  1.00  0.00    -0.266 OA
BRANCH  12  15
HETATM   15  C   UNL     1      -5.661  -2.445 -34.234  1.00  0.00     0.037 A 
HETATM   16  C   UNL     1      -4.486  -3.149 -33.961  1.00  0.00     0.066 A 
HETATM   17  C   UNL     1      -4.390  -4.497 -34.309  1.00  0.00     0.067 A 
HETATM   18  C   UNL     1      -5.445  -5.157 -34.926  1.00  0.00     0.036 A 
HETATM   19  C   UNL     1      -6.619  -4.461 -35.200  1.00  0.00     0.005 A 
HETATM   20  C   UNL     1      -6.726  -3.110 -34.856  1.00  0.00     0.029 A 
BRANCH  17  21
HETATM   21  O   UNL     1      -3.256  -5.213 -34.055  1.00  0.00    -0.361 OA
HETATM   22  H   UNL     1      -2.514  -4.784 -34.515  1.00  0.00     0.217 HD
ENDBRANCH  17  21
ENDBRANCH  12  15
ENDBRANCH   6  11
BRANCH   8  23
HETATM   23  C   UNL     1      -5.484   3.677 -30.344  1.00  0.00     0.409 C 
HETATM   24  F   UNL     1      -5.529   2.675 -29.448  1.00  0.00    -0.169 F 
HETATM   25  F   UNL     1      -4.391   3.474 -31.124  1.00  0.00    -0.169 F 
HETATM   26  F   UNL     1      -5.249   4.820 -29.657  1.00  0.00    -0.169 F 
ENDBRANCH   8  23
BRANCH   1  27
HETATM   27  C   UNL     1      -4.818   6.230 -32.730  1.00  0.00    -0.035 A 
HETATM   28  C   UNL     1      -3.666   5.790 -33.405  1.00  0.00     0.012 A 
HETATM   29  C   UNL     1      -2.412   6.365 -33.159  1.00  0.00     0.037 A 
HETATM   30  C   UNL     1      -2.285   7.395 -32.232  1.00  0.00     0.068 A 
HETATM   31  C   UNL     1      -3.419   7.837 -31.551  1.00  0.00     0.037 A 
HETATM   32  C   UNL     1      -4.670   7.260 -31.792  1.00  0.00     0.012 A 
BRANCH  30  33
HETATM   33  O   UNL     1      -1.128   8.043 -31.900  1.00  0.00    -0.356 OA
HETATM   34  C   UNL     1      -0.033   7.235 -31.489  1.00  0.00     0.210 C 
ENDBRANCH  30  33
ENDBRANCH   1  27
TORSDOF 6
ENDMDL
MODEL 10
REMARK VINA RESULT:      -8.2     15.832     17.708
REMARK  6 active torsions:
REMARK  status: ('A' for Active; 'I' for Inactive)
REMARK    1  A    between atoms: O_2  and  C_3 
REMARK    2  A    between atoms: C_6  and  C_7 
REMARK    3  A    between atoms: C_12  and  C_13 
REMARK       I    between atoms: C_13  and  N_14 
REMARK    4  A    between atoms: N_14  and  C_15 
REMARK    5  A    between atoms: C_17  and  O_18 
REMARK    6  A    between atoms: C_24  and  C_25 
ROOT
HETATM    1  C   UNL     1      -8.619 -13.738 -38.023  1.00  0.00     0.118 C 
HETATM    2  N   UNL     1      -7.642 -14.711 -37.547  1.00  0.00    -0.366 N 
HETATM    3  C   UNL     1      -6.313 -14.483 -37.546  1.00  0.00     0.123 A 
HETATM    4  N   UNL     1      -5.777 -13.359 -38.104  1.00  0.00    -0.240 N 
HETATM    5  N   UNL     1      -4.444 -13.248 -37.949  1.00  0.00    -0.165 NA
HETATM    6  C   UNL     1      -4.106 -14.403 -37.327  1.00  0.00     0.148 A 
HETATM    7  C   UNL     1      -5.253 -15.202 -37.062  1.00  0.00     0.089 A 
HETATM    8  C   UNL     1      -6.565 -12.328 -38.751  1.00  0.00     0.221 C 
HETATM    9  C   UNL     1      -7.997 -12.339 -38.193  1.00  0.00     0.066 C 
HETATM   10  H   UNL     1      -8.032 -15.574 -37.170  1.00  0.00     0.161 HD
ENDROOT
BRANCH   6  11
HETATM   11  C   UNL     1      -2.710 -14.729 -36.982  1.00  0.00     0.276 C 
HETATM   12  N   UNL     1      -1.957 -15.022 -38.103  1.00  0.00    -0.322 N 
HETATM   13  H   UNL     1      -2.488 -14.969 -38.969  1.00  0.00     0.169 HD
HETATM   14  O   UNL     1      -2.321 -14.722 -35.819  1.00  0.00    -0.266 OA
BRANCH  12  15
HETATM   15  C   UNL     1      -0.598 -15.372 -38.177  1.00  0.00     0.037 A 
HETATM   16  C   UNL     1       0.424 -14.463 -38.465  1.00  0.00     0.066 A 
HETATM   17  C   UNL     1       1.747 -14.903 -38.518  1.00  0.00     0.067 A 
HETATM   18  C   UNL     1       2.072 -16.233 -38.291  1.00  0.00     0.036 A 
HETATM   19  C   UNL     1       1.058 -17.145 -38.003  1.00  0.00     0.005 A 
HETATM   20  C   UNL     1      -0.271 -16.714 -37.946  1.00  0.00     0.029 A 
BRANCH  17  21
HETATM   21  O   UNL     1       2.767 -14.040 -38.796  1.00  0.00    -0.361 OA
HETATM   22  H   UNL     1       2.520 -13.516 -39.578  1.00  0.00     0.217 HD
ENDBRANCH  17  21
ENDBRANCH  12  15
ENDBRANCH   6  11
BRANCH   8  23
HETATM   23  C   UNL     1      -6.477 -12.479 -40.252  1.00  0.00     0.409 C 
HETATM   24  F   UNL     1      -6.257 -13.738 -40.667  1.00  0.00    -0.169 F 
HETATM   25  F   UNL     1      -7.631 -12.058 -40.831  1.00  0.00    -0.169 F 
HETATM   26  F   UNL     1      -5.493 -11.706 -40.770  1.00  0.00    -0.169 F 
ENDBRANCH   8  23
BRANCH   1  27
HETATM   27  C   UNL     1      -9.397 -14.234 -39.228  1.00  0.00    -0.035 A 
HETATM   28  C   UNL     1      -9.009 -15.434 -39.849  1.00  0.00     0.012 A 
HETATM   29  C   UNL     1      -9.682 -15.924 -40.976  1.00  0.00     0.037 A 
HETATM   30  C   UNL     1     -10.762 -15.224 -41.505  1.00  0.00     0.068 A 
HETATM   31  C   UNL     1     -11.154 -14.028 -40.902  1.00  0.00     0.037 A 
HETATM   32  C   UNL     1     -10.479 -13.536 -39.781  1.00  0.00     0.012 A 
BRANCH  30  33
HETATM   33  O   UNL     1     -11.506 -15.588 -42.592  1.00  0.00    -0.356 OA
HETATM   34  C   UNL     1     -12.912 -15.688 -42.407  1.00  0.00     0.210 C 
ENDBRANCH  30  33
ENDBRANCH   1  27
TORSDOF 6
ENDMDL
