MODEL 1
REMARK VINA RESULT:     -10.2      0.000      0.000
REMARK  7 active torsions:
REMARK  status: ('A' for Active; 'I' for Inactive)
REMARK    1  A    between atoms: C_8  and  C_9 
REMARK    2  A    between atoms: C_9  and  C_10 
REMARK    3  A    between atoms: C_10  and  N_11 
REMARK    4  A    between atoms: C_10  and  C_19 
REMARK       I    between atoms: N_11  and  C_12 
REMARK    5  A    between atoms: C_12  and  C_13 
REMARK       I    between atoms: C_19  and  N_20 
REMARK    6  A    between atoms: N_20  and  N_21 
REMARK       I    between atoms: N_21  and  C_22 
REMARK       I    between atoms: C_22  and  N_23 
REMARK    7  A    between atoms: N_23  and  C_24 
ROOT
HETATM    1  C   UNL     1      -8.428   0.204 -32.419  1.00  0.00     0.183 C 
ENDROOT
BRANCH   1   2
HETATM    2  C   UNL     1      -7.466   0.551 -33.570  1.00  0.00     0.076 C 
BRANCH   2   3
HETATM    3  C   UNL     1      -6.246  -0.321 -33.612  1.00  0.00    -0.028 A 
HETATM    4  C   UNL     1      -6.186  -1.687 -34.042  1.00  0.00    -0.002 A 
HETATM    5  C   UNL     1      -7.137  -2.604 -34.536  1.00  0.00     0.014 A 
HETATM    6  C   UNL     1      -4.863  -2.109 -33.908  1.00  0.00     0.042 A 
HETATM    7  C   UNL     1      -6.735  -3.903 -34.870  1.00  0.00     0.001 A 
HETATM    8  C   UNL     1      -5.407  -4.294 -34.720  1.00  0.00     0.002 A 
HETATM    9  C   UNL     1      -4.444  -3.404 -34.236  1.00  0.00     0.030 A 
HETATM   10  N   UNL     1      -4.143  -1.041 -33.429  1.00  0.00    -0.365 N 
HETATM   11  H   UNL     1      -3.149  -1.056 -33.248  1.00  0.00     0.165 HD
HETATM   12  C   UNL     1      -4.963   0.041 -33.248  1.00  0.00     0.096 A 
ENDBRANCH   2   3
ENDBRANCH   1   2
BRANCH   1  13
HETATM   13  N   UNL     1      -9.813   0.057 -32.885  1.00  0.00    -0.343 N 
HETATM   14  C   UNL     1     -10.407   0.960 -33.738  1.00  0.00     0.259 C 
HETATM   15  O   UNL     1      -9.720   1.763 -34.374  1.00  0.00    -0.267 OA
HETATM   16  H   UNL     1     -10.446  -0.480 -32.301  1.00  0.00     0.163 HD
BRANCH  14  17
HETATM   17  C   UNL     1     -11.856   0.889 -33.845  1.00  0.00     0.072 A 
HETATM   18  S   UNL     1     -12.796   2.200 -34.430  1.00  0.00    -0.097 SA
HETATM   19  C   UNL     1     -14.258   1.339 -34.225  1.00  0.00     0.050 A 
HETATM   20  C   UNL     1     -14.044   0.071 -33.732  1.00  0.00     0.009 A 
HETATM   21  C   UNL     1     -12.660  -0.187 -33.513  1.00  0.00     0.025 A 
ENDBRANCH  14  17
ENDBRANCH   1  13
BRANCH   1  22
HETATM   22  C   UNL     1      -8.287   1.279 -31.316  1.00  0.00     0.259 C 
HETATM   23  N   UNL     1      -7.146   1.176 -30.530  1.00  0.00    -0.264 N 
HETATM   24  H   UNL     1      -6.369   0.632 -30.919  1.00  0.00     0.190 HD
HETATM   25  O   UNL     1      -9.047   2.246 -31.220  1.00  0.00    -0.269 OA
BRANCH  23  26
HETATM   26  N   UNL     1      -6.819   2.327 -29.791  1.00  0.00    -0.249 N 
HETATM   27  C   UNL     1      -5.822   3.212 -30.126  1.00  0.00     0.339 C 
HETATM   28  N   UNL     1      -5.341   3.070 -31.404  1.00  0.00    -0.308 N 
HETATM   29  O   UNL     1      -5.472   4.047 -29.299  1.00  0.00    -0.245 OA
HETATM   30  H   UNL     1      -5.686   2.259 -31.896  1.00  0.00     0.170 HD
HETATM   31  H   UNL     1      -7.077   2.311 -28.803  1.00  0.00     0.192 HD
BRANCH  28  32
HETATM   32  C   UNL     1      -4.412   3.894 -32.069  1.00  0.00     0.036 A 
HETATM   33  C   UNL     1      -4.770   4.910 -32.960  1.00  0.00     0.031 A 
HETATM   34  C   UNL     1      -3.793   5.675 -33.606  1.00  0.00     0.026 A 
HETATM   35  C   UNL     1      -2.446   5.424 -33.364  1.00  0.00     0.034 A 
HETATM   36 CL   UNL     1      -1.243   6.355 -34.167  1.00  0.00    -0.084 Cl
HETATM   37  C   UNL     1      -2.070   4.419 -32.477  1.00  0.00     0.026 A 
HETATM   38  C   UNL     1      -3.051   3.657 -31.829  1.00  0.00     0.031 A 
ENDBRANCH  28  32
ENDBRANCH  23  26
ENDBRANCH   1  22
TORSDOF 7
ENDMDL
MODEL 2
REMARK VINA RESULT:      -9.9      3.039      3.871
REMARK  7 active torsions:
REMARK  status: ('A' for Active; 'I' for Inactive)
REMARK    1  A    between atoms: C_8  and  C_9 
REMARK    2  A    between atoms: C_9  and  C_10 
REMARK    3  A    between atoms: C_10  and  N_11 
REMARK    4  A    between atoms: C_10  and  C_19 
REMARK       I    between atoms: N_11  and  C_12 
REMARK    5  A    between atoms: C_12  and  C_13 
REMARK       I    between atoms: C_19  and  N_20 
REMARK    6  A    between atoms: N_20  and  N_21 
REMARK       I    between atoms: N_21  and  C_22 
REMARK       I    between atoms: C_22  and  N_23 
REMARK    7  A    between atoms: N_23  and  C_24 
ROOT
HETATM    1  C   UNL     1      -5.767   1.949 -32.725  1.00  0.00     0.183 C 
ENDROOT
BRANCH   1   2
HETATM    2  C   UNL     1      -5.336   0.732 -33.565  1.00  0.00     0.076 C 
BRANCH   2   3
HETATM    3  C   UNL     1      -4.510  -0.259 -32.799  1.00  0.00    -0.028 A 
HETATM    4  C   UNL     1      -4.294  -1.635 -33.139  1.00  0.00    -0.002 A 
HETATM    5  C   UNL     1      -4.720  -2.464 -34.196  1.00  0.00     0.014 A 
HETATM    6  C   UNL     1      -3.474  -2.184 -32.152  1.00  0.00     0.042 A 
HETATM    7  C   UNL     1      -4.318  -3.805 -34.227  1.00  0.00     0.001 A 
HETATM    8  C   UNL     1      -3.503  -4.324 -33.225  1.00  0.00     0.002 A 
HETATM    9  C   UNL     1      -3.064  -3.522 -32.167  1.00  0.00     0.030 A 
HETATM   10  N   UNL     1      -3.190  -1.181 -31.256  1.00  0.00    -0.365 N 
HETATM   11  H   UNL     1      -2.602  -1.292 -30.442  1.00  0.00     0.165 HD
HETATM   12  C   UNL     1      -3.807  -0.018 -31.635  1.00  0.00     0.096 A 
ENDBRANCH   2   3
ENDBRANCH   1   2
BRANCH   1  13
HETATM   13  N   UNL     1      -7.214   2.184 -32.800  1.00  0.00    -0.343 N 
HETATM   14  C   UNL     1      -8.135   1.319 -32.252  1.00  0.00     0.259 C 
HETATM   15  O   UNL     1      -7.782   0.472 -31.430  1.00  0.00    -0.267 OA
HETATM   16  H   UNL     1      -7.553   2.763 -33.562  1.00  0.00     0.163 HD
BRANCH  14  17
HETATM   17  C   UNL     1      -9.514   1.484 -32.687  1.00  0.00     0.072 A 
HETATM   18  S   UNL     1     -10.339   2.983 -32.565  1.00  0.00    -0.097 SA
HETATM   19  C   UNL     1     -11.772   2.332 -33.230  1.00  0.00     0.050 A 
HETATM   20  C   UNL     1     -11.632   1.001 -33.552  1.00  0.00     0.009 A 
HETATM   21  C   UNL     1     -10.330   0.513 -33.240  1.00  0.00     0.025 A 
ENDBRANCH  14  17
ENDBRANCH   1  13
BRANCH   1  22
HETATM   22  C   UNL     1      -4.945   3.179 -33.178  1.00  0.00     0.259 C 
HETATM   23  N   UNL     1      -3.635   3.218 -32.718  1.00  0.00    -0.264 N 
HETATM   24  H   UNL     1      -3.232   2.330 -32.402  1.00  0.00     0.190 HD
HETATM   25  O   UNL     1      -5.360   3.996 -34.003  1.00  0.00    -0.269 OA
BRANCH  23  26
HETATM   26  N   UNL     1      -2.784   4.104 -33.402  1.00  0.00    -0.249 N 
HETATM   27  C   UNL     1      -2.086   5.129 -32.808  1.00  0.00     0.339 C 
HETATM   28  N   UNL     1      -2.035   5.065 -31.438  1.00  0.00    -0.308 N 
HETATM   29  O   UNL     1      -1.559   5.976 -33.523  1.00  0.00    -0.245 OA
HETATM   30  H   UNL     1      -2.618   4.349 -31.029  1.00  0.00     0.170 HD
HETATM   31  H   UNL     1      -2.967   4.219 -34.399  1.00  0.00     0.192 HD
BRANCH  28  32
HETATM   32  C   UNL     1      -1.307   5.896 -30.564  1.00  0.00     0.036 A 
HETATM   33  C   UNL     1      -1.728   7.170 -30.171  1.00  0.00     0.031 A 
HETATM   34  C   UNL     1      -0.941   7.954 -29.320  1.00  0.00     0.026 A 
HETATM   35  C   UNL     1       0.276   7.465 -28.857  1.00  0.00     0.034 A 
HETATM   36 CL   UNL     1       1.250   8.433 -27.821  1.00  0.00    -0.084 Cl
HETATM   37  C   UNL     1       0.710   6.197 -29.235  1.00  0.00     0.026 A 
HETATM   38  C   UNL     1      -0.081   5.414 -30.086  1.00  0.00     0.031 A 
ENDBRANCH  28  32
ENDBRANCH  23  26
ENDBRANCH   1  22
TORSDOF 7
ENDMDL
MODEL 3
REMARK VINA RESULT:      -9.7      3.774      5.031
REMARK  7 active torsions:
REMARK  status: ('A' for Active; 'I' for Inactive)
REMARK    1  A    between atoms: C_8  and  C_9 
REMARK    2  A    between atoms: C_9  and  C_10 
REMARK    3  A    between atoms: C_10  and  N_11 
REMARK    4  A    between atoms: C_10  and  C_19 
REMARK       I    between atoms: N_11  and  C_12 
REMARK    5  A    between atoms: C_12  and  C_13 
REMARK       I    between atoms: C_19  and  N_20 
REMARK    6  A    between atoms: N_20  and  N_21 
REMARK       I    between atoms: N_21  and  C_22 
REMARK       I    between atoms: C_22  and  N_23 
REMARK    7  A    between atoms: N_23  and  C_24 
ROOT
HETATM    1  C   UNL     1      -4.769   2.813 -31.114  1.00  0.00     0.183 C 
ENDROOT
BRANCH   1   2
HETATM    2  C   UNL     1      -3.620   2.243 -31.967  1.00  0.00     0.076 C 
BRANCH   2   3
HETATM    3  C   UNL     1      -3.593   0.743 -32.007  1.00  0.00    -0.028 A 
HETATM    4  C   UNL     1      -4.381  -0.103 -32.852  1.00  0.00    -0.002 A 
HETATM    5  C   UNL     1      -5.352   0.132 -33.848  1.00  0.00     0.014 A 
HETATM    6  C   UNL     1      -4.044  -1.423 -32.551  1.00  0.00     0.042 A 
HETATM    7  C   UNL     1      -5.949  -0.954 -34.499  1.00  0.00     0.001 A 
HETATM    8  C   UNL     1      -5.593  -2.260 -34.173  1.00  0.00     0.002 A 
HETATM    9  C   UNL     1      -4.632  -2.520 -33.192  1.00  0.00     0.030 A 
HETATM   10  N   UNL     1      -3.079  -1.383 -31.573  1.00  0.00    -0.365 N 
HETATM   11  H   UNL     1      -2.638  -2.198 -31.171  1.00  0.00     0.165 HD
HETATM   12  C   UNL     1      -2.799  -0.085 -31.237  1.00  0.00     0.096 A 
ENDBRANCH   2   3
ENDBRANCH   1   2
BRANCH   1  13
HETATM   13  N   UNL     1      -6.079   2.588 -31.737  1.00  0.00    -0.343 N 
HETATM   14  C   UNL     1      -7.190   2.213 -31.015  1.00  0.00     0.259 C 
HETATM   15  O   UNL     1      -7.205   2.332 -29.788  1.00  0.00    -0.267 OA
HETATM   16  H   UNL     1      -6.090   2.340 -32.722  1.00  0.00     0.163 HD
BRANCH  14  17
HETATM   17  C   UNL     1      -8.314   1.698 -31.781  1.00  0.00     0.072 A 
HETATM   18  S   UNL     1      -9.502   2.728 -32.469  1.00  0.00    -0.097 SA
HETATM   19  C   UNL     1     -10.373   1.410 -33.119  1.00  0.00     0.050 A 
HETATM   20  C   UNL     1      -9.774   0.204 -32.833  1.00  0.00     0.009 A 
HETATM   21  C   UNL     1      -8.587   0.371 -32.062  1.00  0.00     0.025 A 
ENDBRANCH  14  17
ENDBRANCH   1  13
BRANCH   1  22
HETATM   22  C   UNL     1      -4.491   4.311 -30.847  1.00  0.00     0.259 C 
HETATM   23  N   UNL     1      -3.198   4.733 -31.129  1.00  0.00    -0.264 N 
HETATM   24  H   UNL     1      -2.648   4.139 -31.759  1.00  0.00     0.190 HD
HETATM   25  O   UNL     1      -5.377   5.114 -30.547  1.00  0.00    -0.269 OA
BRANCH  23  26
HETATM   26  N   UNL     1      -3.032   6.124 -31.248  1.00  0.00    -0.249 N 
HETATM   27  C   UNL     1      -2.326   6.903 -30.362  1.00  0.00     0.339 C 
HETATM   28  N   UNL     1      -1.531   6.199 -29.492  1.00  0.00    -0.308 N 
HETATM   29  O   UNL     1      -2.435   8.123 -30.432  1.00  0.00    -0.245 OA
HETATM   30  H   UNL     1      -1.656   5.198 -29.525  1.00  0.00     0.170 HD
HETATM   31  H   UNL     1      -3.743   6.614 -31.792  1.00  0.00     0.192 HD
BRANCH  28  32
HETATM   32  C   UNL     1      -0.613   6.715 -28.557  1.00  0.00     0.036 A 
HETATM   33  C   UNL     1      -0.661   6.439 -27.186  1.00  0.00     0.031 A 
HETATM   34  C   UNL     1       0.269   7.007 -26.308  1.00  0.00     0.026 A 
HETATM   35  C   UNL     1       1.254   7.857 -26.799  1.00  0.00     0.034 A 
HETATM   36 CL   UNL     1       2.391   8.566 -25.719  1.00  0.00    -0.084 Cl
HETATM   37  C   UNL     1       1.320   8.140 -28.161  1.00  0.00     0.026 A 
HETATM   38  C   UNL     1       0.389   7.568 -29.038  1.00  0.00     0.031 A 
ENDBRANCH  28  32
ENDBRANCH  23  26
ENDBRANCH   1  22
TORSDOF 7
ENDMDL
MODEL 4
REMARK VINA RESULT:      -9.6      4.265      8.204
REMARK  7 active torsions:
REMARK  status: ('A' for Active; 'I' for Inactive)
REMARK    1  A    between atoms: C_8  and  C_9 
REMARK    2  A    between atoms: C_9  and  C_10 
REMARK    3  A    between atoms: C_10  and  N_11 
REMARK    4  A    between atoms: C_10  and  C_19 
REMARK       I    between atoms: N_11  and  C_12 
REMARK    5  A    between atoms: C_12  and  C_13 
REMARK       I    between atoms: C_19  and  N_20 
REMARK    6  A    between atoms: N_20  and  N_21 
REMARK       I    between atoms: N_21  and  C_22 
REMARK       I    between atoms: C_22  and  N_23 
REMARK    7  A    between atoms: N_23  and  C_24 
ROOT
HETATM    1  C   UNL     1      -4.287   3.611 -33.074  1.00  0.00     0.183 C 
ENDROOT
BRANCH   1   2
HETATM    2  C   UNL     1      -4.953   2.597 -32.125  1.00  0.00     0.076 C 
BRANCH   2   3
HETATM    3  C   UNL     1      -4.730   1.169 -32.526  1.00  0.00    -0.028 A 
HETATM    4  C   UNL     1      -5.581   0.372 -33.359  1.00  0.00    -0.002 A 
HETATM    5  C   UNL     1      -6.794   0.610 -34.038  1.00  0.00     0.014 A 
HETATM    6  C   UNL     1      -4.999  -0.892 -33.463  1.00  0.00     0.042 A 
HETATM    7  C   UNL     1      -7.380  -0.418 -34.785  1.00  0.00     0.001 A 
HETATM    8  C   UNL     1      -6.776  -1.670 -34.865  1.00  0.00     0.002 A 
HETATM    9  C   UNL     1      -5.572  -1.931 -34.205  1.00  0.00     0.030 A 
HETATM   10  N   UNL     1      -3.834  -0.863 -32.735  1.00  0.00    -0.365 N 
HETATM   11  H   UNL     1      -3.197  -1.642 -32.643  1.00  0.00     0.165 HD
HETATM   12  C   UNL     1      -3.660   0.371 -32.167  1.00  0.00     0.096 A 
ENDBRANCH   2   3
ENDBRANCH   1   2
BRANCH   1  13
HETATM   13  N   UNL     1      -3.363   4.504 -32.363  1.00  0.00    -0.343 N 
HETATM   14  C   UNL     1      -2.118   4.826 -32.855  1.00  0.00     0.259 C 
HETATM   15  O   UNL     1      -1.842   4.618 -34.038  1.00  0.00    -0.267 OA
HETATM   16  H   UNL     1      -3.473   4.581 -31.356  1.00  0.00     0.163 HD
BRANCH  14  17
HETATM   17  C   UNL     1      -1.187   5.426 -31.911  1.00  0.00     0.072 A 
HETATM   18  S   UNL     1      -0.640   7.045 -32.070  1.00  0.00    -0.097 SA
HETATM   19  C   UNL     1       0.340   6.927 -30.675  1.00  0.00     0.050 A 
HETATM   20  C   UNL     1       0.251   5.686 -30.085  1.00  0.00     0.009 A 
HETATM   21  C   UNL     1      -0.630   4.821 -30.798  1.00  0.00     0.025 A 
ENDBRANCH  14  17
ENDBRANCH   1  13
BRANCH   1  22
HETATM   22  C   UNL     1      -5.395   4.387 -33.826  1.00  0.00     0.259 C 
HETATM   23  N   UNL     1      -6.690   4.153 -33.378  1.00  0.00    -0.264 N 
HETATM   24  H   UNL     1      -6.786   3.762 -32.435  1.00  0.00     0.190 HD
HETATM   25  O   UNL     1      -5.153   5.260 -34.662  1.00  0.00    -0.269 OA
BRANCH  23  26
HETATM   26  N   UNL     1      -7.646   5.101 -33.783  1.00  0.00    -0.249 N 
HETATM   27  C   UNL     1      -8.953   4.806 -34.091  1.00  0.00     0.339 C 
HETATM   28  N   UNL     1      -9.364   3.557 -33.696  1.00  0.00    -0.308 N 
HETATM   29  O   UNL     1      -9.635   5.660 -34.649  1.00  0.00    -0.245 OA
HETATM   30  H   UNL     1      -8.626   2.964 -33.344  1.00  0.00     0.170 HD
HETATM   31  H   UNL     1      -7.278   5.954 -34.206  1.00  0.00     0.192 HD
BRANCH  28  32
HETATM   32  C   UNL     1     -10.662   3.017 -33.767  1.00  0.00     0.036 A 
HETATM   33  C   UNL     1     -11.738   3.475 -33.000  1.00  0.00     0.031 A 
HETATM   34  C   UNL     1     -12.998   2.875 -33.102  1.00  0.00     0.026 A 
HETATM   35  C   UNL     1     -13.188   1.807 -33.973  1.00  0.00     0.034 A 
HETATM   36 CL   UNL     1     -14.733   1.060 -34.090  1.00  0.00    -0.084 Cl
HETATM   37  C   UNL     1     -12.129   1.340 -34.747  1.00  0.00     0.026 A 
HETATM   38  C   UNL     1     -10.870   1.944 -34.645  1.00  0.00     0.031 A 
ENDBRANCH  28  32
ENDBRANCH  23  26
ENDBRANCH   1  22
TORSDOF 7
ENDMDL
MODEL 5
REMARK VINA RESULT:      -9.5      3.485      5.054
REMARK  7 active torsions:
REMARK  status: ('A' for Active; 'I' for Inactive)
REMARK    1  A    between atoms: C_8  and  C_9 
REMARK    2  A    between atoms: C_9  and  C_10 
REMARK    3  A    between atoms: C_10  and  N_11 
REMARK    4  A    between atoms: C_10  and  C_19 
REMARK       I    between atoms: N_11  and  C_12 
REMARK    5  A    between atoms: C_12  and  C_13 
REMARK       I    between atoms: C_19  and  N_20 
REMARK    6  A    between atoms: N_20  and  N_21 
REMARK       I    between atoms: N_21  and  C_22 
REMARK       I    between atoms: C_22  and  N_23 
REMARK    7  A    between atoms: N_23  and  C_24 
ROOT
HETATM    1  C   UNL     1      -5.120   2.117 -30.327  1.00  0.00     0.183 C 
ENDROOT
BRANCH   1   2
HETATM    2  C   UNL     1      -5.502   0.626 -30.246  1.00  0.00     0.076 C 
BRANCH   2   3
HETATM    3  C   UNL     1      -6.329   0.158 -31.407  1.00  0.00    -0.028 A 
HETATM    4  C   UNL     1      -5.899  -0.701 -32.469  1.00  0.00    -0.002 A 
HETATM    5  C   UNL     1      -4.687  -1.355 -32.776  1.00  0.00     0.014 A 
HETATM    6  C   UNL     1      -6.981  -0.869 -33.334  1.00  0.00     0.042 A 
HETATM    7  C   UNL     1      -4.601  -2.143 -33.930  1.00  0.00     0.001 A 
HETATM    8  C   UNL     1      -5.699  -2.286 -34.775  1.00  0.00     0.002 A 
HETATM    9  C   UNL     1      -6.911  -1.652 -34.493  1.00  0.00     0.030 A 
HETATM   10  N   UNL     1      -8.032  -0.153 -32.812  1.00  0.00    -0.365 N 
HETATM   11  H   UNL     1      -8.952  -0.104 -33.226  1.00  0.00     0.165 HD
HETATM   12  C   UNL     1      -7.652   0.469 -31.653  1.00  0.00     0.096 A 
ENDBRANCH   2   3
ENDBRANCH   1   2
BRANCH   1  13
HETATM   13  N   UNL     1      -6.276   2.962 -30.652  1.00  0.00    -0.343 N 
HETATM   14  C   UNL     1      -6.655   4.032 -29.872  1.00  0.00     0.259 C 
HETATM   15  O   UNL     1      -5.879   4.501 -29.038  1.00  0.00    -0.267 OA
HETATM   16  H   UNL     1      -7.010   2.550 -31.220  1.00  0.00     0.163 HD
BRANCH  14  17
HETATM   17  C   UNL     1      -7.989   4.562 -30.108  1.00  0.00     0.072 A 
HETATM   18  S   UNL     1      -8.336   6.240 -30.025  1.00  0.00    -0.097 SA
HETATM   19  C   UNL     1      -9.986   5.992 -30.390  1.00  0.00     0.050 A 
HETATM   20  C   UNL     1     -10.277   4.661 -30.585  1.00  0.00     0.009 A 
HETATM   21  C   UNL     1      -9.125   3.837 -30.423  1.00  0.00     0.025 A 
ENDBRANCH  14  17
ENDBRANCH   1  13
BRANCH   1  22
HETATM   22  C   UNL     1      -3.967   2.278 -31.344  1.00  0.00     0.259 C 
HETATM   23  N   UNL     1      -3.955   3.479 -32.042  1.00  0.00    -0.264 N 
HETATM   24  H   UNL     1      -4.484   4.255 -31.629  1.00  0.00     0.190 HD
HETATM   25  O   UNL     1      -3.037   1.473 -31.437  1.00  0.00    -0.269 OA
BRANCH  23  26
HETATM   26  N   UNL     1      -2.742   3.793 -32.678  1.00  0.00    -0.249 N 
HETATM   27  C   UNL     1      -1.849   4.738 -32.231  1.00  0.00     0.339 C 
HETATM   28  N   UNL     1      -2.068   5.166 -30.945  1.00  0.00    -0.308 N 
HETATM   29  O   UNL     1      -0.941   5.093 -32.977  1.00  0.00    -0.245 OA
HETATM   30  H   UNL     1      -2.927   4.831 -30.531  1.00  0.00     0.170 HD
HETATM   31  H   UNL     1      -2.693   3.583 -33.676  1.00  0.00     0.192 HD
BRANCH  28  32
HETATM   32  C   UNL     1      -1.264   6.030 -30.177  1.00  0.00     0.036 A 
HETATM   33  C   UNL     1      -1.557   7.381 -29.965  1.00  0.00     0.031 A 
HETATM   34  C   UNL     1      -0.699   8.191 -29.212  1.00  0.00     0.026 A 
HETATM   35  C   UNL     1       0.460   7.650 -28.666  1.00  0.00     0.034 A 
HETATM   36 CL   UNL     1       1.522   8.647 -27.750  1.00  0.00    -0.084 Cl
HETATM   37  C   UNL     1       0.766   6.306 -28.863  1.00  0.00     0.026 A 
HETATM   38  C   UNL     1      -0.096   5.498 -29.616  1.00  0.00     0.031 A 
ENDBRANCH  28  32
ENDBRANCH  23  26
ENDBRANCH   1  22
TORSDOF 7
ENDMDL
MODEL 6
REMARK VINA RESULT:      -9.5      3.809      7.678
REMARK  7 active torsions:
REMARK  status: ('A' for Active; 'I' for Inactive)
REMARK    1  A    between atoms: C_8  and  C_9 
REMARK    2  A    between atoms: C_9  and  C_10 
REMARK    3  A    between atoms: C_10  and  N_11 
REMARK    4  A    between atoms: C_10  and  C_19 
REMARK       I    between atoms: N_11  and  C_12 
REMARK    5  A    between atoms: C_12  and  C_13 
REMARK       I    between atoms: C_19  and  N_20 
REMARK    6  A    between atoms: N_20  and  N_21 
REMARK       I    between atoms: N_21  and  C_22 
REMARK       I    between atoms: C_22  and  N_23 
REMARK    7  A    between atoms: N_23  and  C_24 
ROOT
HETATM    1  C   UNL     1      -5.690   2.860 -32.693  1.00  0.00     0.183 C 
ENDROOT
BRANCH   1   2
HETATM    2  C   UNL     1      -5.271   1.420 -32.342  1.00  0.00     0.076 C 
BRANCH   2   3
HETATM    3  C   UNL     1      -6.167   0.375 -32.939  1.00  0.00    -0.028 A 
HETATM    4  C   UNL     1      -5.757  -0.863 -33.533  1.00  0.00    -0.002 A 
HETATM    5  C   UNL     1      -4.510  -1.487 -33.742  1.00  0.00     0.014 A 
HETATM    6  C   UNL     1      -6.910  -1.519 -33.965  1.00  0.00     0.042 A 
HETATM    7  C   UNL     1      -4.461  -2.735 -34.376  1.00  0.00     0.001 A 
HETATM    8  C   UNL     1      -5.630  -3.362 -34.799  1.00  0.00     0.002 A 
HETATM    9  C   UNL     1      -6.878  -2.766 -34.601  1.00  0.00     0.030 A 
HETATM   10  N   UNL     1      -7.979  -0.721 -33.635  1.00  0.00    -0.365 N 
HETATM   11  H   UNL     1      -8.945  -0.955 -33.818  1.00  0.00     0.165 HD
HETATM   12  C   UNL     1      -7.545   0.421 -33.017  1.00  0.00     0.096 A 
ENDBRANCH   2   3
ENDBRANCH   1   2
BRANCH   1  13
HETATM   13  N   UNL     1      -4.532   3.758 -32.801  1.00  0.00    -0.343 N 
HETATM   14  C   UNL     1      -4.467   4.775 -33.726  1.00  0.00     0.259 C 
HETATM   15  O   UNL     1      -5.485   5.160 -34.303  1.00  0.00    -0.267 OA
HETATM   16  H   UNL     1      -3.639   3.408 -32.466  1.00  0.00     0.163 HD
BRANCH  14  17
HETATM   17  C   UNL     1      -3.152   5.356 -33.954  1.00  0.00     0.072 A 
HETATM   18  S   UNL     1      -2.623   6.770 -33.138  1.00  0.00    -0.097 SA
HETATM   19  C   UNL     1      -1.114   6.755 -33.940  1.00  0.00     0.050 A 
HETATM   20  C   UNL     1      -1.001   5.692 -34.807  1.00  0.00     0.009 A 
HETATM   21  C   UNL     1      -2.176   4.886 -34.815  1.00  0.00     0.025 A 
ENDBRANCH  14  17
ENDBRANCH   1  13
BRANCH   1  22
HETATM   22  C   UNL     1      -6.718   3.346 -31.645  1.00  0.00     0.259 C 
HETATM   23  N   UNL     1      -7.925   3.797 -32.164  1.00  0.00    -0.264 N 
HETATM   24  H   UNL     1      -8.159   3.491 -33.115  1.00  0.00     0.190 HD
HETATM   25  O   UNL     1      -6.551   3.215 -30.431  1.00  0.00    -0.269 OA
BRANCH  23  26
HETATM   26  N   UNL     1      -8.981   3.888 -31.240  1.00  0.00    -0.249 N 
HETATM   27  C   UNL     1     -10.281   3.528 -31.505  1.00  0.00     0.339 C 
HETATM   28  N   UNL     1     -10.447   2.788 -32.649  1.00  0.00    -0.308 N 
HETATM   29  O   UNL     1     -11.158   3.860 -30.712  1.00  0.00    -0.245 OA
HETATM   30  H   UNL     1      -9.618   2.706 -33.219  1.00  0.00     0.170 HD
HETATM   31  H   UNL     1      -8.858   4.566 -30.487  1.00  0.00     0.192 HD
BRANCH  28  32
HETATM   32  C   UNL     1     -11.628   2.183 -33.118  1.00  0.00     0.036 A 
HETATM   33  C   UNL     1     -11.710   0.846 -33.523  1.00  0.00     0.031 A 
HETATM   34  C   UNL     1     -12.912   0.315 -34.003  1.00  0.00     0.026 A 
HETATM   35  C   UNL     1     -14.042   1.122 -34.082  1.00  0.00     0.034 A 
HETATM   36 CL   UNL     1     -15.518   0.474 -34.684  1.00  0.00    -0.084 Cl
HETATM   37  C   UNL     1     -13.981   2.454 -33.680  1.00  0.00     0.026 A 
HETATM   38  C   UNL     1     -12.776   2.982 -33.197  1.00  0.00     0.031 A 
ENDBRANCH  28  32
ENDBRANCH  23  26
ENDBRANCH   1  22
TORSDOF 7
ENDMDL
MODEL 7
REMARK VINA RESULT:      -9.5      3.469      5.283
REMARK  7 active torsions:
REMARK  status: ('A' for Active; 'I' for Inactive)
REMARK    1  A    between atoms: C_8  and  C_9 
REMARK    2  A    between atoms: C_9  and  C_10 
REMARK    3  A    between atoms: C_10  and  N_11 
REMARK    4  A    between atoms: C_10  and  C_19 
REMARK       I    between atoms: N_11  and  C_12 
REMARK    5  A    between atoms: C_12  and  C_13 
REMARK       I    between atoms: C_19  and  N_20 
REMARK    6  A    between atoms: N_20  and  N_21 
REMARK       I    between atoms: N_21  and  C_22 
REMARK       I    between atoms: C_22  and  N_23 
REMARK    7  A    between atoms: N_23  and  C_24 
ROOT
HETATM    1  C   UNL     1      -6.448   1.684 -31.845  1.00  0.00     0.183 C 
ENDROOT
BRANCH   1   2
HETATM    2  C   UNL     1      -5.801   0.599 -30.962  1.00  0.00     0.076 C 
BRANCH   2   3
HETATM    3  C   UNL     1      -4.983  -0.391 -31.737  1.00  0.00    -0.028 A 
HETATM    4  C   UNL     1      -5.426  -1.185 -32.843  1.00  0.00    -0.002 A 
HETATM    5  C   UNL     1      -6.648  -1.309 -33.538  1.00  0.00     0.014 A 
HETATM    6  C   UNL     1      -4.348  -1.970 -33.252  1.00  0.00     0.042 A 
HETATM    7  C   UNL     1      -6.747  -2.209 -34.605  1.00  0.00     0.001 A 
HETATM    8  C   UNL     1      -5.652  -2.981 -34.986  1.00  0.00     0.002 A 
HETATM    9  C   UNL     1      -4.430  -2.876 -34.316  1.00  0.00     0.030 A 
HETATM   10  N   UNL     1      -3.286  -1.657 -32.438  1.00  0.00    -0.365 N 
HETATM   11  H   UNL     1      -2.366  -2.066 -32.515  1.00  0.00     0.165 HD
HETATM   12  C   UNL     1      -3.655  -0.708 -31.522  1.00  0.00     0.096 A 
ENDBRANCH   2   3
ENDBRANCH   1   2
BRANCH   1  13
HETATM   13  N   UNL     1      -5.455   2.392 -32.661  1.00  0.00    -0.343 N 
HETATM   14  C   UNL     1      -4.420   3.114 -32.109  1.00  0.00     0.259 C 
HETATM   15  O   UNL     1      -4.113   2.959 -30.926  1.00  0.00    -0.267 OA
HETATM   16  H   UNL     1      -5.733   2.667 -33.599  1.00  0.00     0.163 HD
BRANCH  14  17
HETATM   17  C   UNL     1      -3.726   4.031 -33.000  1.00  0.00     0.072 A 
HETATM   18  S   UNL     1      -4.543   4.907 -34.229  1.00  0.00    -0.097 SA
HETATM   19  C   UNL     1      -3.100   5.658 -34.754  1.00  0.00     0.050 A 
HETATM   20  C   UNL     1      -2.013   5.264 -34.007  1.00  0.00     0.009 A 
HETATM   21  C   UNL     1      -2.374   4.326 -32.996  1.00  0.00     0.025 A 
ENDBRANCH  14  17
ENDBRANCH   1  13
BRANCH   1  22
HETATM   22  C   UNL     1      -7.258   2.641 -30.939  1.00  0.00     0.259 C 
HETATM   23  N   UNL     1      -6.763   2.798 -29.651  1.00  0.00    -0.264 N 
HETATM   24  H   UNL     1      -5.781   2.543 -29.502  1.00  0.00     0.190 HD
HETATM   25  O   UNL     1      -8.190   3.332 -31.357  1.00  0.00    -0.269 OA
BRANCH  23  26
HETATM   26  N   UNL     1      -7.250   3.916 -28.951  1.00  0.00    -0.249 N 
HETATM   27  C   UNL     1      -6.577   5.108 -28.820  1.00  0.00     0.339 C 
HETATM   28  N   UNL     1      -5.507   5.254 -29.668  1.00  0.00    -0.308 N 
HETATM   29  O   UNL     1      -6.985   5.930 -28.005  1.00  0.00    -0.245 OA
HETATM   30  H   UNL     1      -5.270   4.425 -30.192  1.00  0.00     0.170 HD
HETATM   31  H   UNL     1      -7.944   3.723 -28.228  1.00  0.00     0.192 HD
BRANCH  28  32
HETATM   32  C   UNL     1      -4.704   6.397 -29.848  1.00  0.00     0.036 A 
HETATM   33  C   UNL     1      -3.875   6.929 -28.856  1.00  0.00     0.031 A 
HETATM   34  C   UNL     1      -3.121   8.084 -29.095  1.00  0.00     0.026 A 
HETATM   35  C   UNL     1      -3.195   8.714 -30.333  1.00  0.00     0.034 A 
HETATM   36 CL   UNL     1      -2.279  10.141 -30.625  1.00  0.00    -0.084 Cl
HETATM   37  C   UNL     1      -4.011   8.196 -31.334  1.00  0.00     0.026 A 
HETATM   38  C   UNL     1      -4.763   7.038 -31.093  1.00  0.00     0.031 A 
ENDBRANCH  28  32
ENDBRANCH  23  26
ENDBRANCH   1  22
TORSDOF 7
ENDMDL
MODEL 8
REMARK VINA RESULT:      -9.4      3.454      7.545
REMARK  7 active torsions:
REMARK  status: ('A' for Active; 'I' for Inactive)
REMARK    1  A    between atoms: C_8  and  C_9 
REMARK    2  A    between atoms: C_9  and  C_10 
REMARK    3  A    between atoms: C_10  and  N_11 
REMARK    4  A    between atoms: C_10  and  C_19 
REMARK       I    between atoms: N_11  and  C_12 
REMARK    5  A    between atoms: C_12  and  C_13 
REMARK       I    between atoms: C_19  and  N_20 
REMARK    6  A    between atoms: N_20  and  N_21 
REMARK       I    between atoms: N_21  and  C_22 
REMARK       I    between atoms: C_22  and  N_23 
REMARK    7  A    between atoms: N_23  and  C_24 
ROOT
HETATM    1  C   UNL     1      -4.661   4.707 -33.371  1.00  0.00     0.183 C 
ENDROOT
BRANCH   1   2
HETATM    2  C   UNL     1      -4.226   6.154 -33.070  1.00  0.00     0.076 C 
BRANCH   2   3
HETATM    3  C   UNL     1      -3.636   6.328 -31.702  1.00  0.00    -0.028 A 
HETATM    4  C   UNL     1      -2.253   6.537 -31.388  1.00  0.00    -0.002 A 
HETATM    5  C   UNL     1      -1.077   6.653 -32.158  1.00  0.00     0.014 A 
HETATM    6  C   UNL     1      -2.151   6.636 -30.000  1.00  0.00     0.042 A 
HETATM    7  C   UNL     1       0.150   6.858 -31.517  1.00  0.00     0.001 A 
HETATM    8  C   UNL     1       0.219   6.948 -30.129  1.00  0.00     0.002 A 
HETATM    9  C   UNL     1      -0.932   6.839 -29.343  1.00  0.00     0.030 A 
HETATM   10  N   UNL     1      -3.420   6.507 -29.490  1.00  0.00    -0.365 N 
HETATM   11  H   UNL     1      -3.649   6.552 -28.507  1.00  0.00     0.165 HD
HETATM   12  C   UNL     1      -4.323   6.321 -30.503  1.00  0.00     0.096 A 
ENDBRANCH   2   3
ENDBRANCH   1   2
BRANCH   1  13
HETATM   13  N   UNL     1      -6.049   4.456 -32.965  1.00  0.00    -0.343 N 
HETATM   14  C   UNL     1      -6.824   3.474 -33.540  1.00  0.00     0.259 C 
HETATM   15  O   UNL     1      -6.302   2.580 -34.209  1.00  0.00    -0.267 OA
HETATM   16  H   UNL     1      -6.557   5.226 -32.541  1.00  0.00     0.163 HD
BRANCH  14  17
HETATM   17  C   UNL     1      -8.256   3.555 -33.295  1.00  0.00     0.072 A 
HETATM   18  S   UNL     1      -9.136   5.015 -33.492  1.00  0.00    -0.097 SA
HETATM   19  C   UNL     1     -10.605   4.277 -33.026  1.00  0.00     0.050 A 
HETATM   20  C   UNL     1     -10.442   2.942 -32.735  1.00  0.00     0.009 A 
HETATM   21  C   UNL     1      -9.087   2.526 -32.890  1.00  0.00     0.025 A 
ENDBRANCH  14  17
ENDBRANCH   1  13
BRANCH   1  22
HETATM   22  C   UNL     1      -3.663   3.739 -32.693  1.00  0.00     0.259 C 
HETATM   23  N   UNL     1      -4.202   2.935 -31.696  1.00  0.00    -0.264 N 
HETATM   24  H   UNL     1      -5.220   2.815 -31.703  1.00  0.00     0.190 HD
HETATM   25  O   UNL     1      -2.508   3.577 -33.093  1.00  0.00    -0.269 OA
BRANCH  23  26
HETATM   26  N   UNL     1      -3.424   1.820 -31.337  1.00  0.00    -0.249 N 
HETATM   27  C   UNL     1      -3.713   0.523 -31.689  1.00  0.00     0.339 C 
HETATM   28  N   UNL     1      -4.661   0.398 -32.675  1.00  0.00    -0.308 N 
HETATM   29  O   UNL     1      -3.104  -0.388 -31.137  1.00  0.00    -0.245 OA
HETATM   30  H   UNL     1      -5.118   1.261 -32.930  1.00  0.00     0.170 HD
HETATM   31  H   UNL     1      -2.845   1.929 -30.503  1.00  0.00     0.192 HD
BRANCH  28  32
HETATM   32  C   UNL     1      -5.078  -0.782 -33.321  1.00  0.00     0.036 A 
HETATM   33  C   UNL     1      -4.202  -1.782 -33.756  1.00  0.00     0.031 A 
HETATM   34  C   UNL     1      -4.684  -2.918 -34.416  1.00  0.00     0.026 A 
HETATM   35  C   UNL     1      -6.049  -3.059 -34.645  1.00  0.00     0.034 A 
HETATM   36 CL   UNL     1      -6.641  -4.450 -35.467  1.00  0.00    -0.084 Cl
HETATM   37  C   UNL     1      -6.935  -2.075 -34.215  1.00  0.00     0.026 A 
HETATM   38  C   UNL     1      -6.451  -0.940 -33.554  1.00  0.00     0.031 A 
ENDBRANCH  28  32
ENDBRANCH  23  26
ENDBRANCH   1  22
TORSDOF 7
ENDMDL
MODEL 9
REMARK VINA RESULT:      -9.4      1.895      2.372
REMARK  7 active torsions:
REMARK  status: ('A' for Active; 'I' for Inactive)
REMARK    1  A    between atoms: C_8  and  C_9 
REMARK    2  A    between atoms: C_9  and  C_10 
REMARK    3  A    between atoms: C_10  and  N_11 
REMARK    4  A    between atoms: C_10  and  C_19 
REMARK       I    between atoms: N_11  and  C_12 
REMARK    5  A    between atoms: C_12  and  C_13 
REMARK       I    between atoms: C_19  and  N_20 
REMARK    6  A    between atoms: N_20  and  N_21 
REMARK       I    between atoms: N_21  and  C_22 
REMARK       I    between atoms: C_22  and  N_23 
REMARK    7  A    between atoms: N_23  and  C_24 
ROOT
HETATM    1  C   UNL     1      -7.570   0.995 -32.578  1.00  0.00     0.183 C 
ENDROOT
BRANCH   1   2
HETATM    2  C   UNL     1      -6.563   0.925 -33.742  1.00  0.00     0.076 C 
BRANCH   2   3
HETATM    3  C   UNL     1      -6.131  -0.472 -34.075  1.00  0.00    -0.028 A 
HETATM    4  C   UNL     1      -5.118  -1.235 -33.407  1.00  0.00    -0.002 A 
HETATM    5  C   UNL     1      -4.261  -0.988 -32.315  1.00  0.00     0.014 A 
HETATM    6  C   UNL     1      -5.038  -2.472 -34.048  1.00  0.00     0.042 A 
HETATM    7  C   UNL     1      -3.359  -1.978 -31.908  1.00  0.00     0.001 A 
HETATM    8  C   UNL     1      -3.301  -3.201 -32.571  1.00  0.00     0.002 A 
HETATM    9  C   UNL     1      -4.141  -3.472 -33.655  1.00  0.00     0.030 A 
HETATM   10  N   UNL     1      -5.974  -2.469 -35.055  1.00  0.00    -0.365 N 
HETATM   11  H   UNL     1      -6.147  -3.246 -35.677  1.00  0.00     0.165 HD
HETATM   12  C   UNL     1      -6.638  -1.272 -35.081  1.00  0.00     0.096 A 
ENDBRANCH   2   3
ENDBRANCH   1   2
BRANCH   1  13
HETATM   13  N   UNL     1      -8.877   1.504 -33.013  1.00  0.00    -0.343 N 
HETATM   14  C   UNL     1     -10.003   0.712 -33.059  1.00  0.00     0.259 C 
HETATM   15  O   UNL     1     -10.031  -0.367 -32.466  1.00  0.00    -0.267 OA
HETATM   16  H   UNL     1      -8.880   2.311 -33.629  1.00  0.00     0.163 HD
BRANCH  14  17
HETATM   17  C   UNL     1     -11.128   1.235 -33.820  1.00  0.00     0.072 A 
HETATM   18  S   UNL     1     -12.698   0.550 -33.720  1.00  0.00    -0.097 SA
HETATM   19  C   UNL     1     -13.337   1.669 -34.842  1.00  0.00     0.050 A 
HETATM   20  C   UNL     1     -12.384   2.559 -35.283  1.00  0.00     0.009 A 
HETATM   21  C   UNL     1     -11.111   2.309 -34.693  1.00  0.00     0.025 A 
ENDBRANCH  14  17
ENDBRANCH   1  13
BRANCH   1  22
HETATM   22  C   UNL     1      -6.955   1.844 -31.441  1.00  0.00     0.259 C 
HETATM   23  N   UNL     1      -7.033   3.219 -31.619  1.00  0.00    -0.264 N 
HETATM   24  H   UNL     1      -7.734   3.556 -32.287  1.00  0.00     0.190 HD
HETATM   25  O   UNL     1      -6.553   1.356 -30.382  1.00  0.00    -0.269 OA
BRANCH  23  26
HETATM   26  N   UNL     1      -6.825   3.989 -30.461  1.00  0.00    -0.249 N 
HETATM   27  C   UNL     1      -5.625   4.560 -30.111  1.00  0.00     0.339 C 
HETATM   28  N   UNL     1      -4.691   4.586 -31.117  1.00  0.00    -0.308 N 
HETATM   29  O   UNL     1      -5.495   5.013 -28.978  1.00  0.00    -0.245 OA
HETATM   30  H   UNL     1      -4.952   4.072 -31.946  1.00  0.00     0.170 HD
HETATM   31  H   UNL     1      -7.471   3.818 -29.690  1.00  0.00     0.192 HD
BRANCH  28  32
HETATM   32  C   UNL     1      -3.425   5.202 -31.098  1.00  0.00     0.036 A 
HETATM   33  C   UNL     1      -3.208   6.523 -30.695  1.00  0.00     0.031 A 
HETATM   34  C   UNL     1      -1.925   7.081 -30.726  1.00  0.00     0.026 A 
HETATM   35  C   UNL     1      -0.849   6.317 -31.164  1.00  0.00     0.034 A 
HETATM   36 CL   UNL     1       0.727   7.005 -31.215  1.00  0.00    -0.084 Cl
HETATM   37  C   UNL     1      -1.045   4.998 -31.566  1.00  0.00     0.026 A 
HETATM   38  C   UNL     1      -2.330   4.442 -31.532  1.00  0.00     0.031 A 
ENDBRANCH  28  32
ENDBRANCH  23  26
ENDBRANCH   1  22
TORSDOF 7
ENDMDL
MODEL 10
REMARK VINA RESULT:      -9.4      4.116      5.452
REMARK  7 active torsions:
REMARK  status: ('A' for Active; 'I' for Inactive)
REMARK    1  A    between atoms: C_8  and  C_9 
REMARK    2  A    between atoms: C_9  and  C_10 
REMARK    3  A    between atoms: C_10  and  N_11 
REMARK    4  A    between atoms: C_10  and  C_19 
REMARK       I    between atoms: N_11  and  C_12 
REMARK    5  A    between atoms: C_12  and  C_13 
REMARK       I    between atoms: C_19  and  N_20 
REMARK    6  A    between atoms: N_20  and  N_21 
REMARK       I    between atoms: N_21  and  C_22 
REMARK       I    between atoms: C_22  and  N_23 
REMARK    7  A    between atoms: N_23  and  C_24 
ROOT
HETATM    1  C   UNL     1      -4.510   2.732 -31.545  1.00  0.00     0.183 C 
ENDROOT
BRANCH   1   2
HETATM    2  C   UNL     1      -4.658   1.633 -32.615  1.00  0.00     0.076 C 
BRANCH   2   3
HETATM    3  C   UNL     1      -3.992   0.342 -32.240  1.00  0.00    -0.028 A 
HETATM    4  C   UNL     1      -4.175  -0.930 -32.874  1.00  0.00    -0.002 A 
HETATM    5  C   UNL     1      -4.949  -1.382 -33.963  1.00  0.00     0.014 A 
HETATM    6  C   UNL     1      -3.374  -1.852 -32.200  1.00  0.00     0.042 A 
HETATM    7  C   UNL     1      -4.898  -2.731 -34.333  1.00  0.00     0.001 A 
HETATM    8  C   UNL     1      -4.091  -3.627 -33.637  1.00  0.00     0.002 A 
HETATM    9  C   UNL     1      -3.311  -3.204 -32.556  1.00  0.00     0.030 A 
HETATM   10  N   UNL     1      -2.718  -1.168 -31.205  1.00  0.00    -0.365 N 
HETATM   11  H   UNL     1      -2.057  -1.585 -30.564  1.00  0.00     0.165 HD
HETATM   12  C   UNL     1      -3.081   0.153 -31.218  1.00  0.00     0.096 A 
ENDBRANCH   2   3
ENDBRANCH   1   2
BRANCH   1  13
HETATM   13  N   UNL     1      -5.797   3.361 -31.223  1.00  0.00    -0.343 N 
HETATM   14  C   UNL     1      -6.774   2.719 -30.495  1.00  0.00     0.259 C 
HETATM   15  O   UNL     1      -6.503   1.712 -29.839  1.00  0.00    -0.267 OA
HETATM   16  H   UNL     1      -6.121   4.101 -31.839  1.00  0.00     0.163 HD
BRANCH  14  17
HETATM   17  C   UNL     1      -8.105   3.308 -30.542  1.00  0.00     0.072 A 
HETATM   18  S   UNL     1      -9.418   2.541 -31.336  1.00  0.00    -0.097 SA
HETATM   19  C   UNL     1     -10.491   3.812 -30.946  1.00  0.00     0.050 A 
HETATM   20  C   UNL     1      -9.874   4.802 -30.215  1.00  0.00     0.009 A 
HETATM   21  C   UNL     1      -8.498   4.511 -29.982  1.00  0.00     0.025 A 
ENDBRANCH  14  17
ENDBRANCH   1  13
BRANCH   1  22
HETATM   22  C   UNL     1      -3.458   3.756 -32.030  1.00  0.00     0.259 C 
HETATM   23  N   UNL     1      -2.523   4.141 -31.077  1.00  0.00    -0.264 N 
HETATM   24  H   UNL     1      -2.405   3.517 -30.271  1.00  0.00     0.190 HD
HETATM   25  O   UNL     1      -3.353   4.104 -33.208  1.00  0.00    -0.269 OA
BRANCH  23  26
HETATM   26  N   UNL     1      -1.368   4.763 -31.584  1.00  0.00    -0.249 N 
HETATM   27  C   UNL     1      -0.702   5.793 -30.963  1.00  0.00     0.339 C 
HETATM   28  N   UNL     1      -1.059   5.995 -29.653  1.00  0.00    -0.308 N 
HETATM   29  O   UNL     1       0.149   6.411 -31.594  1.00  0.00    -0.245 OA
HETATM   30  H   UNL     1      -1.851   5.450 -29.344  1.00  0.00     0.170 HD
HETATM   31  H   UNL     1      -1.234   4.701 -32.593  1.00  0.00     0.192 HD
BRANCH  28  32
HETATM   32  C   UNL     1      -0.478   6.887 -28.731  1.00  0.00     0.036 A 
HETATM   33  C   UNL     1      -0.829   8.237 -28.627  1.00  0.00     0.031 A 
HETATM   34  C   UNL     1      -0.192   9.075 -27.705  1.00  0.00     0.026 A 
HETATM   35  C   UNL     1       0.804   8.564 -26.880  1.00  0.00     0.034 A 
HETATM   36 CL   UNL     1       1.598   9.595 -25.754  1.00  0.00    -0.084 Cl
HETATM   37  C   UNL     1       1.165   7.221 -26.966  1.00  0.00     0.026 A 
HETATM   38  C   UNL     1       0.523   6.385 -27.889  1.00  0.00     0.031 A 
ENDBRANCH  28  32
ENDBRANCH  23  26
ENDBRANCH   1  22
TORSDOF 7
ENDMDL
