MODEL 1
REMARK VINA RESULT:      -8.9      0.000      0.000
REMARK  6 active torsions:
REMARK  status: ('A' for Active; 'I' for Inactive)
REMARK    1  A    between atoms: C_7  and  C_8 
REMARK    2  A    between atoms: N_9  and  N_10 
REMARK       I    between atoms: N_10  and  C_11 
REMARK    3  A    between atoms: C_11  and  C_12 
REMARK    4  A    between atoms: C_15  and  O_16 
REMARK    5  A    between atoms: O_16  and  C_17 
REMARK    6  A    between atoms: C_17  and  C_20 
ROOT
HETATM    1  N   UNL     1      -3.755   3.613 -32.051  1.00  0.00    -0.243 N 
HETATM    2  C   UNL     1      -2.650   4.226 -32.632  1.00  0.00     0.271 C 
HETATM    3  O   UNL     1      -2.295   4.098 -33.801  1.00  0.00    -0.266 OA
HETATM    4  H   UNL     1      -3.912   3.682 -31.054  1.00  0.00     0.192 HD
ENDROOT
BRANCH   1   5
HETATM    5  N   UNL     1      -4.583   2.697 -32.655  1.00  0.00    -0.183 NA
HETATM    6  C   UNL     1      -4.926   1.636 -31.997  1.00  0.00     0.153 C 
BRANCH   6   7
HETATM    7  C   UNL     1      -5.832   0.669 -32.597  1.00  0.00     0.018 A 
HETATM    8  C   UNL     1      -7.214   0.815 -32.614  1.00  0.00     0.018 A 
HETATM    9  C   UNL     1      -8.086   1.893 -32.075  1.00  0.00     0.069 C 
HETATM   10  N   UNL     1      -7.743  -0.275 -33.256  1.00  0.00    -0.358 N 
HETATM   11  H   UNL     1      -8.728  -0.435 -33.416  1.00  0.00     0.166 HD
HETATM   12  C   UNL     1      -6.748  -1.129 -33.663  1.00  0.00     0.043 A 
HETATM   13  C   UNL     1      -5.534  -0.566 -33.266  1.00  0.00     0.004 A 
HETATM   14  C   UNL     1      -6.836  -2.347 -34.349  1.00  0.00     0.030 A 
HETATM   15  C   UNL     1      -4.348  -1.264 -33.581  1.00  0.00     0.014 A 
HETATM   16  C   UNL     1      -4.416  -2.482 -34.268  1.00  0.00     0.001 A 
HETATM   17  C   UNL     1      -5.645  -3.015 -34.645  1.00  0.00     0.002 A 
ENDBRANCH   6   7
ENDBRANCH   1   5
BRANCH   2  18
HETATM   18  C   UNL     1      -1.857   5.131 -31.745  1.00  0.00     0.033 A 
HETATM   19  C   UNL     1      -0.459   5.191 -31.760  1.00  0.00     0.020 A 
HETATM   20  C   UNL     1       0.212   6.055 -30.886  1.00  0.00     0.038 A 
HETATM   21  C   UNL     1      -0.492   6.878 -30.000  1.00  0.00     0.075 A 
HETATM   22  C   UNL     1      -1.884   6.835 -30.002  1.00  0.00     0.038 A 
HETATM   23  C   UNL     1      -2.561   5.970 -30.870  1.00  0.00     0.020 A 
BRANCH  21  24
HETATM   24  O   UNL     1       0.296   7.658 -29.204  1.00  0.00    -0.279 OA
BRANCH  24  25
HETATM   25  C   UNL     1       0.551   7.228 -27.863  1.00  0.00     0.418 C 
HETATM   26  F   UNL     1      -0.628   7.039 -27.217  1.00  0.00    -0.169 F 
HETATM   27  F   UNL     1       1.200   6.033 -27.906  1.00  0.00    -0.169 F 
BRANCH  25  28
HETATM   28  C   UNL     1       1.418   8.254 -27.135  1.00  0.00     0.455 C 
HETATM   29  F   UNL     1       2.288   7.652 -26.280  1.00  0.00    -0.205 F 
HETATM   30  F   UNL     1       2.178   8.968 -28.010  1.00  0.00    -0.205 F 
ENDBRANCH  25  28
ENDBRANCH  24  25
ENDBRANCH  21  24
ENDBRANCH   2  18
TORSDOF 6
ENDMDL
MODEL 2
REMARK VINA RESULT:      -8.8      1.931      2.829
REMARK  6 active torsions:
REMARK  status: ('A' for Active; 'I' for Inactive)
REMARK    1  A    between atoms: C_7  and  C_8 
REMARK    2  A    between atoms: N_9  and  N_10 
REMARK       I    between atoms: N_10  and  C_11 
REMARK    3  A    between atoms: C_11  and  C_12 
REMARK    4  A    between atoms: C_15  and  O_16 
REMARK    5  A    between atoms: O_16  and  C_17 
REMARK    6  A    between atoms: C_17  and  C_20 
ROOT
HETATM    1  N   UNL     1      -4.504   2.001 -32.189  1.00  0.00    -0.243 N 
HETATM    2  C   UNL     1      -4.721   3.322 -32.565  1.00  0.00     0.271 C 
HETATM    3  O   UNL     1      -5.640   3.720 -33.277  1.00  0.00    -0.266 OA
HETATM    4  H   UNL     1      -3.660   1.743 -31.694  1.00  0.00     0.192 HD
ENDROOT
BRANCH   1   5
HETATM    5  N   UNL     1      -5.221   0.910 -32.618  1.00  0.00    -0.183 NA
HETATM    6  C   UNL     1      -4.811   0.264 -33.662  1.00  0.00     0.153 C 
BRANCH   6   7
HETATM    7  C   UNL     1      -5.530  -0.918 -34.114  1.00  0.00     0.018 A 
HETATM    8  C   UNL     1      -6.803  -0.880 -34.671  1.00  0.00     0.018 A 
HETATM    9  C   UNL     1      -7.713   0.264 -34.942  1.00  0.00     0.069 C 
HETATM   10  N   UNL     1      -7.165  -2.168 -34.976  1.00  0.00    -0.358 N 
HETATM   11  H   UNL     1      -8.042  -2.441 -35.395  1.00  0.00     0.166 HD
HETATM   12  C   UNL     1      -6.166  -3.046 -34.637  1.00  0.00     0.043 A 
HETATM   13  C   UNL     1      -5.123  -2.295 -34.094  1.00  0.00     0.004 A 
HETATM   14  C   UNL     1      -6.112  -4.439 -34.774  1.00  0.00     0.030 A 
HETATM   15  C   UNL     1      -3.964  -2.982 -33.670  1.00  0.00     0.014 A 
HETATM   16  C   UNL     1      -3.891  -4.374 -33.801  1.00  0.00     0.001 A 
HETATM   17  C   UNL     1      -4.952  -5.091 -34.345  1.00  0.00     0.002 A 
ENDBRANCH   6   7
ENDBRANCH   1   5
BRANCH   2  18
HETATM   18  C   UNL     1      -3.756   4.328 -32.025  1.00  0.00     0.033 A 
HETATM   19  C   UNL     1      -4.046   5.170 -30.946  1.00  0.00     0.020 A 
HETATM   20  C   UNL     1      -3.092   6.098 -30.508  1.00  0.00     0.038 A 
HETATM   21  C   UNL     1      -1.839   6.191 -31.122  1.00  0.00     0.075 A 
HETATM   22  C   UNL     1      -1.541   5.336 -32.181  1.00  0.00     0.038 A 
HETATM   23  C   UNL     1      -2.493   4.410 -32.626  1.00  0.00     0.020 A 
BRANCH  21  24
HETATM   24  O   UNL     1      -1.019   7.146 -30.595  1.00  0.00    -0.279 OA
BRANCH  24  25
HETATM   25  C   UNL     1       0.354   6.816 -30.362  1.00  0.00     0.418 C 
HETATM   26  F   UNL     1       1.045   6.910 -31.527  1.00  0.00    -0.169 F 
HETATM   27  F   UNL     1       0.878   7.723 -29.493  1.00  0.00    -0.169 F 
BRANCH  25  28
HETATM   28  C   UNL     1       0.467   5.413 -29.768  1.00  0.00     0.455 C 
HETATM   29  F   UNL     1       1.340   4.644 -30.473  1.00  0.00    -0.205 F 
HETATM   30  F   UNL     1       0.940   5.454 -28.493  1.00  0.00    -0.205 F 
ENDBRANCH  25  28
ENDBRANCH  24  25
ENDBRANCH  21  24
ENDBRANCH   2  18
TORSDOF 6
ENDMDL
MODEL 3
REMARK VINA RESULT:      -8.8      1.359      2.230
REMARK  6 active torsions:
REMARK  status: ('A' for Active; 'I' for Inactive)
REMARK    1  A    between atoms: C_7  and  C_8 
REMARK    2  A    between atoms: N_9  and  N_10 
REMARK       I    between atoms: N_10  and  C_11 
REMARK    3  A    between atoms: C_11  and  C_12 
REMARK    4  A    between atoms: C_15  and  O_16 
REMARK    5  A    between atoms: O_16  and  C_17 
REMARK    6  A    between atoms: C_17  and  C_20 
ROOT
HETATM    1  N   UNL     1      -2.729   3.745 -31.787  1.00  0.00    -0.243 N 
HETATM    2  C   UNL     1      -1.873   4.728 -32.272  1.00  0.00     0.271 C 
HETATM    3  O   UNL     1      -1.473   4.819 -33.430  1.00  0.00    -0.266 OA
HETATM    4  H   UNL     1      -2.919   3.677 -30.796  1.00  0.00     0.192 HD
ENDROOT
BRANCH   1   5
HETATM    5  N   UNL     1      -3.200   2.663 -32.492  1.00  0.00    -0.183 NA
HETATM    6  C   UNL     1      -3.877   1.755 -31.864  1.00  0.00     0.153 C 
BRANCH   6   7
HETATM    7  C   UNL     1      -4.421   0.620 -32.593  1.00  0.00     0.018 A 
HETATM    8  C   UNL     1      -3.880  -0.659 -32.543  1.00  0.00     0.018 A 
HETATM    9  C   UNL     1      -2.704  -1.191 -31.805  1.00  0.00     0.069 C 
HETATM   10  N   UNL     1      -4.642  -1.468 -33.347  1.00  0.00    -0.358 N 
HETATM   11  H   UNL     1      -4.481  -2.454 -33.501  1.00  0.00     0.166 HD
HETATM   12  C   UNL     1      -5.667  -0.757 -33.920  1.00  0.00     0.043 A 
HETATM   13  C   UNL     1      -5.559   0.559 -33.467  1.00  0.00     0.004 A 
HETATM   14  C   UNL     1      -6.673  -1.182 -34.797  1.00  0.00     0.030 A 
HETATM   15  C   UNL     1      -6.517   1.493 -33.917  1.00  0.00     0.014 A 
HETATM   16  C   UNL     1      -7.532   1.087 -34.792  1.00  0.00     0.001 A 
HETATM   17  C   UNL     1      -7.606  -0.234 -35.225  1.00  0.00     0.002 A 
ENDBRANCH   6   7
ENDBRANCH   1   5
BRANCH   2  18
HETATM   18  C   UNL     1      -1.436   5.764 -31.288  1.00  0.00     0.033 A 
HETATM   19  C   UNL     1      -0.099   6.138 -31.107  1.00  0.00     0.020 A 
HETATM   20  C   UNL     1       0.232   7.107 -30.152  1.00  0.00     0.038 A 
HETATM   21  C   UNL     1      -0.755   7.726 -29.378  1.00  0.00     0.075 A 
HETATM   22  C   UNL     1      -2.088   7.371 -29.574  1.00  0.00     0.038 A 
HETATM   23  C   UNL     1      -2.424   6.399 -30.524  1.00  0.00     0.020 A 
BRANCH  21  24
HETATM   24  O   UNL     1      -0.282   8.642 -28.483  1.00  0.00    -0.279 OA
BRANCH  24  25
HETATM   25  C   UNL     1       0.070   8.196 -27.169  1.00  0.00     0.418 C 
HETATM   26  F   UNL     1      -0.763   8.766 -26.261  1.00  0.00    -0.169 F 
HETATM   27  F   UNL     1      -0.105   6.848 -27.107  1.00  0.00    -0.169 F 
BRANCH  25  28
HETATM   28  C   UNL     1       1.528   8.537 -26.869  1.00  0.00     0.455 C 
HETATM   29  F   UNL     1       2.198   7.460 -26.374  1.00  0.00    -0.205 F 
HETATM   30  F   UNL     1       2.191   8.912 -27.996  1.00  0.00    -0.205 F 
ENDBRANCH  25  28
ENDBRANCH  24  25
ENDBRANCH  21  24
ENDBRANCH   2  18
TORSDOF 6
ENDMDL
MODEL 4
REMARK VINA RESULT:      -8.3      7.725     10.192
REMARK  6 active torsions:
REMARK  status: ('A' for Active; 'I' for Inactive)
REMARK    1  A    between atoms: C_7  and  C_8 
REMARK    2  A    between atoms: N_9  and  N_10 
REMARK       I    between atoms: N_10  and  C_11 
REMARK    3  A    between atoms: C_11  and  C_12 
REMARK    4  A    between atoms: C_15  and  O_16 
REMARK    5  A    between atoms: O_16  and  C_17 
REMARK    6  A    between atoms: C_17  and  C_20 
ROOT
HETATM    1  N   UNL     1      -8.619   0.859 -34.282  1.00  0.00    -0.243 N 
HETATM    2  C   UNL     1      -9.947   0.912 -33.873  1.00  0.00     0.271 C 
HETATM    3  O   UNL     1     -10.485   0.131 -33.092  1.00  0.00    -0.266 OA
HETATM    4  H   UNL     1      -8.285   1.472 -35.014  1.00  0.00     0.192 HD
ENDROOT
BRANCH   1   5
HETATM    5  N   UNL     1      -7.710  -0.118 -33.956  1.00  0.00    -0.183 NA
HETATM    6  C   UNL     1      -6.468   0.049 -34.282  1.00  0.00     0.153 C 
BRANCH   6   7
HETATM    7  C   UNL     1      -5.479  -0.953 -33.915  1.00  0.00     0.018 A 
HETATM    8  C   UNL     1      -4.341  -0.674 -33.166  1.00  0.00     0.018 A 
HETATM    9  C   UNL     1      -3.850   0.601 -32.580  1.00  0.00     0.069 C 
HETATM   10  N   UNL     1      -3.643  -1.845 -33.012  1.00  0.00    -0.358 N 
HETATM   11  H   UNL     1      -2.773  -1.941 -32.509  1.00  0.00     0.166 HD
HETATM   12  C   UNL     1      -4.291  -2.882 -33.637  1.00  0.00     0.043 A 
HETATM   13  C   UNL     1      -5.449  -2.357 -34.213  1.00  0.00     0.004 A 
HETATM   14  C   UNL     1      -3.939  -4.234 -33.729  1.00  0.00     0.030 A 
HETATM   15  C   UNL     1      -6.297  -3.241 -34.914  1.00  0.00     0.014 A 
HETATM   16  C   UNL     1      -5.963  -4.597 -35.015  1.00  0.00     0.001 A 
HETATM   17  C   UNL     1      -4.797  -5.084 -34.430  1.00  0.00     0.002 A 
ENDBRANCH   6   7
ENDBRANCH   1   5
BRANCH   2  18
HETATM   18  C   UNL     1     -10.761   2.037 -34.425  1.00  0.00     0.033 A 
HETATM   19  C   UNL     1     -12.117   1.917 -34.749  1.00  0.00     0.020 A 
HETATM   20  C   UNL     1     -12.809   3.015 -35.278  1.00  0.00     0.038 A 
HETATM   21  C   UNL     1     -12.170   4.244 -35.477  1.00  0.00     0.075 A 
HETATM   22  C   UNL     1     -10.827   4.369 -35.132  1.00  0.00     0.038 A 
HETATM   23  C   UNL     1     -10.129   3.274 -34.608  1.00  0.00     0.020 A 
BRANCH  21  24
HETATM   24  O   UNL     1     -12.968   5.217 -36.007  1.00  0.00    -0.279 OA
BRANCH  24  25
HETATM   25  C   UNL     1     -13.427   6.267 -35.150  1.00  0.00     0.418 C 
HETATM   26  F   UNL     1     -14.700   6.598 -35.483  1.00  0.00    -0.169 F 
HETATM   27  F   UNL     1     -13.437   5.809 -33.868  1.00  0.00    -0.169 F 
BRANCH  25  28
HETATM   28  C   UNL     1     -12.499   7.476 -35.252  1.00  0.00     0.455 C 
HETATM   29  F   UNL     1     -11.594   7.496 -34.236  1.00  0.00    -0.205 F 
HETATM   30  F   UNL     1     -11.776   7.448 -36.405  1.00  0.00    -0.205 F 
ENDBRANCH  25  28
ENDBRANCH  24  25
ENDBRANCH  21  24
ENDBRANCH   2  18
TORSDOF 6
ENDMDL
MODEL 5
REMARK VINA RESULT:      -8.2      2.989      4.644
REMARK  6 active torsions:
REMARK  status: ('A' for Active; 'I' for Inactive)
REMARK    1  A    between atoms: C_7  and  C_8 
REMARK    2  A    between atoms: N_9  and  N_10 
REMARK       I    between atoms: N_10  and  C_11 
REMARK    3  A    between atoms: C_11  and  C_12 
REMARK    4  A    between atoms: C_15  and  O_16 
REMARK    5  A    between atoms: O_16  and  C_17 
REMARK    6  A    between atoms: C_17  and  C_20 
ROOT
HETATM    1  N   UNL     1      -5.804   2.803 -33.100  1.00  0.00    -0.243 N 
HETATM    2  C   UNL     1      -5.195   3.898 -33.704  1.00  0.00     0.271 C 
HETATM    3  O   UNL     1      -5.687   4.587 -34.594  1.00  0.00    -0.266 OA
HETATM    4  H   UNL     1      -5.284   2.221 -32.456  1.00  0.00     0.192 HD
ENDROOT
BRANCH   1   5
HETATM    5  N   UNL     1      -7.013   2.254 -33.452  1.00  0.00    -0.183 NA
HETATM    6  C   UNL     1      -8.087   2.680 -32.867  1.00  0.00     0.153 C 
BRANCH   6   7
HETATM    7  C   UNL     1      -9.384   2.144 -33.249  1.00  0.00     0.018 A 
HETATM    8  C   UNL     1      -9.881   0.929 -32.790  1.00  0.00     0.018 A 
HETATM    9  C   UNL     1      -9.292  -0.078 -31.868  1.00  0.00     0.069 C 
HETATM   10  N   UNL     1     -11.119   0.744 -33.351  1.00  0.00    -0.358 N 
HETATM   11  H   UNL     1     -11.715  -0.057 -33.194  1.00  0.00     0.166 HD
HETATM   12  C   UNL     1     -11.448   1.802 -34.162  1.00  0.00     0.043 A 
HETATM   13  C   UNL     1     -10.381   2.700 -34.119  1.00  0.00     0.004 A 
HETATM   14  C   UNL     1     -12.604   2.025 -34.919  1.00  0.00     0.030 A 
HETATM   15  C   UNL     1     -10.487   3.888 -34.876  1.00  0.00     0.014 A 
HETATM   16  C   UNL     1     -11.636   4.130 -35.638  1.00  0.00     0.001 A 
HETATM   17  C   UNL     1     -12.679   3.209 -35.659  1.00  0.00     0.002 A 
ENDBRANCH   6   7
ENDBRANCH   1   5
BRANCH   2  18
HETATM   18  C   UNL     1      -3.837   4.260 -33.195  1.00  0.00     0.033 A 
HETATM   19  C   UNL     1      -2.867   4.897 -33.976  1.00  0.00     0.020 A 
HETATM   20  C   UNL     1      -1.611   5.190 -33.429  1.00  0.00     0.038 A 
HETATM   21  C   UNL     1      -1.309   4.870 -32.102  1.00  0.00     0.075 A 
HETATM   22  C   UNL     1      -2.283   4.257 -31.316  1.00  0.00     0.038 A 
HETATM   23  C   UNL     1      -3.538   3.957 -31.859  1.00  0.00     0.020 A 
BRANCH  21  24
HETATM   24  O   UNL     1      -0.044   5.207 -31.712  1.00  0.00    -0.279 OA
BRANCH  24  25
HETATM   25  C   UNL     1       0.146   6.428 -30.990  1.00  0.00     0.418 C 
HETATM   26  F   UNL     1       1.237   7.074 -31.475  1.00  0.00    -0.169 F 
HETATM   27  F   UNL     1      -0.937   7.227 -31.195  1.00  0.00    -0.169 F 
BRANCH  25  28
HETATM   28  C   UNL     1       0.294   6.142 -29.497  1.00  0.00     0.455 C 
HETATM   29  F   UNL     1       0.998   4.998 -29.278  1.00  0.00    -0.205 F 
HETATM   30  F   UNL     1       0.979   7.135 -28.869  1.00  0.00    -0.205 F 
ENDBRANCH  25  28
ENDBRANCH  24  25
ENDBRANCH  21  24
ENDBRANCH   2  18
TORSDOF 6
ENDMDL
MODEL 6
REMARK VINA RESULT:      -8.1      8.217     11.057
REMARK  6 active torsions:
REMARK  status: ('A' for Active; 'I' for Inactive)
REMARK    1  A    between atoms: C_7  and  C_8 
REMARK    2  A    between atoms: N_9  and  N_10 
REMARK       I    between atoms: N_10  and  C_11 
REMARK    3  A    between atoms: C_11  and  C_12 
REMARK    4  A    between atoms: C_15  and  O_16 
REMARK    5  A    between atoms: O_16  and  C_17 
REMARK    6  A    between atoms: C_17  and  C_20 
ROOT
HETATM    1  N   UNL     1      -9.284   0.927 -34.352  1.00  0.00    -0.243 N 
HETATM    2  C   UNL     1      -9.406   2.261 -33.977  1.00  0.00     0.271 C 
HETATM    3  O   UNL     1      -8.476   3.051 -33.837  1.00  0.00    -0.266 OA
HETATM    4  H   UNL     1     -10.090   0.316 -34.335  1.00  0.00     0.192 HD
ENDROOT
BRANCH   1   5
HETATM    5  N   UNL     1      -8.106   0.245 -34.543  1.00  0.00    -0.183 NA
HETATM    6  C   UNL     1      -7.494  -0.245 -33.512  1.00  0.00     0.153 C 
BRANCH   6   7
HETATM    7  C   UNL     1      -6.267  -1.005 -33.690  1.00  0.00     0.018 A 
HETATM    8  C   UNL     1      -5.002  -0.507 -33.398  1.00  0.00     0.018 A 
HETATM    9  C   UNL     1      -4.575   0.816 -32.872  1.00  0.00     0.069 C 
HETATM   10  N   UNL     1      -4.089  -1.489 -33.685  1.00  0.00    -0.358 N 
HETATM   11  H   UNL     1      -3.089  -1.405 -33.568  1.00  0.00     0.166 HD
HETATM   12  C   UNL     1      -4.717  -2.616 -34.154  1.00  0.00     0.043 A 
HETATM   13  C   UNL     1      -6.087  -2.347 -34.168  1.00  0.00     0.004 A 
HETATM   14  C   UNL     1      -4.176  -3.842 -34.559  1.00  0.00     0.030 A 
HETATM   15  C   UNL     1      -6.956  -3.369 -34.611  1.00  0.00     0.014 A 
HETATM   16  C   UNL     1      -6.434  -4.602 -35.018  1.00  0.00     0.001 A 
HETATM   17  C   UNL     1      -5.061  -4.833 -34.993  1.00  0.00     0.002 A 
ENDBRANCH   6   7
ENDBRANCH   1   5
BRANCH   2  18
HETATM   18  C   UNL     1     -10.798   2.757 -33.755  1.00  0.00     0.033 A 
HETATM   19  C   UNL     1     -11.091   3.953 -33.089  1.00  0.00     0.020 A 
HETATM   20  C   UNL     1     -12.424   4.343 -32.908  1.00  0.00     0.038 A 
HETATM   21  C   UNL     1     -13.478   3.562 -33.395  1.00  0.00     0.075 A 
HETATM   22  C   UNL     1     -13.186   2.384 -34.079  1.00  0.00     0.038 A 
HETATM   23  C   UNL     1     -11.855   1.987 -34.259  1.00  0.00     0.020 A 
BRANCH  21  24
HETATM   24  O   UNL     1     -14.721   4.063 -33.135  1.00  0.00    -0.279 OA
BRANCH  24  25
HETATM   25  C   UNL     1     -15.435   3.564 -31.999  1.00  0.00     0.418 C 
HETATM   26  F   UNL     1     -14.620   2.758 -31.271  1.00  0.00    -0.169 F 
HETATM   27  F   UNL     1     -15.791   4.617 -31.213  1.00  0.00    -0.169 F 
BRANCH  25  28
HETATM   28  C   UNL     1     -16.689   2.817 -32.450  1.00  0.00     0.455 C 
HETATM   29  F   UNL     1     -16.378   1.765 -33.255  1.00  0.00    -0.205 F 
HETATM   30  F   UNL     1     -17.363   2.297 -31.388  1.00  0.00    -0.205 F 
ENDBRANCH  25  28
ENDBRANCH  24  25
ENDBRANCH  21  24
ENDBRANCH   2  18
TORSDOF 6
ENDMDL
MODEL 7
REMARK VINA RESULT:      -8.1      6.045     10.442
REMARK  6 active torsions:
REMARK  status: ('A' for Active; 'I' for Inactive)
REMARK    1  A    between atoms: C_7  and  C_8 
REMARK    2  A    between atoms: N_9  and  N_10 
REMARK       I    between atoms: N_10  and  C_11 
REMARK    3  A    between atoms: C_11  and  C_12 
REMARK    4  A    between atoms: C_15  and  O_16 
REMARK    5  A    between atoms: O_16  and  C_17 
REMARK    6  A    between atoms: C_17  and  C_20 
ROOT
HETATM    1  N   UNL     1      -4.504   2.591 -33.011  1.00  0.00    -0.243 N 
HETATM    2  C   UNL     1      -5.816   2.245 -33.316  1.00  0.00     0.271 C 
HETATM    3  O   UNL     1      -6.764   3.025 -33.378  1.00  0.00    -0.266 OA
HETATM    4  H   UNL     1      -3.806   1.872 -32.870  1.00  0.00     0.192 HD
ENDROOT
BRANCH   1   5
HETATM    5  N   UNL     1      -4.061   3.839 -32.642  1.00  0.00    -0.183 NA
HETATM    6  C   UNL     1      -3.844   4.080 -31.389  1.00  0.00     0.153 C 
BRANCH   6   7
HETATM    7  C   UNL     1      -3.337   5.379 -30.976  1.00  0.00     0.018 A 
HETATM    8  C   UNL     1      -4.150   6.477 -30.719  1.00  0.00     0.018 A 
HETATM    9  C   UNL     1      -5.627   6.632 -30.784  1.00  0.00     0.069 C 
HETATM   10  N   UNL     1      -3.339   7.523 -30.357  1.00  0.00    -0.358 N 
HETATM   11  H   UNL     1      -3.659   8.449 -30.113  1.00  0.00     0.166 HD
HETATM   12  C   UNL     1      -2.021   7.142 -30.368  1.00  0.00     0.043 A 
HETATM   13  C   UNL     1      -1.983   5.800 -30.751  1.00  0.00     0.004 A 
HETATM   14  C   UNL     1      -0.870   7.881 -30.067  1.00  0.00     0.030 A 
HETATM   15  C   UNL     1      -0.722   5.170 -30.830  1.00  0.00     0.014 A 
HETATM   16  C   UNL     1       0.439   5.893 -30.531  1.00  0.00     0.001 A 
HETATM   17  C   UNL     1       0.364   7.231 -30.155  1.00  0.00     0.002 A 
ENDBRANCH   6   7
ENDBRANCH   1   5
BRANCH   2  18
HETATM   18  C   UNL     1      -6.065   0.802 -33.613  1.00  0.00     0.033 A 
HETATM   19  C   UNL     1      -7.044   0.358 -34.508  1.00  0.00     0.020 A 
HETATM   20  C   UNL     1      -7.226  -1.014 -34.722  1.00  0.00     0.038 A 
HETATM   21  C   UNL     1      -6.432  -1.959 -34.063  1.00  0.00     0.075 A 
HETATM   22  C   UNL     1      -5.441  -1.517 -33.190  1.00  0.00     0.038 A 
HETATM   23  C   UNL     1      -5.258  -0.146 -32.969  1.00  0.00     0.020 A 
BRANCH  21  24
HETATM   24  O   UNL     1      -6.731  -3.257 -34.363  1.00  0.00    -0.279 OA
BRANCH  24  25
HETATM   25  C   UNL     1      -5.910  -3.946 -35.311  1.00  0.00     0.418 C 
HETATM   26  F   UNL     1      -6.696  -4.682 -36.138  1.00  0.00    -0.169 F 
HETATM   27  F   UNL     1      -5.256  -3.025 -36.069  1.00  0.00    -0.169 F 
BRANCH  25  28
HETATM   28  C   UNL     1      -4.894  -4.828 -34.588  1.00  0.00     0.455 C 
HETATM   29  F   UNL     1      -3.707  -4.184 -34.421  1.00  0.00    -0.205 F 
HETATM   30  F   UNL     1      -5.326  -5.159 -33.342  1.00  0.00    -0.205 F 
ENDBRANCH  25  28
ENDBRANCH  24  25
ENDBRANCH  21  24
ENDBRANCH   2  18
TORSDOF 6
ENDMDL
MODEL 8
REMARK VINA RESULT:      -8.0      8.205     10.899
REMARK  6 active torsions:
REMARK  status: ('A' for Active; 'I' for Inactive)
REMARK    1  A    between atoms: C_7  and  C_8 
REMARK    2  A    between atoms: N_9  and  N_10 
REMARK       I    between atoms: N_10  and  C_11 
REMARK    3  A    between atoms: C_11  and  C_12 
REMARK    4  A    between atoms: C_15  and  O_16 
REMARK    5  A    between atoms: O_16  and  C_17 
REMARK    6  A    between atoms: C_17  and  C_20 
ROOT
HETATM    1  N   UNL     1     -10.560   1.491 -33.189  1.00  0.00    -0.243 N 
HETATM    2  C   UNL     1      -9.389   1.827 -33.859  1.00  0.00     0.271 C 
HETATM    3  O   UNL     1      -9.179   2.890 -34.440  1.00  0.00    -0.266 OA
HETATM    4  H   UNL     1     -10.694   0.553 -32.835  1.00  0.00     0.192 HD
ENDROOT
BRANCH   1   5
HETATM    5  N   UNL     1     -11.708   2.245 -33.136  1.00  0.00    -0.183 NA
HETATM    6  C   UNL     1     -11.808   3.167 -32.233  1.00  0.00     0.153 C 
BRANCH   6   7
HETATM    7  C   UNL     1     -12.996   4.006 -32.180  1.00  0.00     0.018 A 
HETATM    8  C   UNL     1     -12.959   5.395 -32.181  1.00  0.00     0.018 A 
HETATM    9  C   UNL     1     -11.811   6.339 -32.232  1.00  0.00     0.069 C 
HETATM   10  N   UNL     1     -14.252   5.849 -32.123  1.00  0.00    -0.358 N 
HETATM   11  H   UNL     1     -14.528   6.820 -32.111  1.00  0.00     0.166 HD
HETATM   12  C   UNL     1     -15.135   4.797 -32.085  1.00  0.00     0.043 A 
HETATM   13  C   UNL     1     -14.379   3.624 -32.121  1.00  0.00     0.004 A 
HETATM   14  C   UNL     1     -16.534   4.802 -32.025  1.00  0.00     0.030 A 
HETATM   15  C   UNL     1     -15.069   2.393 -32.099  1.00  0.00     0.014 A 
HETATM   16  C   UNL     1     -16.468   2.377 -32.041  1.00  0.00     0.001 A 
HETATM   17  C   UNL     1     -17.189   3.567 -32.004  1.00  0.00     0.002 A 
ENDBRANCH   6   7
ENDBRANCH   1   5
BRANCH   2  18
HETATM   18  C   UNL     1      -8.300   0.804 -33.837  1.00  0.00     0.033 A 
HETATM   19  C   UNL     1      -7.768   0.272 -32.658  1.00  0.00     0.020 A 
HETATM   20  C   UNL     1      -6.737  -0.674 -32.720  1.00  0.00     0.038 A 
HETATM   21  C   UNL     1      -6.233  -1.112 -33.949  1.00  0.00     0.075 A 
HETATM   22  C   UNL     1      -6.778  -0.600 -35.124  1.00  0.00     0.038 A 
HETATM   23  C   UNL     1      -7.806   0.349 -35.067  1.00  0.00     0.020 A 
BRANCH  21  24
HETATM   24  O   UNL     1      -5.224  -2.027 -33.853  1.00  0.00    -0.279 OA
BRANCH  24  25
HETATM   25  C   UNL     1      -5.334  -3.246 -34.595  1.00  0.00     0.418 C 
HETATM   26  F   UNL     1      -6.572  -3.773 -34.418  1.00  0.00    -0.169 F 
HETATM   27  F   UNL     1      -5.185  -2.965 -35.918  1.00  0.00    -0.169 F 
BRANCH  25  28
HETATM   28  C   UNL     1      -4.250  -4.230 -34.157  1.00  0.00     0.455 C 
HETATM   29  F   UNL     1      -3.544  -3.752 -33.096  1.00  0.00    -0.205 F 
HETATM   30  F   UNL     1      -4.790  -5.412 -33.753  1.00  0.00    -0.205 F 
ENDBRANCH  25  28
ENDBRANCH  24  25
ENDBRANCH  21  24
ENDBRANCH   2  18
TORSDOF 6
ENDMDL
MODEL 9
REMARK VINA RESULT:      -7.8      1.459      1.921
REMARK  6 active torsions:
REMARK  status: ('A' for Active; 'I' for Inactive)
REMARK    1  A    between atoms: C_7  and  C_8 
REMARK    2  A    between atoms: N_9  and  N_10 
REMARK       I    between atoms: N_10  and  C_11 
REMARK    3  A    between atoms: C_11  and  C_12 
REMARK    4  A    between atoms: C_15  and  O_16 
REMARK    5  A    between atoms: O_16  and  C_17 
REMARK    6  A    between atoms: C_17  and  C_20 
ROOT
HETATM    1  N   UNL     1      -3.629   4.104 -31.094  1.00  0.00    -0.243 N 
HETATM    2  C   UNL     1      -2.392   4.411 -31.648  1.00  0.00     0.271 C 
HETATM    3  O   UNL     1      -1.953   3.965 -32.706  1.00  0.00    -0.266 OA
HETATM    4  H   UNL     1      -3.866   4.426 -30.164  1.00  0.00     0.192 HD
ENDROOT
BRANCH   1   5
HETATM    5  N   UNL     1      -4.531   3.190 -31.582  1.00  0.00    -0.183 NA
HETATM    6  C   UNL     1      -5.188   3.475 -32.661  1.00  0.00     0.153 C 
BRANCH   6   7
HETATM    7  C   UNL     1      -6.120   2.509 -33.221  1.00  0.00     0.018 A 
HETATM    8  C   UNL     1      -7.384   2.841 -33.695  1.00  0.00     0.018 A 
HETATM    9  C   UNL     1      -8.085   4.151 -33.760  1.00  0.00     0.069 C 
HETATM   10  N   UNL     1      -7.979   1.691 -34.145  1.00  0.00    -0.358 N 
HETATM   11  H   UNL     1      -8.905   1.632 -34.545  1.00  0.00     0.166 HD
HETATM   12  C   UNL     1      -7.142   0.615 -33.983  1.00  0.00     0.043 A 
HETATM   13  C   UNL     1      -5.964   1.093 -33.406  1.00  0.00     0.004 A 
HETATM   14  C   UNL     1      -7.341  -0.734 -34.304  1.00  0.00     0.030 A 
HETATM   15  C   UNL     1      -4.932   0.165 -33.145  1.00  0.00     0.014 A 
HETATM   16  C   UNL     1      -5.112  -1.186 -33.461  1.00  0.00     0.001 A 
HETATM   17  C   UNL     1      -6.302  -1.628 -34.033  1.00  0.00     0.002 A 
ENDBRANCH   6   7
ENDBRANCH   1   5
BRANCH   2  18
HETATM   18  C   UNL     1      -1.552   5.385 -30.887  1.00  0.00     0.033 A 
HETATM   19  C   UNL     1      -2.064   6.547 -30.300  1.00  0.00     0.020 A 
HETATM   20  C   UNL     1      -1.208   7.419 -29.614  1.00  0.00     0.038 A 
HETATM   21  C   UNL     1       0.158   7.143 -29.492  1.00  0.00     0.075 A 
HETATM   22  C   UNL     1       0.663   5.974 -30.056  1.00  0.00     0.038 A 
HETATM   23  C   UNL     1      -0.187   5.101 -30.746  1.00  0.00     0.020 A 
BRANCH  21  24
HETATM   24  O   UNL     1       0.867   8.087 -28.807  1.00  0.00    -0.279 OA
BRANCH  24  25
HETATM   25  C   UNL     1       0.982   7.958 -27.386  1.00  0.00     0.418 C 
HETATM   26  F   UNL     1       0.797   6.660 -27.033  1.00  0.00    -0.169 F 
HETATM   27  F   UNL     1       2.243   8.315 -27.018  1.00  0.00    -0.169 F 
BRANCH  25  28
HETATM   28  C   UNL     1      -0.030   8.867 -26.690  1.00  0.00     0.455 C 
HETATM   29  F   UNL     1       0.479   9.387 -25.539  1.00  0.00    -0.205 F 
HETATM   30  F   UNL     1      -0.361   9.928 -27.473  1.00  0.00    -0.205 F 
ENDBRANCH  25  28
ENDBRANCH  24  25
ENDBRANCH  21  24
ENDBRANCH   2  18
TORSDOF 6
ENDMDL
MODEL 10
REMARK VINA RESULT:      -7.7      5.889     10.677
REMARK  6 active torsions:
REMARK  status: ('A' for Active; 'I' for Inactive)
REMARK    1  A    between atoms: C_7  and  C_8 
REMARK    2  A    between atoms: N_9  and  N_10 
REMARK       I    between atoms: N_10  and  C_11 
REMARK    3  A    between atoms: C_11  and  C_12 
REMARK    4  A    between atoms: C_15  and  O_16 
REMARK    5  A    between atoms: O_16  and  C_17 
REMARK    6  A    between atoms: C_17  and  C_20 
ROOT
HETATM    1  N   UNL     1      -4.949   3.771 -32.845  1.00  0.00    -0.243 N 
HETATM    2  C   UNL     1      -5.299   2.773 -31.942  1.00  0.00     0.271 C 
HETATM    3  O   UNL     1      -5.351   2.901 -30.721  1.00  0.00    -0.266 OA
HETATM    4  H   UNL     1      -4.822   3.552 -33.824  1.00  0.00     0.192 HD
ENDROOT
BRANCH   1   5
HETATM    5  N   UNL     1      -4.520   5.037 -32.526  1.00  0.00    -0.183 NA
HETATM    6  C   UNL     1      -3.364   5.180 -31.959  1.00  0.00     0.153 C 
BRANCH   6   7
HETATM    7  C   UNL     1      -2.868   6.511 -31.647  1.00  0.00     0.018 A 
HETATM    8  C   UNL     1      -2.227   7.331 -32.568  1.00  0.00     0.018 A 
HETATM    9  C   UNL     1      -1.892   7.111 -34.000  1.00  0.00     0.069 C 
HETATM   10  N   UNL     1      -1.900   8.501 -31.932  1.00  0.00    -0.358 N 
HETATM   11  H   UNL     1      -1.425   9.284 -32.360  1.00  0.00     0.166 HD
HETATM   12  C   UNL     1      -2.310   8.473 -30.622  1.00  0.00     0.043 A 
HETATM   13  C   UNL     1      -2.923   7.237 -30.409  1.00  0.00     0.004 A 
HETATM   14  C   UNL     1      -2.184   9.445 -29.621  1.00  0.00     0.030 A 
HETATM   15  C   UNL     1      -3.440   6.969 -29.123  1.00  0.00     0.014 A 
HETATM   16  C   UNL     1      -3.326   7.929 -28.110  1.00  0.00     0.001 A 
HETATM   17  C   UNL     1      -2.704   9.150 -28.358  1.00  0.00     0.002 A 
ENDBRANCH   6   7
ENDBRANCH   1   5
BRANCH   2  18
HETATM   18  C   UNL     1      -5.661   1.448 -32.532  1.00  0.00     0.033 A 
HETATM   19  C   UNL     1      -6.160   1.295 -33.830  1.00  0.00     0.020 A 
HETATM   20  C   UNL     1      -6.490   0.020 -34.306  1.00  0.00     0.038 A 
HETATM   21  C   UNL     1      -6.316  -1.116 -33.509  1.00  0.00     0.075 A 
HETATM   22  C   UNL     1      -5.797  -0.967 -32.225  1.00  0.00     0.038 A 
HETATM   23  C   UNL     1      -5.470   0.306 -31.743  1.00  0.00     0.020 A 
BRANCH  21  24
HETATM   24  O   UNL     1      -6.691  -2.287 -34.103  1.00  0.00    -0.279 OA
BRANCH  24  25
HETATM   25  C   UNL     1      -5.675  -3.122 -34.669  1.00  0.00     0.418 C 
HETATM   26  F   UNL     1      -5.302  -2.624 -35.875  1.00  0.00    -0.169 F 
HETATM   27  F   UNL     1      -4.587  -3.096 -33.852  1.00  0.00    -0.169 F 
BRANCH  25  28
HETATM   28  C   UNL     1      -6.182  -4.557 -34.799  1.00  0.00     0.455 C 
HETATM   29  F   UNL     1      -7.003  -4.698 -35.875  1.00  0.00    -0.205 F 
HETATM   30  F   UNL     1      -5.155  -5.428 -34.988  1.00  0.00    -0.205 F 
ENDBRANCH  25  28
ENDBRANCH  24  25
ENDBRANCH  21  24
ENDBRANCH   2  18
TORSDOF 6
ENDMDL
