MODEL 1
REMARK VINA RESULT:      -7.9      0.000      0.000
REMARK  7 active torsions:
REMARK  status: ('A' for Active; 'I' for Inactive)
REMARK    1  A    between atoms: C_2  and  C_3 
REMARK    2  A    between atoms: C_3  and  N_4 
REMARK       I    between atoms: N_4  and  C_5 
REMARK    3  A    between atoms: C_5  and  C_6 
REMARK    4  A    between atoms: C_9  and  N_10 
REMARK       I    between atoms: N_10  and  C_11 
REMARK    5  A    between atoms: C_11  and  C_12 
REMARK    6  A    between atoms: C_14  and  O_15 
REMARK    7  A    between atoms: O_15  and  C_16 
ROOT
HETATM    1  N   UNL     1      -7.381   0.684 -32.803  1.00  0.00    -0.323 N 
HETATM    2  C   UNL     1      -6.453  -0.267 -33.190  1.00  0.00     0.256 C 
HETATM    3  O   UNL     1      -6.611  -1.138 -34.037  1.00  0.00    -0.267 OA
HETATM    4  H   UNL     1      -7.054   1.441 -32.219  1.00  0.00     0.169 HD
ENDROOT
BRANCH   1   5
HETATM    5  C   UNL     1      -8.751   0.725 -33.136  1.00  0.00     0.035 A 
HETATM    6  C   UNL     1      -9.696  -0.196 -32.679  1.00  0.00     0.030 A 
HETATM    7  C   UNL     1     -11.054  -0.046 -32.994  1.00  0.00     0.019 A 
HETATM    8  C   UNL     1     -11.484   1.041 -33.762  1.00  0.00     0.032 A 
HETATM    9  C   UNL     1     -10.534   1.944 -34.252  1.00  0.00     0.019 A 
HETATM   10  C   UNL     1      -9.179   1.786 -33.941  1.00  0.00     0.030 A 
BRANCH   8  11
HETATM   11  C   UNL     1     -12.920   1.294 -34.081  1.00  0.00     0.251 C 
HETATM   12  N   UNL     1     -13.827   1.127 -33.052  1.00  0.00    -0.357 N 
HETATM   13  H   UNL     1     -13.490   0.980 -32.111  1.00  0.00     0.162 HD
HETATM   14  O   UNL     1     -13.238   1.678 -35.201  1.00  0.00    -0.268 OA
BRANCH  12  15
HETATM   15  C   UNL     1     -15.222   1.487 -33.210  1.00  0.00     0.122 C 
BRANCH  15  16
HETATM   16  C   UNL     1     -15.782   2.281 -32.031  1.00  0.00     0.015 C 
HETATM   17  C   UNL     1     -17.234   2.687 -32.231  1.00  0.00     0.006 C 
ENDBRANCH  15  16
ENDBRANCH  12  15
ENDBRANCH   8  11
ENDBRANCH   1   5
BRANCH   2  18
HETATM   18  C   UNL     1      -5.138  -0.199 -32.488  1.00  0.00     0.037 A 
HETATM   19  C   UNL     1      -4.629   1.052 -32.143  1.00  0.00     0.075 A 
HETATM   20  C   UNL     1      -3.376   1.103 -31.567  1.00  0.00     0.165 A 
HETATM   21  N   UNL     1      -2.621   0.015 -31.304  1.00  0.00    -0.237 NA
HETATM   22  C   UNL     1      -3.134  -1.181 -31.652  1.00  0.00     0.120 A 
HETATM   23  C   UNL     1      -4.372  -1.343 -32.249  1.00  0.00     0.036 A 
BRANCH  20  24
HETATM   24  O   UNL     1      -2.876   2.354 -31.262  1.00  0.00    -0.329 OA
BRANCH  24  25
HETATM   25  C   UNL     1      -3.358   3.441 -32.080  1.00  0.00     0.130 C 
HETATM   26  C   UNL     1      -3.618   4.765 -31.316  1.00  0.00     0.032 C 
HETATM   27  C   UNL     1      -3.100   5.510 -32.560  1.00  0.00     0.005 C 
HETATM   28  C   UNL     1      -2.309   4.234 -32.906  1.00  0.00     0.032 C 
ENDBRANCH  24  25
ENDBRANCH  20  24
ENDBRANCH   2  18
TORSDOF 7
ENDMDL
MODEL 2
REMARK VINA RESULT:      -7.8      6.587     13.083
REMARK  7 active torsions:
REMARK  status: ('A' for Active; 'I' for Inactive)
REMARK    1  A    between atoms: C_2  and  C_3 
REMARK    2  A    between atoms: C_3  and  N_4 
REMARK       I    between atoms: N_4  and  C_5 
REMARK    3  A    between atoms: C_5  and  C_6 
REMARK    4  A    between atoms: C_9  and  N_10 
REMARK       I    between atoms: N_10  and  C_11 
REMARK    5  A    between atoms: C_11  and  C_12 
REMARK    6  A    between atoms: C_14  and  O_15 
REMARK    7  A    between atoms: O_15  and  C_16 
ROOT
HETATM    1  N   UNL     1      -0.844   6.110 -29.621  1.00  0.00    -0.323 N 
HETATM    2  C   UNL     1      -0.352   5.240 -30.578  1.00  0.00     0.256 C 
HETATM    3  O   UNL     1       0.770   4.749 -30.611  1.00  0.00    -0.267 OA
HETATM    4  H   UNL     1      -1.837   6.297 -29.629  1.00  0.00     0.169 HD
ENDROOT
BRANCH   1   5
HETATM    5  C   UNL     1      -0.111   6.776 -28.616  1.00  0.00     0.035 A 
HETATM    6  C   UNL     1       0.761   7.839 -28.857  1.00  0.00     0.030 A 
HETATM    7  C   UNL     1       1.397   8.499 -27.795  1.00  0.00     0.019 A 
HETATM    8  C   UNL     1       1.155   8.108 -26.474  1.00  0.00     0.032 A 
HETATM    9  C   UNL     1       0.310   7.017 -26.234  1.00  0.00     0.019 A 
HETATM   10  C   UNL     1      -0.317   6.358 -27.296  1.00  0.00     0.030 A 
BRANCH   8  11
HETATM   11  C   UNL     1       1.750   8.805 -25.297  1.00  0.00     0.251 C 
HETATM   12  N   UNL     1       2.863   8.223 -24.723  1.00  0.00    -0.357 N 
HETATM   13  H   UNL     1       3.311   7.444 -25.186  1.00  0.00     0.162 HD
HETATM   14  O   UNL     1       1.275   9.870 -24.915  1.00  0.00    -0.268 OA
BRANCH  12  15
HETATM   15  C   UNL     1       3.607   8.890 -23.673  1.00  0.00     0.122 C 
BRANCH  15  16
HETATM   16  C   UNL     1       3.214   8.438 -22.268  1.00  0.00     0.015 C 
HETATM   17  C   UNL     1       4.353   7.755 -21.528  1.00  0.00     0.006 C 
ENDBRANCH  15  16
ENDBRANCH  12  15
ENDBRANCH   8  11
ENDBRANCH   1   5
BRANCH   2  18
HETATM   18  C   UNL     1      -1.307   4.881 -31.667  1.00  0.00     0.037 A 
HETATM   19  C   UNL     1      -2.267   3.901 -31.417  1.00  0.00     0.075 A 
HETATM   20  C   UNL     1      -3.090   3.523 -32.458  1.00  0.00     0.165 A 
HETATM   21  N   UNL     1      -3.033   4.056 -33.697  1.00  0.00    -0.237 NA
HETATM   22  C   UNL     1      -2.094   4.997 -33.914  1.00  0.00     0.120 A 
HETATM   23  C   UNL     1      -1.208   5.437 -32.945  1.00  0.00     0.036 A 
BRANCH  20  24
HETATM   24  O   UNL     1      -4.012   2.527 -32.200  1.00  0.00    -0.329 OA
BRANCH  24  25
HETATM   25  C   UNL     1      -3.473   1.287 -31.693  1.00  0.00     0.130 C 
HETATM   26  C   UNL     1      -4.480   0.417 -30.897  1.00  0.00     0.032 C 
HETATM   27  C   UNL     1      -3.809  -0.819 -31.523  1.00  0.00     0.005 C 
HETATM   28  C   UNL     1      -3.373   0.095 -32.683  1.00  0.00     0.032 C 
ENDBRANCH  24  25
ENDBRANCH  20  24
ENDBRANCH   2  18
TORSDOF 7
ENDMDL
MODEL 3
REMARK VINA RESULT:      -7.8      5.923      8.188
REMARK  7 active torsions:
REMARK  status: ('A' for Active; 'I' for Inactive)
REMARK    1  A    between atoms: C_2  and  C_3 
REMARK    2  A    between atoms: C_3  and  N_4 
REMARK       I    between atoms: N_4  and  C_5 
REMARK    3  A    between atoms: C_5  and  C_6 
REMARK    4  A    between atoms: C_9  and  N_10 
REMARK       I    between atoms: N_10  and  C_11 
REMARK    5  A    between atoms: C_11  and  C_12 
REMARK    6  A    between atoms: C_14  and  O_15 
REMARK    7  A    between atoms: O_15  and  C_16 
ROOT
HETATM    1  N   UNL     1      -3.421   3.111 -31.252  1.00  0.00    -0.323 N 
HETATM    2  C   UNL     1      -2.719   4.073 -31.957  1.00  0.00     0.256 C 
HETATM    3  O   UNL     1      -2.309   3.980 -33.108  1.00  0.00    -0.267 OA
HETATM    4  H   UNL     1      -3.840   3.391 -30.377  1.00  0.00     0.169 HD
ENDROOT
BRANCH   1   5
HETATM    5  C   UNL     1      -3.627   1.765 -31.619  1.00  0.00     0.035 A 
HETATM    6  C   UNL     1      -4.549   1.347 -32.581  1.00  0.00     0.030 A 
HETATM    7  C   UNL     1      -4.643  -0.005 -32.944  1.00  0.00     0.019 A 
HETATM    8  C   UNL     1      -3.802  -0.954 -32.355  1.00  0.00     0.032 A 
HETATM    9  C   UNL     1      -2.904  -0.542 -31.363  1.00  0.00     0.019 A 
HETATM   10  C   UNL     1      -2.818   0.806 -30.999  1.00  0.00     0.030 A 
BRANCH   8  11
HETATM   11  C   UNL     1      -3.807  -2.396 -32.739  1.00  0.00     0.251 C 
HETATM   12  N   UNL     1      -4.470  -2.728 -33.905  1.00  0.00    -0.357 N 
HETATM   13  H   UNL     1      -4.801  -1.995 -34.516  1.00  0.00     0.162 HD
HETATM   14  O   UNL     1      -3.200  -3.212 -32.055  1.00  0.00    -0.268 OA
BRANCH  12  15
HETATM   15  C   UNL     1      -4.413  -4.071 -34.449  1.00  0.00     0.122 C 
BRANCH  15  16
HETATM   16  C   UNL     1      -5.764  -4.587 -34.940  1.00  0.00     0.015 C 
HETATM   17  C   UNL     1      -6.907  -3.633 -34.628  1.00  0.00     0.006 C 
ENDBRANCH  15  16
ENDBRANCH  12  15
ENDBRANCH   8  11
ENDBRANCH   1   5
BRANCH   2  18
HETATM   18  C   UNL     1      -2.449   5.339 -31.215  1.00  0.00     0.037 A 
HETATM   19  C   UNL     1      -1.165   5.560 -30.718  1.00  0.00     0.075 A 
HETATM   20  C   UNL     1      -0.952   6.697 -29.964  1.00  0.00     0.165 A 
HETATM   21  N   UNL     1      -1.905   7.613 -29.694  1.00  0.00    -0.237 NA
HETATM   22  C   UNL     1      -3.138   7.373 -30.181  1.00  0.00     0.120 A 
HETATM   23  C   UNL     1      -3.464   6.258 -30.933  1.00  0.00     0.036 A 
BRANCH  20  24
HETATM   24  O   UNL     1       0.318   6.882 -29.454  1.00  0.00    -0.329 OA
BRANCH  24  25
HETATM   25  C   UNL     1       0.396   7.608 -28.208  1.00  0.00     0.130 C 
HETATM   26  C   UNL     1       1.031   6.818 -27.034  1.00  0.00     0.032 C 
HETATM   27  C   UNL     1       1.676   8.140 -26.578  1.00  0.00     0.005 C 
HETATM   28  C   UNL     1       1.568   8.613 -28.039  1.00  0.00     0.032 C 
ENDBRANCH  24  25
ENDBRANCH  20  24
ENDBRANCH   2  18
TORSDOF 7
ENDMDL
MODEL 4
REMARK VINA RESULT:      -7.7      4.080     10.074
REMARK  7 active torsions:
REMARK  status: ('A' for Active; 'I' for Inactive)
REMARK    1  A    between atoms: C_2  and  C_3 
REMARK    2  A    between atoms: C_3  and  N_4 
REMARK       I    between atoms: N_4  and  C_5 
REMARK    3  A    between atoms: C_5  and  C_6 
REMARK    4  A    between atoms: C_9  and  N_10 
REMARK       I    between atoms: N_10  and  C_11 
REMARK    5  A    between atoms: C_11  and  C_12 
REMARK    6  A    between atoms: C_14  and  O_15 
REMARK    7  A    between atoms: O_15  and  C_16 
ROOT
HETATM    1  N   UNL     1      -5.100   3.253 -32.899  1.00  0.00    -0.323 N 
HETATM    2  C   UNL     1      -5.500   2.012 -32.434  1.00  0.00     0.256 C 
HETATM    3  O   UNL     1      -5.196   1.503 -31.362  1.00  0.00    -0.267 OA
HETATM    4  H   UNL     1      -5.564   3.612 -33.722  1.00  0.00     0.169 HD
ENDROOT
BRANCH   1   5
HETATM    5  C   UNL     1      -4.109   4.092 -32.349  1.00  0.00     0.035 A 
HETATM    6  C   UNL     1      -4.366   5.117 -31.438  1.00  0.00     0.030 A 
HETATM    7  C   UNL     1      -3.316   5.860 -30.879  1.00  0.00     0.019 A 
HETATM    8  C   UNL     1      -1.990   5.574 -31.219  1.00  0.00     0.032 A 
HETATM    9  C   UNL     1      -1.732   4.572 -32.162  1.00  0.00     0.019 A 
HETATM   10  C   UNL     1      -2.783   3.838 -32.721  1.00  0.00     0.030 A 
BRANCH   8  11
HETATM   11  C   UNL     1      -0.824   6.284 -30.616  1.00  0.00     0.251 C 
HETATM   12  N   UNL     1      -0.643   6.141 -29.254  1.00  0.00    -0.357 N 
HETATM   13  H   UNL     1      -1.202   5.470 -28.745  1.00  0.00     0.162 HD
HETATM   14  O   UNL     1      -0.057   6.916 -31.334  1.00  0.00    -0.268 OA
BRANCH  12  15
HETATM   15  C   UNL     1       0.537   6.663 -28.591  1.00  0.00     0.122 C 
BRANCH  15  16
HETATM   16  C   UNL     1       0.410   8.132 -28.193  1.00  0.00     0.015 C 
HETATM   17  C   UNL     1       1.697   8.700 -27.616  1.00  0.00     0.006 C 
ENDBRANCH  15  16
ENDBRANCH  12  15
ENDBRANCH   8  11
ENDBRANCH   1   5
BRANCH   2  18
HETATM   18  C   UNL     1      -6.387   1.241 -33.353  1.00  0.00     0.037 A 
HETATM   19  C   UNL     1      -5.894   0.072 -33.932  1.00  0.00     0.075 A 
HETATM   20  C   UNL     1      -6.698  -0.586 -34.841  1.00  0.00     0.165 A 
HETATM   21  N   UNL     1      -7.935  -0.176 -35.190  1.00  0.00    -0.237 NA
HETATM   22  C   UNL     1      -8.386   0.959 -34.620  1.00  0.00     0.120 A 
HETATM   23  C   UNL     1      -7.656   1.704 -33.710  1.00  0.00     0.036 A 
BRANCH  20  24
HETATM   24  O   UNL     1      -6.179  -1.724 -35.428  1.00  0.00    -0.329 OA
BRANCH  24  25
HETATM   25  C   UNL     1      -5.986  -2.853 -34.550  1.00  0.00     0.130 C 
HETATM   26  C   UNL     1      -6.439  -4.216 -35.134  1.00  0.00     0.032 C 
HETATM   27  C   UNL     1      -5.232  -4.851 -34.419  1.00  0.00     0.005 C 
HETATM   28  C   UNL     1      -4.561  -3.466 -34.477  1.00  0.00     0.032 C 
ENDBRANCH  24  25
ENDBRANCH  20  24
ENDBRANCH   2  18
TORSDOF 7
ENDMDL
MODEL 5
REMARK VINA RESULT:      -7.6      2.450      3.184
REMARK  7 active torsions:
REMARK  status: ('A' for Active; 'I' for Inactive)
REMARK    1  A    between atoms: C_2  and  C_3 
REMARK    2  A    between atoms: C_3  and  N_4 
REMARK       I    between atoms: N_4  and  C_5 
REMARK    3  A    between atoms: C_5  and  C_6 
REMARK    4  A    between atoms: C_9  and  N_10 
REMARK       I    between atoms: N_10  and  C_11 
REMARK    5  A    between atoms: C_11  and  C_12 
REMARK    6  A    between atoms: C_14  and  O_15 
REMARK    7  A    between atoms: O_15  and  C_16 
ROOT
HETATM    1  N   UNL     1      -7.044   2.322 -33.820  1.00  0.00    -0.323 N 
HETATM    2  C   UNL     1      -6.269   2.802 -32.778  1.00  0.00     0.256 C 
HETATM    3  O   UNL     1      -6.481   2.649 -31.581  1.00  0.00    -0.267 OA
HETATM    4  H   UNL     1      -6.657   2.379 -34.751  1.00  0.00     0.169 HD
ENDROOT
BRANCH   1   5
HETATM    5  C   UNL     1      -8.330   1.750 -33.733  1.00  0.00     0.035 A 
HETATM    6  C   UNL     1      -8.605   0.526 -33.121  1.00  0.00     0.030 A 
HETATM    7  C   UNL     1      -9.923   0.059 -33.011  1.00  0.00     0.019 A 
HETATM    8  C   UNL     1     -10.986   0.824 -33.502  1.00  0.00     0.032 A 
HETATM    9  C   UNL     1     -10.709   2.033 -34.150  1.00  0.00     0.019 A 
HETATM   10  C   UNL     1      -9.393   2.491 -34.264  1.00  0.00     0.030 A 
BRANCH   8  11
HETATM   11  C   UNL     1     -12.414   0.415 -33.362  1.00  0.00     0.251 C 
HETATM   12  N   UNL     1     -13.344   1.429 -33.236  1.00  0.00    -0.357 N 
HETATM   13  H   UNL     1     -13.058   2.387 -33.379  1.00  0.00     0.162 HD
HETATM   14  O   UNL     1     -12.717  -0.772 -33.410  1.00  0.00    -0.268 OA
BRANCH  12  15
HETATM   15  C   UNL     1     -14.768   1.153 -33.243  1.00  0.00     0.122 C 
BRANCH  15  16
HETATM   16  C   UNL     1     -15.563   2.036 -32.285  1.00  0.00     0.015 C 
HETATM   17  C   UNL     1     -14.828   3.316 -31.916  1.00  0.00     0.006 C 
ENDBRANCH  15  16
ENDBRANCH  12  15
ENDBRANCH   8  11
ENDBRANCH   1   5
BRANCH   2  18
HETATM   18  C   UNL     1      -5.062   3.579 -33.185  1.00  0.00     0.037 A 
HETATM   19  C   UNL     1      -3.923   3.508 -32.385  1.00  0.00     0.075 A 
HETATM   20  C   UNL     1      -2.842   4.296 -32.729  1.00  0.00     0.165 A 
HETATM   21  N   UNL     1      -2.818   5.116 -33.801  1.00  0.00    -0.237 NA
HETATM   22  C   UNL     1      -3.934   5.169 -34.554  1.00  0.00     0.120 A 
HETATM   23  C   UNL     1      -5.076   4.435 -34.289  1.00  0.00     0.036 A 
BRANCH  20  24
HETATM   24  O   UNL     1      -1.735   4.236 -31.906  1.00  0.00    -0.329 OA
BRANCH  24  25
HETATM   25  C   UNL     1      -0.809   5.339 -32.016  1.00  0.00     0.130 C 
HETATM   26  C   UNL     1      -1.146   6.563 -31.125  1.00  0.00     0.032 C 
HETATM   27  C   UNL     1       0.368   6.743 -30.912  1.00  0.00     0.005 C 
HETATM   28  C   UNL     1       0.517   5.241 -31.214  1.00  0.00     0.032 C 
ENDBRANCH  24  25
ENDBRANCH  20  24
ENDBRANCH   2  18
TORSDOF 7
ENDMDL
MODEL 6
REMARK VINA RESULT:      -7.4      2.161      4.246
REMARK  7 active torsions:
REMARK  status: ('A' for Active; 'I' for Inactive)
REMARK    1  A    between atoms: C_2  and  C_3 
REMARK    2  A    between atoms: C_3  and  N_4 
REMARK       I    between atoms: N_4  and  C_5 
REMARK    3  A    between atoms: C_5  and  C_6 
REMARK    4  A    between atoms: C_9  and  N_10 
REMARK       I    between atoms: N_10  and  C_11 
REMARK    5  A    between atoms: C_11  and  C_12 
REMARK    6  A    between atoms: C_14  and  O_15 
REMARK    7  A    between atoms: O_15  and  C_16 
ROOT
HETATM    1  N   UNL     1      -7.508   0.790 -32.626  1.00  0.00    -0.323 N 
HETATM    2  C   UNL     1      -6.302   1.210 -33.160  1.00  0.00     0.256 C 
HETATM    3  O   UNL     1      -6.113   2.219 -33.828  1.00  0.00    -0.267 OA
HETATM    4  H   UNL     1      -7.482   0.034 -31.957  1.00  0.00     0.169 HD
ENDROOT
BRANCH   1   5
HETATM    5  C   UNL     1      -8.791   1.304 -32.907  1.00  0.00     0.035 A 
HETATM    6  C   UNL     1      -9.622   0.826 -33.923  1.00  0.00     0.030 A 
HETATM    7  C   UNL     1     -10.916   1.340 -34.092  1.00  0.00     0.019 A 
HETATM    8  C   UNL     1     -11.399   2.333 -33.235  1.00  0.00     0.032 A 
HETATM    9  C   UNL     1     -10.554   2.840 -32.240  1.00  0.00     0.019 A 
HETATM   10  C   UNL     1      -9.262   2.329 -32.079  1.00  0.00     0.030 A 
BRANCH   8  11
HETATM   11  C   UNL     1     -12.785   2.879 -33.321  1.00  0.00     0.251 C 
HETATM   12  N   UNL     1     -13.621   2.633 -32.249  1.00  0.00    -0.357 N 
HETATM   13  H   UNL     1     -13.241   2.226 -31.406  1.00  0.00     0.162 HD
HETATM   14  O   UNL     1     -13.117   3.550 -34.292  1.00  0.00    -0.268 OA
BRANCH  12  15
HETATM   15  C   UNL     1     -14.935   3.240 -32.162  1.00  0.00     0.122 C 
BRANCH  15  16
HETATM   16  C   UNL     1     -16.078   2.239 -32.317  1.00  0.00     0.015 C 
HETATM   17  C   UNL     1     -17.431   2.829 -31.953  1.00  0.00     0.006 C 
ENDBRANCH  15  16
ENDBRANCH  12  15
ENDBRANCH   8  11
ENDBRANCH   1   5
BRANCH   2  18
HETATM   18  C   UNL     1      -5.135   0.325 -32.876  1.00  0.00     0.037 A 
HETATM   19  C   UNL     1      -5.176  -0.995 -33.320  1.00  0.00     0.075 A 
HETATM   20  C   UNL     1      -4.125  -1.824 -32.980  1.00  0.00     0.165 A 
HETATM   21  N   UNL     1      -3.055  -1.427 -32.259  1.00  0.00    -0.237 NA
HETATM   22  C   UNL     1      -3.043  -0.148 -31.838  1.00  0.00     0.120 A 
HETATM   23  C   UNL     1      -4.052   0.760 -32.108  1.00  0.00     0.036 A 
BRANCH  20  24
HETATM   24  O   UNL     1      -4.199  -3.137 -33.402  1.00  0.00    -0.329 OA
BRANCH  24  25
HETATM   25  C   UNL     1      -4.989  -3.373 -34.587  1.00  0.00     0.130 C 
HETATM   26  C   UNL     1      -5.217  -4.868 -34.930  1.00  0.00     0.032 C 
HETATM   27  C   UNL     1      -6.632  -4.480 -35.395  1.00  0.00     0.005 C 
HETATM   28  C   UNL     1      -6.532  -3.268 -34.450  1.00  0.00     0.032 C 
ENDBRANCH  24  25
ENDBRANCH  20  24
ENDBRANCH   2  18
TORSDOF 7
ENDMDL
MODEL 7
REMARK VINA RESULT:      -7.4      4.901      7.487
REMARK  7 active torsions:
REMARK  status: ('A' for Active; 'I' for Inactive)
REMARK    1  A    between atoms: C_2  and  C_3 
REMARK    2  A    between atoms: C_3  and  N_4 
REMARK       I    between atoms: N_4  and  C_5 
REMARK    3  A    between atoms: C_5  and  C_6 
REMARK    4  A    between atoms: C_9  and  N_10 
REMARK       I    between atoms: N_10  and  C_11 
REMARK    5  A    between atoms: C_11  and  C_12 
REMARK    6  A    between atoms: C_14  and  O_15 
REMARK    7  A    between atoms: O_15  and  C_16 
ROOT
HETATM    1  N   UNL     1      -4.469   3.461 -32.031  1.00  0.00    -0.323 N 
HETATM    2  C   UNL     1      -3.286   4.166 -32.167  1.00  0.00     0.256 C 
HETATM    3  O   UNL     1      -2.396   3.946 -32.979  1.00  0.00    -0.267 OA
HETATM    4  H   UNL     1      -5.181   3.860 -31.434  1.00  0.00     0.169 HD
ENDROOT
BRANCH   1   5
HETATM    5  C   UNL     1      -4.808   2.235 -32.639  1.00  0.00     0.035 A 
HETATM    6  C   UNL     1      -4.159   1.026 -32.380  1.00  0.00     0.030 A 
HETATM    7  C   UNL     1      -4.603  -0.167 -32.970  1.00  0.00     0.019 A 
HETATM    8  C   UNL     1      -5.714  -0.164 -33.819  1.00  0.00     0.032 A 
HETATM    9  C   UNL     1      -6.341   1.053 -34.110  1.00  0.00     0.019 A 
HETATM   10  C   UNL     1      -5.891   2.241 -33.525  1.00  0.00     0.030 A 
BRANCH   8  11
HETATM   11  C   UNL     1      -6.274  -1.405 -34.429  1.00  0.00     0.251 C 
HETATM   12  N   UNL     1      -5.518  -2.555 -34.311  1.00  0.00    -0.357 N 
HETATM   13  H   UNL     1      -4.702  -2.555 -33.715  1.00  0.00     0.162 HD
HETATM   14  O   UNL     1      -7.379  -1.378 -34.960  1.00  0.00    -0.268 OA
BRANCH  12  15
HETATM   15  C   UNL     1      -6.032  -3.843 -34.735  1.00  0.00     0.122 C 
BRANCH  15  16
HETATM   16  C   UNL     1      -4.989  -4.957 -34.693  1.00  0.00     0.015 C 
HETATM   17  C   UNL     1      -3.829  -4.644 -33.761  1.00  0.00     0.006 C 
ENDBRANCH  15  16
ENDBRANCH  12  15
ENDBRANCH   8  11
ENDBRANCH   1   5
BRANCH   2  18
HETATM   18  C   UNL     1      -3.104   5.299 -31.214  1.00  0.00     0.037 A 
HETATM   19  C   UNL     1      -1.811   5.758 -30.962  1.00  0.00     0.075 A 
HETATM   20  C   UNL     1      -1.652   6.753 -30.018  1.00  0.00     0.165 A 
HETATM   21  N   UNL     1      -2.672   7.318 -29.338  1.00  0.00    -0.237 NA
HETATM   22  C   UNL     1      -3.910   6.853 -29.597  1.00  0.00     0.120 A 
HETATM   23  C   UNL     1      -4.178   5.849 -30.510  1.00  0.00     0.036 A 
BRANCH  20  24
HETATM   24  O   UNL     1      -0.361   7.171 -29.760  1.00  0.00    -0.329 OA
BRANCH  24  25
HETATM   25  C   UNL     1      -0.086   7.554 -28.395  1.00  0.00     0.130 C 
HETATM   26  C   UNL     1       0.518   6.431 -27.513  1.00  0.00     0.032 C 
HETATM   27  C   UNL     1       1.377   7.514 -26.835  1.00  0.00     0.005 C 
HETATM   28  C   UNL     1       1.226   8.340 -28.125  1.00  0.00     0.032 C 
ENDBRANCH  24  25
ENDBRANCH  20  24
ENDBRANCH   2  18
TORSDOF 7
ENDMDL
MODEL 8
REMARK VINA RESULT:      -7.2      1.647      2.056
REMARK  7 active torsions:
REMARK  status: ('A' for Active; 'I' for Inactive)
REMARK    1  A    between atoms: C_2  and  C_3 
REMARK    2  A    between atoms: C_3  and  N_4 
REMARK       I    between atoms: N_4  and  C_5 
REMARK    3  A    between atoms: C_5  and  C_6 
REMARK    4  A    between atoms: C_9  and  N_10 
REMARK       I    between atoms: N_10  and  C_11 
REMARK    5  A    between atoms: C_11  and  C_12 
REMARK    6  A    between atoms: C_14  and  O_15 
REMARK    7  A    between atoms: O_15  and  C_16 
ROOT
HETATM    1  N   UNL     1      -7.548   1.728 -33.195  1.00  0.00    -0.323 N 
HETATM    2  C   UNL     1      -6.841   1.379 -32.058  1.00  0.00     0.256 C 
HETATM    3  O   UNL     1      -7.244   0.681 -31.135  1.00  0.00    -0.267 OA
HETATM    4  H   UNL     1      -7.033   2.165 -33.946  1.00  0.00     0.169 HD
ENDROOT
BRANCH   1   5
HETATM    5  C   UNL     1      -8.925   1.541 -33.435  1.00  0.00     0.035 A 
HETATM    6  C   UNL     1      -9.641   0.404 -33.056  1.00  0.00     0.030 A 
HETATM    7  C   UNL     1     -11.025   0.325 -33.264  1.00  0.00     0.019 A 
HETATM    8  C   UNL     1     -11.714   1.394 -33.846  1.00  0.00     0.032 A 
HETATM    9  C   UNL     1     -10.993   2.520 -34.262  1.00  0.00     0.019 A 
HETATM   10  C   UNL     1      -9.611   2.591 -34.058  1.00  0.00     0.030 A 
BRANCH   8  11
HETATM   11  C   UNL     1     -13.193   1.400 -34.039  1.00  0.00     0.251 C 
HETATM   12  N   UNL     1     -13.972   1.315 -32.901  1.00  0.00    -0.357 N 
HETATM   13  H   UNL     1     -13.536   1.390 -31.993  1.00  0.00     0.162 HD
HETATM   14  O   UNL     1     -13.661   1.525 -35.166  1.00  0.00    -0.268 OA
BRANCH  12  15
HETATM   15  C   UNL     1     -15.414   1.461 -32.961  1.00  0.00     0.122 C 
BRANCH  15  16
HETATM   16  C   UNL     1     -15.950   2.572 -32.061  1.00  0.00     0.015 C 
HETATM   17  C   UNL     1     -17.440   2.811 -32.244  1.00  0.00     0.006 C 
ENDBRANCH  15  16
ENDBRANCH  12  15
ENDBRANCH   8  11
ENDBRANCH   1   5
BRANCH   2  18
HETATM   18  C   UNL     1      -5.454   1.921 -31.976  1.00  0.00     0.037 A 
HETATM   19  C   UNL     1      -5.098   2.972 -32.819  1.00  0.00     0.075 A 
HETATM   20  C   UNL     1      -3.788   3.409 -32.788  1.00  0.00     0.165 A 
HETATM   21  N   UNL     1      -2.839   2.890 -31.982  1.00  0.00    -0.237 NA
HETATM   22  C   UNL     1      -3.208   1.871 -31.181  1.00  0.00     0.120 A 
HETATM   23  C   UNL     1      -4.488   1.347 -31.145  1.00  0.00     0.036 A 
BRANCH  20  24
HETATM   24  O   UNL     1      -3.447   4.430 -33.654  1.00  0.00    -0.329 OA
BRANCH  24  25
HETATM   25  C   UNL     1      -2.260   5.176 -33.309  1.00  0.00     0.130 C 
HETATM   26  C   UNL     1      -1.369   5.574 -34.514  1.00  0.00     0.032 C 
HETATM   27  C   UNL     1      -1.086   6.900 -33.785  1.00  0.00     0.005 C 
HETATM   28  C   UNL     1      -2.424   6.698 -33.050  1.00  0.00     0.032 C 
ENDBRANCH  24  25
ENDBRANCH  20  24
ENDBRANCH   2  18
TORSDOF 7
ENDMDL
MODEL 9
REMARK VINA RESULT:      -7.0     15.737     17.875
REMARK  7 active torsions:
REMARK  status: ('A' for Active; 'I' for Inactive)
REMARK    1  A    between atoms: C_2  and  C_3 
REMARK    2  A    between atoms: C_3  and  N_4 
REMARK       I    between atoms: N_4  and  C_5 
REMARK    3  A    between atoms: C_5  and  C_6 
REMARK    4  A    between atoms: C_9  and  N_10 
REMARK       I    between atoms: N_10  and  C_11 
REMARK    5  A    between atoms: C_11  and  C_12 
REMARK    6  A    between atoms: C_14  and  O_15 
REMARK    7  A    between atoms: O_15  and  C_16 
ROOT
HETATM    1  N   UNL     1      -5.753 -14.292 -36.301  1.00  0.00    -0.323 N 
HETATM    2  C   UNL     1      -5.089 -13.239 -36.904  1.00  0.00     0.256 C 
HETATM    3  O   UNL     1      -4.108 -12.648 -36.467  1.00  0.00    -0.267 OA
HETATM    4  H   UNL     1      -6.437 -14.788 -36.855  1.00  0.00     0.169 HD
ENDROOT
BRANCH   1   5
HETATM    5  C   UNL     1      -5.583 -14.766 -34.983  1.00  0.00     0.035 A 
HETATM    6  C   UNL     1      -4.482 -15.508 -34.552  1.00  0.00     0.030 A 
HETATM    7  C   UNL     1      -4.351 -15.880 -33.206  1.00  0.00     0.019 A 
HETATM    8  C   UNL     1      -5.317 -15.498 -32.271  1.00  0.00     0.032 A 
HETATM    9  C   UNL     1      -6.441 -14.787 -32.708  1.00  0.00     0.019 A 
HETATM   10  C   UNL     1      -6.572 -14.424 -34.053  1.00  0.00     0.030 A 
BRANCH   8  11
HETATM   11  C   UNL     1      -5.207 -15.807 -30.815  1.00  0.00     0.251 C 
HETATM   12  N   UNL     1      -6.263 -16.486 -30.239  1.00  0.00    -0.357 N 
HETATM   13  H   UNL     1      -6.992 -16.865 -30.828  1.00  0.00     0.162 HD
HETATM   14  O   UNL     1      -4.190 -15.500 -30.202  1.00  0.00    -0.268 OA
BRANCH  12  15
HETATM   15  C   UNL     1      -6.196 -16.966 -28.872  1.00  0.00     0.122 C 
BRANCH  15  16
HETATM   16  C   UNL     1      -7.296 -17.967 -28.525  1.00  0.00     0.015 C 
HETATM   17  C   UNL     1      -8.538 -17.303 -27.951  1.00  0.00     0.006 C 
ENDBRANCH  15  16
ENDBRANCH  12  15
ENDBRANCH   8  11
ENDBRANCH   1   5
BRANCH   2  18
HETATM   18  C   UNL     1      -5.646 -12.800 -38.217  1.00  0.00     0.037 A 
HETATM   19  C   UNL     1      -7.022 -12.604 -38.326  1.00  0.00     0.075 A 
HETATM   20  C   UNL     1      -7.531 -12.277 -39.567  1.00  0.00     0.165 A 
HETATM   21  N   UNL     1      -6.776 -12.120 -40.674  1.00  0.00    -0.237 NA
HETATM   22  C   UNL     1      -5.450 -12.319 -40.543  1.00  0.00     0.120 A 
HETATM   23  C   UNL     1      -4.840 -12.665 -39.350  1.00  0.00     0.036 A 
BRANCH  20  24
HETATM   24  O   UNL     1      -8.900 -12.120 -39.661  1.00  0.00    -0.329 OA
BRANCH  24  25
HETATM   25  C   UNL     1      -9.676 -13.337 -39.640  1.00  0.00     0.130 C 
HETATM   26  C   UNL     1     -11.021 -13.265 -40.409  1.00  0.00     0.032 C 
HETATM   27  C   UNL     1     -10.778 -14.723 -40.841  1.00  0.00     0.005 C 
HETATM   28  C   UNL     1      -9.275 -14.457 -40.638  1.00  0.00     0.032 C 
ENDBRANCH  24  25
ENDBRANCH  20  24
ENDBRANCH   2  18
TORSDOF 7
ENDMDL
MODEL 10
REMARK VINA RESULT:      -6.9      4.750      7.435
REMARK  7 active torsions:
REMARK  status: ('A' for Active; 'I' for Inactive)
REMARK    1  A    between atoms: C_2  and  C_3 
REMARK    2  A    between atoms: C_3  and  N_4 
REMARK       I    between atoms: N_4  and  C_5 
REMARK    3  A    between atoms: C_5  and  C_6 
REMARK    4  A    between atoms: C_9  and  N_10 
REMARK       I    between atoms: N_10  and  C_11 
REMARK    5  A    between atoms: C_11  and  C_12 
REMARK    6  A    between atoms: C_14  and  O_15 
REMARK    7  A    between atoms: O_15  and  C_16 
ROOT
HETATM    1  N   UNL     1      -3.371   4.172 -31.292  1.00  0.00    -0.323 N 
HETATM    2  C   UNL     1      -2.303   4.721 -31.980  1.00  0.00     0.256 C 
HETATM    3  O   UNL     1      -2.043   4.565 -33.167  1.00  0.00    -0.267 OA
HETATM    4  H   UNL     1      -3.554   4.522 -30.363  1.00  0.00     0.169 HD
ENDROOT
BRANCH   1   5
HETATM    5  C   UNL     1      -4.251   3.166 -31.743  1.00  0.00     0.035 A 
HETATM    6  C   UNL     1      -5.499   3.415 -32.318  1.00  0.00     0.030 A 
HETATM    7  C   UNL     1      -6.285   2.363 -32.810  1.00  0.00     0.019 A 
HETATM    8  C   UNL     1      -5.821   1.045 -32.744  1.00  0.00     0.032 A 
HETATM    9  C   UNL     1      -4.588   0.790 -32.134  1.00  0.00     0.019 A 
HETATM   10  C   UNL     1      -3.810   1.841 -31.639  1.00  0.00     0.030 A 
BRANCH   8  11
HETATM   11  C   UNL     1      -6.579  -0.112 -33.304  1.00  0.00     0.251 C 
HETATM   12  N   UNL     1      -5.927  -0.890 -34.241  1.00  0.00    -0.357 N 
HETATM   13  H   UNL     1      -4.942  -0.744 -34.411  1.00  0.00     0.162 HD
HETATM   14  O   UNL     1      -7.707  -0.359 -32.893  1.00  0.00    -0.268 OA
BRANCH  12  15
HETATM   15  C   UNL     1      -6.512  -2.121 -34.739  1.00  0.00     0.122 C 
BRANCH  15  16
HETATM   16  C   UNL     1      -5.504  -3.260 -34.878  1.00  0.00     0.015 C 
HETATM   17  C   UNL     1      -6.167  -4.606 -35.126  1.00  0.00     0.006 C 
ENDBRANCH  15  16
ENDBRANCH  12  15
ENDBRANCH   8  11
ENDBRANCH   1   5
BRANCH   2  18
HETATM   18  C   UNL     1      -1.395   5.582 -31.168  1.00  0.00     0.037 A 
HETATM   19  C   UNL     1      -1.947   6.364 -30.154  1.00  0.00     0.075 A 
HETATM   20  C   UNL     1      -1.107   7.216 -29.466  1.00  0.00     0.165 A 
HETATM   21  N   UNL     1       0.217   7.326 -29.705  1.00  0.00    -0.237 NA
HETATM   22  C   UNL     1       0.724   6.564 -30.694  1.00  0.00     0.120 A 
HETATM   23  C   UNL     1      -0.032   5.690 -31.455  1.00  0.00     0.036 A 
BRANCH  20  24
HETATM   24  O   UNL     1      -1.679   8.006 -28.488  1.00  0.00    -0.329 OA
BRANCH  24  25
HETATM   25  C   UNL     1      -2.495   9.099 -28.959  1.00  0.00     0.130 C 
HETATM   26  C   UNL     1      -1.986  10.510 -28.563  1.00  0.00     0.032 C 
HETATM   27  C   UNL     1      -2.466  10.999 -29.941  1.00  0.00     0.005 C 
HETATM   28  C   UNL     1      -2.305   9.549 -30.433  1.00  0.00     0.032 C 
ENDBRANCH  24  25
ENDBRANCH  20  24
ENDBRANCH   2  18
TORSDOF 7
ENDMDL
