MODEL 1
REMARK VINA RESULT:      -9.2      0.000      0.000
REMARK  5 active torsions:
REMARK  status: ('A' for Active; 'I' for Inactive)
REMARK    1  A    between atoms: C_6  and  N_7 
REMARK       I    between atoms: N_7  and  C_8 
REMARK       I    between atoms: C_8  and  N_9 
REMARK    2  A    between atoms: N_9  and  C_10 
REMARK    3  A    between atoms: C_13  and  C_14 
REMARK       I    between atoms: C_14  and  N_15 
REMARK    4  A    between atoms: N_15  and  C_16 
REMARK    5  A    between atoms: C_16  and  C_17 
ROOT
HETATM    1  C   UNL     1      -3.337   5.404 -33.245  1.00  0.00     0.175 A 
HETATM    2  S   UNL     1      -4.973   5.344 -33.719  1.00  0.00    -0.061 SA
HETATM    3  C   UNL     1      -5.046   3.723 -33.183  1.00  0.00     0.090 A 
HETATM    4  C   UNL     1      -3.827   3.337 -32.649  1.00  0.00     0.133 A 
HETATM    5  N   UNL     1      -2.823   4.317 -32.717  1.00  0.00    -0.218 NA
ENDROOT
BRANCH   1   6
HETATM    6  N   UNL     1      -2.744   6.608 -33.472  1.00  0.00    -0.287 N 
HETATM    7  C   UNL     1      -2.087   7.392 -32.573  1.00  0.00     0.326 C 
HETATM    8  N   UNL     1      -1.917   6.886 -31.313  1.00  0.00    -0.309 N 
HETATM    9  O   UNL     1      -1.672   8.478 -32.975  1.00  0.00    -0.247 OA
HETATM   10  H   UNL     1      -2.284   5.950 -31.177  1.00  0.00     0.170 HD
HETATM   11  H   UNL     1      -2.793   6.984 -34.407  1.00  0.00     0.172 HD
BRANCH   8  12
HETATM   12  C   UNL     1      -1.235   7.473 -30.228  1.00  0.00     0.037 A 
HETATM   13  C   UNL     1      -1.763   8.495 -29.435  1.00  0.00     0.053 A 
HETATM   14  C   UNL     1      -1.010   9.030 -28.388  1.00  0.00     0.036 A 
HETATM   15  C   UNL     1       0.271   8.557 -28.119  1.00  0.00     0.024 A 
HETATM   16 CL   UNL     1      -1.672  10.287 -27.412  1.00  0.00    -0.084 Cl
HETATM   17  C   UNL     1       0.804   7.535 -28.900  1.00  0.00     0.004 A 
HETATM   18  C   UNL     1       0.052   6.993 -29.947  1.00  0.00     0.029 A 
ENDBRANCH   8  12
ENDBRANCH   1   6
BRANCH   4  19
HETATM   19  C   UNL     1      -3.613   2.021 -32.041  1.00  0.00     0.271 C 
HETATM   20  N   UNL     1      -4.378   1.022 -32.591  1.00  0.00    -0.351 N 
HETATM   21  H   UNL     1      -5.095   1.288 -33.254  1.00  0.00     0.163 HD
HETATM   22  O   UNL     1      -2.806   1.833 -31.135  1.00  0.00    -0.266 OA
BRANCH  20  23
HETATM   23  C   UNL     1      -4.301  -0.328 -32.090  1.00  0.00     0.161 C 
BRANCH  23  24
HETATM   24  C   UNL     1      -4.859  -1.352 -33.045  1.00  0.00    -0.040 A 
HETATM   25  C   UNL     1      -4.109  -2.468 -33.452  1.00  0.00     0.010 A 
HETATM   26  C   UNL     1      -4.669  -3.436 -34.290  1.00  0.00     0.024 A 
HETATM   27  C   UNL     1      -5.991  -3.308 -34.710  1.00  0.00     0.034 A 
HETATM   28 CL   UNL     1      -6.685  -4.507 -35.730  1.00  0.00    -0.084 Cl
HETATM   29  C   UNL     1      -6.757  -2.222 -34.299  1.00  0.00     0.024 A 
HETATM   30  C   UNL     1      -6.194  -1.250 -33.467  1.00  0.00     0.010 A 
ENDBRANCH  23  24
ENDBRANCH  20  23
ENDBRANCH   4  19
TORSDOF 5
ENDMDL
MODEL 2
REMARK VINA RESULT:      -9.0      2.164      9.981
REMARK  5 active torsions:
REMARK  status: ('A' for Active; 'I' for Inactive)
REMARK    1  A    between atoms: C_6  and  N_7 
REMARK       I    between atoms: N_7  and  C_8 
REMARK       I    between atoms: C_8  and  N_9 
REMARK    2  A    between atoms: N_9  and  C_10 
REMARK    3  A    between atoms: C_13  and  C_14 
REMARK       I    between atoms: C_14  and  N_15 
REMARK    4  A    between atoms: N_15  and  C_16 
REMARK    5  A    between atoms: C_16  and  C_17 
ROOT
HETATM    1  C   UNL     1      -5.628   3.076 -32.699  1.00  0.00     0.175 A 
HETATM    2  S   UNL     1      -6.418   4.014 -33.881  1.00  0.00    -0.061 SA
HETATM    3  C   UNL     1      -4.943   4.818 -34.198  1.00  0.00     0.090 A 
HETATM    4  C   UNL     1      -3.933   4.300 -33.403  1.00  0.00     0.133 A 
HETATM    5  N   UNL     1      -4.349   3.302 -32.506  1.00  0.00    -0.218 NA
ENDROOT
BRANCH   1   6
HETATM    6  N   UNL     1      -6.440   2.175 -32.082  1.00  0.00    -0.287 N 
HETATM    7  C   UNL     1      -6.578   0.850 -32.367  1.00  0.00     0.326 C 
HETATM    8  N   UNL     1      -5.747   0.329 -33.322  1.00  0.00    -0.309 N 
HETATM    9  O   UNL     1      -7.415   0.222 -31.721  1.00  0.00    -0.247 OA
HETATM   10  H   UNL     1      -5.083   0.989 -33.714  1.00  0.00     0.170 HD
HETATM   11  H   UNL     1      -7.022   2.508 -31.328  1.00  0.00     0.172 HD
BRANCH   8  12
HETATM   12  C   UNL     1      -5.658  -1.008 -33.757  1.00  0.00     0.037 A 
HETATM   13  C   UNL     1      -4.627  -1.879 -33.395  1.00  0.00     0.053 A 
HETATM   14  C   UNL     1      -4.609  -3.187 -33.885  1.00  0.00     0.036 A 
HETATM   15  C   UNL     1      -5.611  -3.641 -34.739  1.00  0.00     0.024 A 
HETATM   16 CL   UNL     1      -3.336  -4.255 -33.428  1.00  0.00    -0.084 Cl
HETATM   17  C   UNL     1      -6.646  -2.781 -35.101  1.00  0.00     0.004 A 
HETATM   18  C   UNL     1      -6.670  -1.473 -34.608  1.00  0.00     0.029 A 
ENDBRANCH   8  12
ENDBRANCH   1   6
BRANCH   4  19
HETATM   19  C   UNL     1      -2.540   4.744 -33.508  1.00  0.00     0.271 C 
HETATM   20  N   UNL     1      -1.909   4.889 -32.297  1.00  0.00    -0.351 N 
HETATM   21  H   UNL     1      -2.471   4.809 -31.460  1.00  0.00     0.163 HD
HETATM   22  O   UNL     1      -1.989   4.947 -34.586  1.00  0.00    -0.266 OA
BRANCH  20  23
HETATM   23  C   UNL     1      -0.541   5.340 -32.227  1.00  0.00     0.161 C 
BRANCH  23  24
HETATM   24  C   UNL     1      -0.133   5.798 -30.850  1.00  0.00    -0.040 A 
HETATM   25  C   UNL     1       0.420   4.911 -29.911  1.00  0.00     0.010 A 
HETATM   26  C   UNL     1       0.848   5.371 -28.662  1.00  0.00     0.024 A 
HETATM   27  C   UNL     1       0.746   6.725 -28.351  1.00  0.00     0.034 A 
HETATM   28 CL   UNL     1       1.285   7.294 -26.819  1.00  0.00    -0.084 Cl
HETATM   29  C   UNL     1       0.222   7.622 -29.277  1.00  0.00     0.024 A 
HETATM   30  C   UNL     1      -0.212   7.161 -30.522  1.00  0.00     0.010 A 
ENDBRANCH  23  24
ENDBRANCH  20  23
ENDBRANCH   4  19
TORSDOF 5
ENDMDL
MODEL 3
REMARK VINA RESULT:      -8.6      1.764      2.035
REMARK  5 active torsions:
REMARK  status: ('A' for Active; 'I' for Inactive)
REMARK    1  A    between atoms: C_6  and  N_7 
REMARK       I    between atoms: N_7  and  C_8 
REMARK       I    between atoms: C_8  and  N_9 
REMARK    2  A    between atoms: N_9  and  C_10 
REMARK    3  A    between atoms: C_13  and  C_14 
REMARK       I    between atoms: C_14  and  N_15 
REMARK    4  A    between atoms: N_15  and  C_16 
REMARK    5  A    between atoms: C_16  and  C_17 
ROOT
HETATM    1  C   UNL     1      -1.783   4.808 -32.350  1.00  0.00     0.175 A 
HETATM    2  S   UNL     1      -2.733   5.255 -33.692  1.00  0.00    -0.061 SA
HETATM    3  C   UNL     1      -3.850   4.028 -33.282  1.00  0.00     0.090 A 
HETATM    4  C   UNL     1      -3.444   3.373 -32.130  1.00  0.00     0.133 A 
HETATM    5  N   UNL     1      -2.217   3.815 -31.609  1.00  0.00    -0.218 NA
ENDROOT
BRANCH   1   6
HETATM    6  N   UNL     1      -0.658   5.559 -32.201  1.00  0.00    -0.287 N 
HETATM    7  C   UNL     1      -0.289   6.295 -31.116  1.00  0.00     0.326 C 
HETATM    8  N   UNL     1      -1.086   6.210 -30.006  1.00  0.00    -0.309 N 
HETATM    9  O   UNL     1       0.747   6.951 -31.209  1.00  0.00    -0.247 OA
HETATM   10  H   UNL     1      -1.874   5.578 -30.096  1.00  0.00     0.170 HD
HETATM   11  H   UNL     1      -0.013   5.595 -32.976  1.00  0.00     0.172 HD
BRANCH   8  12
HETATM   12  C   UNL     1      -0.895   6.826 -28.753  1.00  0.00     0.037 A 
HETATM   13  C   UNL     1       0.354   6.993 -28.147  1.00  0.00     0.053 A 
HETATM   14  C   UNL     1       0.449   7.603 -26.895  1.00  0.00     0.036 A 
HETATM   15  C   UNL     1      -0.691   8.051 -26.232  1.00  0.00     0.024 A 
HETATM   16 CL   UNL     1       1.993   7.807 -26.158  1.00  0.00    -0.084 Cl
HETATM   17  C   UNL     1      -1.939   7.895 -26.831  1.00  0.00     0.004 A 
HETATM   18  C   UNL     1      -2.038   7.290 -28.088  1.00  0.00     0.029 A 
ENDBRANCH   8  12
ENDBRANCH   1   6
BRANCH   4  19
HETATM   19  C   UNL     1      -4.244   2.321 -31.497  1.00  0.00     0.271 C 
HETATM   20  N   UNL     1      -4.302   1.155 -32.219  1.00  0.00    -0.351 N 
HETATM   21  H   UNL     1      -3.914   1.159 -33.154  1.00  0.00     0.163 HD
HETATM   22  O   UNL     1      -4.794   2.471 -30.409  1.00  0.00    -0.266 OA
BRANCH  20  23
HETATM   23  C   UNL     1      -5.068   0.029 -31.743  1.00  0.00     0.161 C 
BRANCH  23  24
HETATM   24  C   UNL     1      -5.309  -1.019 -32.800  1.00  0.00    -0.040 A 
HETATM   25  C   UNL     1      -4.300  -1.912 -33.197  1.00  0.00     0.010 A 
HETATM   26  C   UNL     1      -4.565  -2.915 -34.134  1.00  0.00     0.024 A 
HETATM   27  C   UNL     1      -5.846  -3.047 -34.665  1.00  0.00     0.034 A 
HETATM   28 CL   UNL     1      -6.176  -4.289 -35.808  1.00  0.00    -0.084 Cl
HETATM   29  C   UNL     1      -6.864  -2.185 -34.267  1.00  0.00     0.024 A 
HETATM   30  C   UNL     1      -6.597  -1.178 -33.336  1.00  0.00     0.010 A 
ENDBRANCH  23  24
ENDBRANCH  20  23
ENDBRANCH   4  19
TORSDOF 5
ENDMDL
MODEL 4
REMARK VINA RESULT:      -8.6      1.992      9.792
REMARK  5 active torsions:
REMARK  status: ('A' for Active; 'I' for Inactive)
REMARK    1  A    between atoms: C_6  and  N_7 
REMARK       I    between atoms: N_7  and  C_8 
REMARK       I    between atoms: C_8  and  N_9 
REMARK    2  A    between atoms: N_9  and  C_10 
REMARK    3  A    between atoms: C_13  and  C_14 
REMARK       I    between atoms: C_14  and  N_15 
REMARK    4  A    between atoms: N_15  and  C_16 
REMARK    5  A    between atoms: C_16  and  C_17 
ROOT
HETATM    1  C   UNL     1      -6.019   3.106 -32.524  1.00  0.00     0.175 A 
HETATM    2  S   UNL     1      -7.025   4.068 -33.507  1.00  0.00    -0.061 SA
HETATM    3  C   UNL     1      -5.666   5.010 -33.938  1.00  0.00     0.090 A 
HETATM    4  C   UNL     1      -4.524   4.516 -33.328  1.00  0.00     0.133 A 
HETATM    5  N   UNL     1      -4.745   3.420 -32.477  1.00  0.00    -0.218 NA
ENDROOT
BRANCH   1   6
HETATM    6  N   UNL     1      -6.676   2.096 -31.890  1.00  0.00    -0.287 N 
HETATM    7  C   UNL     1      -6.532   0.757 -32.092  1.00  0.00     0.326 C 
HETATM    8  N   UNL     1      -5.556   0.361 -32.966  1.00  0.00    -0.309 N 
HETATM    9  O   UNL     1      -7.268   0.011 -31.449  1.00  0.00    -0.247 OA
HETATM   10  H   UNL     1      -5.011   1.117 -33.367  1.00  0.00     0.170 HD
HETATM   11  H   UNL     1      -7.359   2.348 -31.191  1.00  0.00     0.172 HD
BRANCH   8  12
HETATM   12  C   UNL     1      -5.178  -0.954 -33.305  1.00  0.00     0.037 A 
HETATM   13  C   UNL     1      -5.869  -1.753 -34.219  1.00  0.00     0.053 A 
HETATM   14  C   UNL     1      -5.432  -3.053 -34.485  1.00  0.00     0.036 A 
HETATM   15  C   UNL     1      -4.307  -3.570 -33.847  1.00  0.00     0.024 A 
HETATM   16 CL   UNL     1      -6.288  -4.030 -35.617  1.00  0.00    -0.084 Cl
HETATM   17  C   UNL     1      -3.608  -2.778 -32.939  1.00  0.00     0.004 A 
HETATM   18  C   UNL     1      -4.040  -1.475 -32.674  1.00  0.00     0.029 A 
ENDBRANCH   8  12
ENDBRANCH   1   6
BRANCH   4  19
HETATM   19  C   UNL     1      -3.193   5.077 -33.571  1.00  0.00     0.271 C 
HETATM   20  N   UNL     1      -2.285   4.810 -32.576  1.00  0.00    -0.351 N 
HETATM   21  H   UNL     1      -2.629   4.378 -31.728  1.00  0.00     0.163 HD
HETATM   22  O   UNL     1      -2.917   5.713 -34.584  1.00  0.00    -0.266 OA
BRANCH  20  23
HETATM   23  C   UNL     1      -0.936   5.311 -32.653  1.00  0.00     0.161 C 
BRANCH  23  24
HETATM   24  C   UNL     1      -0.407   5.811 -31.333  1.00  0.00    -0.040 A 
HETATM   25  C   UNL     1      -0.626   7.129 -30.901  1.00  0.00     0.010 A 
HETATM   26  C   UNL     1      -0.179   7.552 -29.646  1.00  0.00     0.024 A 
HETATM   27  C   UNL     1       0.472   6.653 -28.803  1.00  0.00     0.034 A 
HETATM   28 CL   UNL     1       1.010   7.169 -27.253  1.00  0.00    -0.084 Cl
HETATM   29  C   UNL     1       0.678   5.337 -29.205  1.00  0.00     0.024 A 
HETATM   30  C   UNL     1       0.237   4.917 -30.463  1.00  0.00     0.010 A 
ENDBRANCH  23  24
ENDBRANCH  20  23
ENDBRANCH   4  19
TORSDOF 5
ENDMDL
MODEL 5
REMARK VINA RESULT:      -8.2      5.403      8.413
REMARK  5 active torsions:
REMARK  status: ('A' for Active; 'I' for Inactive)
REMARK    1  A    between atoms: C_6  and  N_7 
REMARK       I    between atoms: N_7  and  C_8 
REMARK       I    between atoms: C_8  and  N_9 
REMARK    2  A    between atoms: N_9  and  C_10 
REMARK    3  A    between atoms: C_13  and  C_14 
REMARK       I    between atoms: C_14  and  N_15 
REMARK    4  A    between atoms: N_15  and  C_16 
REMARK    5  A    between atoms: C_16  and  C_17 
ROOT
HETATM    1  C   UNL     1      -7.692   4.624 -33.525  1.00  0.00     0.175 A 
HETATM    2  S   UNL     1      -6.908   5.919 -32.743  1.00  0.00    -0.061 SA
HETATM    3  C   UNL     1      -5.874   4.798 -31.971  1.00  0.00     0.090 A 
HETATM    4  C   UNL     1      -6.172   3.508 -32.379  1.00  0.00     0.133 A 
HETATM    5  N   UNL     1      -7.258   3.412 -33.266  1.00  0.00    -0.218 NA
ENDROOT
BRANCH   1   6
HETATM    6  N   UNL     1      -8.700   5.014 -34.352  1.00  0.00    -0.287 N 
HETATM    7  C   UNL     1      -9.979   4.546 -34.380  1.00  0.00     0.326 C 
HETATM    8  N   UNL     1     -10.332   3.643 -33.413  1.00  0.00    -0.309 N 
HETATM    9  O   UNL     1     -10.722   4.995 -35.250  1.00  0.00    -0.247 OA
HETATM   10  H   UNL     1      -9.599   3.426 -32.745  1.00  0.00     0.170 HD
HETATM   11  H   UNL     1      -8.495   5.725 -35.038  1.00  0.00     0.172 HD
BRANCH   8  12
HETATM   12  C   UNL     1     -11.594   3.055 -33.196  1.00  0.00     0.037 A 
HETATM   13  C   UNL     1     -11.953   1.786 -33.661  1.00  0.00     0.053 A 
HETATM   14  C   UNL     1     -13.233   1.286 -33.413  1.00  0.00     0.036 A 
HETATM   15  C   UNL     1     -14.167   2.038 -32.705  1.00  0.00     0.024 A 
HETATM   16 CL   UNL     1     -13.665  -0.281 -33.985  1.00  0.00    -0.084 Cl
HETATM   17  C   UNL     1     -13.816   3.301 -32.233  1.00  0.00     0.004 A 
HETATM   18  C   UNL     1     -12.534   3.804 -32.475  1.00  0.00     0.029 A 
ENDBRANCH   8  12
ENDBRANCH   1   6
BRANCH   4  19
HETATM   19  C   UNL     1      -5.401   2.342 -31.940  1.00  0.00     0.271 C 
HETATM   20  N   UNL     1      -5.165   1.423 -32.933  1.00  0.00    -0.351 N 
HETATM   21  H   UNL     1      -5.637   1.555 -33.819  1.00  0.00     0.163 HD
HETATM   22  O   UNL     1      -4.989   2.215 -30.790  1.00  0.00    -0.266 OA
BRANCH  20  23
HETATM   23  C   UNL     1      -4.439   0.209 -32.658  1.00  0.00     0.161 C 
BRANCH  23  24
HETATM   24  C   UNL     1      -5.022  -1.004 -33.337  1.00  0.00    -0.040 A 
HETATM   25  C   UNL     1      -6.378  -1.067 -33.699  1.00  0.00     0.010 A 
HETATM   26  C   UNL     1      -6.882  -2.176 -34.383  1.00  0.00     0.024 A 
HETATM   27  C   UNL     1      -6.031  -3.223 -34.730  1.00  0.00     0.034 A 
HETATM   28 CL   UNL     1      -6.648  -4.582 -35.584  1.00  0.00    -0.084 Cl
HETATM   29  C   UNL     1      -4.680  -3.168 -34.400  1.00  0.00     0.024 A 
HETATM   30  C   UNL     1      -4.177  -2.062 -33.710  1.00  0.00     0.010 A 
ENDBRANCH  23  24
ENDBRANCH  20  23
ENDBRANCH   4  19
TORSDOF 5
ENDMDL
MODEL 6
REMARK VINA RESULT:      -8.2      5.605      8.378
REMARK  5 active torsions:
REMARK  status: ('A' for Active; 'I' for Inactive)
REMARK    1  A    between atoms: C_6  and  N_7 
REMARK       I    between atoms: N_7  and  C_8 
REMARK       I    between atoms: C_8  and  N_9 
REMARK    2  A    between atoms: N_9  and  C_10 
REMARK    3  A    between atoms: C_13  and  C_14 
REMARK       I    between atoms: C_14  and  N_15 
REMARK    4  A    between atoms: N_15  and  C_16 
REMARK    5  A    between atoms: C_16  and  C_17 
ROOT
HETATM    1  C   UNL     1      -7.881   3.458 -30.560  1.00  0.00     0.175 A 
HETATM    2  S   UNL     1      -6.819   4.765 -30.816  1.00  0.00    -0.061 SA
HETATM    3  C   UNL     1      -5.539   3.654 -31.033  1.00  0.00     0.090 A 
HETATM    4  C   UNL     1      -6.007   2.354 -30.926  1.00  0.00     0.133 A 
HETATM    5  N   UNL     1      -7.374   2.249 -30.618  1.00  0.00    -0.218 NA
ENDROOT
BRANCH   1   6
HETATM    6  N   UNL     1      -9.168   3.836 -30.324  1.00  0.00    -0.287 N 
HETATM    7  C   UNL     1     -10.222   3.775 -31.185  1.00  0.00     0.326 C 
HETATM    8  N   UNL     1      -9.999   3.187 -32.401  1.00  0.00    -0.309 N 
HETATM    9  O   UNL     1     -11.296   4.223 -30.788  1.00  0.00    -0.247 OA
HETATM   10  H   UNL     1      -9.060   2.828 -32.534  1.00  0.00     0.170 HD
HETATM   11  H   UNL     1      -9.385   4.215 -29.415  1.00  0.00     0.172 HD
BRANCH   8  12
HETATM   12  C   UNL     1     -10.928   2.958 -33.436  1.00  0.00     0.037 A 
HETATM   13  C   UNL     1     -11.874   1.929 -33.422  1.00  0.00     0.053 A 
HETATM   14  C   UNL     1     -12.748   1.766 -34.499  1.00  0.00     0.036 A 
HETATM   15  C   UNL     1     -12.691   2.619 -35.597  1.00  0.00     0.024 A 
HETATM   16 CL   UNL     1     -13.913   0.497 -34.470  1.00  0.00    -0.084 Cl
HETATM   17  C   UNL     1     -11.756   3.651 -35.617  1.00  0.00     0.004 A 
HETATM   18  C   UNL     1     -10.882   3.822 -34.539  1.00  0.00     0.029 A 
ENDBRANCH   8  12
ENDBRANCH   1   6
BRANCH   4  19
HETATM   19  C   UNL     1      -5.148   1.185 -31.140  1.00  0.00     0.271 C 
HETATM   20  N   UNL     1      -4.748   1.020 -32.443  1.00  0.00    -0.351 N 
HETATM   21  H   UNL     1      -5.168   1.617 -33.145  1.00  0.00     0.163 HD
HETATM   22  O   UNL     1      -4.807   0.438 -30.228  1.00  0.00    -0.266 OA
BRANCH  20  23
HETATM   23  C   UNL     1      -3.918  -0.095 -32.825  1.00  0.00     0.161 C 
BRANCH  23  24
HETATM   24  C   UNL     1      -4.688  -1.221 -33.466  1.00  0.00    -0.040 A 
HETATM   25  C   UNL     1      -6.006  -1.051 -33.919  1.00  0.00     0.010 A 
HETATM   26  C   UNL     1      -6.678  -2.092 -34.565  1.00  0.00     0.024 A 
HETATM   27  C   UNL     1      -6.029  -3.305 -34.784  1.00  0.00     0.034 A 
HETATM   28 CL   UNL     1      -6.851  -4.582 -35.592  1.00  0.00    -0.084 Cl
HETATM   29  C   UNL     1      -4.715  -3.485 -34.363  1.00  0.00     0.024 A 
HETATM   30  C   UNL     1      -4.046  -2.447 -33.710  1.00  0.00     0.010 A 
ENDBRANCH  23  24
ENDBRANCH  20  23
ENDBRANCH   4  19
TORSDOF 5
ENDMDL
MODEL 7
REMARK VINA RESULT:      -7.8      6.261      9.774
REMARK  5 active torsions:
REMARK  status: ('A' for Active; 'I' for Inactive)
REMARK    1  A    between atoms: C_6  and  N_7 
REMARK       I    between atoms: N_7  and  C_8 
REMARK       I    between atoms: C_8  and  N_9 
REMARK    2  A    between atoms: N_9  and  C_10 
REMARK    3  A    between atoms: C_13  and  C_14 
REMARK       I    between atoms: C_14  and  N_15 
REMARK    4  A    between atoms: N_15  and  C_16 
REMARK    5  A    between atoms: C_16  and  C_17 
ROOT
HETATM    1  C   UNL     1      -6.397   2.142 -32.326  1.00  0.00     0.175 A 
HETATM    2  S   UNL     1      -7.127   2.415 -30.811  1.00  0.00    -0.061 SA
HETATM    3  C   UNL     1      -8.589   2.797 -31.610  1.00  0.00     0.090 A 
HETATM    4  C   UNL     1      -8.437   2.665 -32.981  1.00  0.00     0.133 A 
HETATM    5  N   UNL     1      -7.142   2.311 -33.394  1.00  0.00    -0.218 NA
ENDROOT
BRANCH   1   6
HETATM    6  N   UNL     1      -5.091   1.766 -32.245  1.00  0.00    -0.287 N 
HETATM    7  C   UNL     1      -4.560   0.543 -32.524  1.00  0.00     0.326 C 
HETATM    8  N   UNL     1      -5.410  -0.403 -33.031  1.00  0.00    -0.309 N 
HETATM    9  O   UNL     1      -3.355   0.397 -32.329  1.00  0.00    -0.247 OA
HETATM   10  H   UNL     1      -6.364  -0.086 -33.172  1.00  0.00     0.170 HD
HETATM   11  H   UNL     1      -4.424   2.456 -31.936  1.00  0.00     0.172 HD
BRANCH   8  12
HETATM   12  C   UNL     1      -5.100  -1.714 -33.444  1.00  0.00     0.037 A 
HETATM   13  C   UNL     1      -5.877  -2.454 -34.340  1.00  0.00     0.053 A 
HETATM   14  C   UNL     1      -5.502  -3.755 -34.683  1.00  0.00     0.036 A 
HETATM   15  C   UNL     1      -4.357  -4.332 -34.142  1.00  0.00     0.024 A 
HETATM   16 CL   UNL     1      -6.464  -4.658 -35.792  1.00  0.00    -0.084 Cl
HETATM   17  C   UNL     1      -3.573  -3.600 -33.254  1.00  0.00     0.004 A 
HETATM   18  C   UNL     1      -3.941  -2.296 -32.911  1.00  0.00     0.029 A 
ENDBRANCH   8  12
ENDBRANCH   1   6
BRANCH   4  19
HETATM   19  C   UNL     1      -9.546   2.856 -33.920  1.00  0.00     0.271 C 
HETATM   20  N   UNL     1     -10.373   1.765 -34.034  1.00  0.00    -0.351 N 
HETATM   21  H   UNL     1     -10.087   0.907 -33.579  1.00  0.00     0.163 HD
HETATM   22  O   UNL     1      -9.723   3.905 -34.531  1.00  0.00    -0.266 OA
BRANCH  20  23
HETATM   23  C   UNL     1     -11.499   1.784 -34.934  1.00  0.00     0.161 C 
BRANCH  23  24
HETATM   24  C   UNL     1     -12.825   1.923 -34.230  1.00  0.00    -0.040 A 
HETATM   25  C   UNL     1     -13.828   0.946 -34.343  1.00  0.00     0.010 A 
HETATM   26  C   UNL     1     -15.025   1.067 -33.632  1.00  0.00     0.024 A 
HETATM   27  C   UNL     1     -15.221   2.156 -32.785  1.00  0.00     0.034 A 
HETATM   28 CL   UNL     1     -16.688   2.298 -31.898  1.00  0.00    -0.084 Cl
HETATM   29  C   UNL     1     -14.230   3.122 -32.642  1.00  0.00     0.024 A 
HETATM   30  C   UNL     1     -13.036   3.005 -33.359  1.00  0.00     0.010 A 
ENDBRANCH  23  24
ENDBRANCH  20  23
ENDBRANCH   4  19
TORSDOF 5
ENDMDL
MODEL 8
REMARK VINA RESULT:      -7.7      2.743      3.185
REMARK  5 active torsions:
REMARK  status: ('A' for Active; 'I' for Inactive)
REMARK    1  A    between atoms: C_6  and  N_7 
REMARK       I    between atoms: N_7  and  C_8 
REMARK       I    between atoms: C_8  and  N_9 
REMARK    2  A    between atoms: N_9  and  C_10 
REMARK    3  A    between atoms: C_13  and  C_14 
REMARK       I    between atoms: C_14  and  N_15 
REMARK    4  A    between atoms: N_15  and  C_16 
REMARK    5  A    between atoms: C_16  and  C_17 
ROOT
HETATM    1  C   UNL     1      -6.093   4.104 -29.422  1.00  0.00     0.175 A 
HETATM    2  S   UNL     1      -7.518   3.600 -30.208  1.00  0.00    -0.061 SA
HETATM    3  C   UNL     1      -6.582   2.555 -31.184  1.00  0.00     0.090 A 
HETATM    4  C   UNL     1      -5.244   2.635 -30.830  1.00  0.00     0.133 A 
HETATM    5  N   UNL     1      -4.963   3.567 -29.818  1.00  0.00    -0.218 NA
ENDROOT
BRANCH   1   6
HETATM    6  N   UNL     1      -6.305   5.028 -28.444  1.00  0.00    -0.287 N 
HETATM    7  C   UNL     1      -5.510   6.084 -28.113  1.00  0.00     0.326 C 
HETATM    8  N   UNL     1      -4.413   6.308 -28.901  1.00  0.00    -0.309 N 
HETATM    9  O   UNL     1      -5.859   6.769 -27.154  1.00  0.00    -0.247 OA
HETATM   10  H   UNL     1      -4.312   5.667 -29.682  1.00  0.00     0.170 HD
HETATM   11  H   UNL     1      -7.137   4.933 -27.883  1.00  0.00     0.172 HD
BRANCH   8  12
HETATM   12  C   UNL     1      -3.473   7.353 -28.801  1.00  0.00     0.037 A 
HETATM   13  C   UNL     1      -2.354   7.317 -27.964  1.00  0.00     0.053 A 
HETATM   14  C   UNL     1      -1.480   8.406 -27.916  1.00  0.00     0.036 A 
HETATM   15  C   UNL     1      -1.709   9.537 -28.695  1.00  0.00     0.024 A 
HETATM   16 CL   UNL     1      -0.101   8.350 -26.885  1.00  0.00    -0.084 Cl
HETATM   17  C   UNL     1      -2.818   9.579 -29.536  1.00  0.00     0.004 A 
HETATM   18  C   UNL     1      -3.693   8.489 -29.591  1.00  0.00     0.029 A 
ENDBRANCH   8  12
ENDBRANCH   1   6
BRANCH   4  19
HETATM   19  C   UNL     1      -4.213   1.795 -31.447  1.00  0.00     0.271 C 
HETATM   20  N   UNL     1      -4.702   0.659 -32.043  1.00  0.00    -0.351 N 
HETATM   21  H   UNL     1      -5.679   0.435 -31.900  1.00  0.00     0.163 HD
HETATM   22  O   UNL     1      -3.023   2.098 -31.443  1.00  0.00    -0.266 OA
BRANCH  20  23
HETATM   23  C   UNL     1      -3.814  -0.284 -32.676  1.00  0.00     0.161 C 
BRANCH  23  24
HETATM   24  C   UNL     1      -4.535  -1.352 -33.458  1.00  0.00    -0.040 A 
HETATM   25  C   UNL     1      -3.977  -2.626 -33.656  1.00  0.00     0.010 A 
HETATM   26  C   UNL     1      -4.691  -3.619 -34.332  1.00  0.00     0.024 A 
HETATM   27  C   UNL     1      -5.977  -3.354 -34.796  1.00  0.00     0.034 A 
HETATM   28 CL   UNL     1      -6.862  -4.581 -35.616  1.00  0.00    -0.084 Cl
HETATM   29  C   UNL     1      -6.556  -2.105 -34.589  1.00  0.00     0.024 A 
HETATM   30  C   UNL     1      -5.839  -1.110 -33.920  1.00  0.00     0.010 A 
ENDBRANCH  23  24
ENDBRANCH  20  23
ENDBRANCH   4  19
TORSDOF 5
ENDMDL
MODEL 9
REMARK VINA RESULT:      -7.7      2.476      2.909
REMARK  5 active torsions:
REMARK  status: ('A' for Active; 'I' for Inactive)
REMARK    1  A    between atoms: C_6  and  N_7 
REMARK       I    between atoms: N_7  and  C_8 
REMARK       I    between atoms: C_8  and  N_9 
REMARK    2  A    between atoms: N_9  and  C_10 
REMARK    3  A    between atoms: C_13  and  C_14 
REMARK       I    between atoms: C_14  and  N_15 
REMARK    4  A    between atoms: N_15  and  C_16 
REMARK    5  A    between atoms: C_16  and  C_17 
ROOT
HETATM    1  C   UNL     1      -1.807   4.792 -32.291  1.00  0.00     0.175 A 
HETATM    2  S   UNL     1      -2.804   5.468 -33.496  1.00  0.00    -0.061 SA
HETATM    3  C   UNL     1      -3.965   4.253 -33.185  1.00  0.00     0.090 A 
HETATM    4  C   UNL     1      -3.532   3.425 -32.162  1.00  0.00     0.133 A 
HETATM    5  N   UNL     1      -2.254   3.729 -31.665  1.00  0.00    -0.218 NA
ENDROOT
BRANCH   1   6
HETATM    6  N   UNL     1      -0.633   5.459 -32.114  1.00  0.00    -0.287 N 
HETATM    7  C   UNL     1      -0.252   6.196 -31.034  1.00  0.00     0.326 C 
HETATM    8  N   UNL     1      -1.097   6.204 -29.957  1.00  0.00    -0.309 N 
HETATM    9  O   UNL     1       0.835   6.767 -31.100  1.00  0.00    -0.247 OA
HETATM   10  H   UNL     1      -1.928   5.632 -30.063  1.00  0.00     0.170 HD
HETATM   11  H   UNL     1       0.043   5.423 -32.861  1.00  0.00     0.172 HD
BRANCH   8  12
HETATM   12  C   UNL     1      -0.909   6.841 -28.713  1.00  0.00     0.037 A 
HETATM   13  C   UNL     1      -1.534   8.036 -28.346  1.00  0.00     0.053 A 
HETATM   14  C   UNL     1      -1.278   8.605 -27.097  1.00  0.00     0.036 A 
HETATM   15  C   UNL     1      -0.402   7.996 -26.202  1.00  0.00     0.024 A 
HETATM   16 CL   UNL     1      -2.057  10.077 -26.652  1.00  0.00    -0.084 Cl
HETATM   17  C   UNL     1       0.220   6.802 -26.557  1.00  0.00     0.004 A 
HETATM   18  C   UNL     1      -0.037   6.225 -27.805  1.00  0.00     0.029 A 
ENDBRANCH   8  12
ENDBRANCH   1   6
BRANCH   4  19
HETATM   19  C   UNL     1      -4.355   2.335 -31.627  1.00  0.00     0.271 C 
HETATM   20  N   UNL     1      -4.452   1.250 -32.462  1.00  0.00    -0.351 N 
HETATM   21  H   UNL     1      -4.074   1.339 -33.397  1.00  0.00     0.163 HD
HETATM   22  O   UNL     1      -4.888   2.389 -30.523  1.00  0.00    -0.266 OA
BRANCH  20  23
HETATM   23  C   UNL     1      -5.244   0.103 -32.092  1.00  0.00     0.161 C 
BRANCH  23  24
HETATM   24  C   UNL     1      -6.702   0.243 -32.449  1.00  0.00    -0.040 A 
HETATM   25  C   UNL     1      -7.152   0.135 -33.775  1.00  0.00     0.010 A 
HETATM   26  C   UNL     1      -8.515   0.208 -34.074  1.00  0.00     0.024 A 
HETATM   27  C   UNL     1      -9.442   0.367 -33.047  1.00  0.00     0.034 A 
HETATM   28 CL   UNL     1     -11.121   0.442 -33.412  1.00  0.00    -0.084 Cl
HETATM   29  C   UNL     1      -9.018   0.453 -31.724  1.00  0.00     0.024 A 
HETATM   30  C   UNL     1      -7.654   0.388 -31.427  1.00  0.00     0.010 A 
ENDBRANCH  23  24
ENDBRANCH  20  23
ENDBRANCH   4  19
TORSDOF 5
ENDMDL
MODEL 10
REMARK VINA RESULT:      -7.7      5.585      6.960
REMARK  5 active torsions:
REMARK  status: ('A' for Active; 'I' for Inactive)
REMARK    1  A    between atoms: C_6  and  N_7 
REMARK       I    between atoms: N_7  and  C_8 
REMARK       I    between atoms: C_8  and  N_9 
REMARK    2  A    between atoms: N_9  and  C_10 
REMARK    3  A    between atoms: C_13  and  C_14 
REMARK       I    between atoms: C_14  and  N_15 
REMARK    4  A    between atoms: N_15  and  C_16 
REMARK    5  A    between atoms: C_16  and  C_17 
ROOT
HETATM    1  C   UNL     1      -6.314   2.384 -31.459  1.00  0.00     0.175 A 
HETATM    2  S   UNL     1      -7.233   2.858 -30.105  1.00  0.00    -0.061 SA
HETATM    3  C   UNL     1      -8.612   2.971 -31.109  1.00  0.00     0.090 A 
HETATM    4  C   UNL     1      -8.292   2.613 -32.409  1.00  0.00     0.133 A 
HETATM    5  N   UNL     1      -6.937   2.300 -32.612  1.00  0.00    -0.218 NA
ENDROOT
BRANCH   1   6
HETATM    6  N   UNL     1      -5.006   2.137 -31.174  1.00  0.00    -0.287 N 
HETATM    7  C   UNL     1      -3.921   2.867 -31.555  1.00  0.00     0.326 C 
HETATM    8  N   UNL     1      -4.162   4.034 -32.228  1.00  0.00    -0.309 N 
HETATM    9  O   UNL     1      -2.815   2.435 -31.237  1.00  0.00    -0.247 OA
HETATM   10  H   UNL     1      -5.144   4.256 -32.359  1.00  0.00     0.170 HD
HETATM   11  H   UNL     1      -4.793   1.318 -30.624  1.00  0.00     0.172 HD
BRANCH   8  12
HETATM   12  C   UNL     1      -3.223   4.983 -32.682  1.00  0.00     0.037 A 
HETATM   13  C   UNL     1      -3.039   6.239 -32.097  1.00  0.00     0.053 A 
HETATM   14  C   UNL     1      -2.095   7.124 -32.621  1.00  0.00     0.036 A 
HETATM   15  C   UNL     1      -1.327   6.773 -33.729  1.00  0.00     0.024 A 
HETATM   16 CL   UNL     1      -1.871   8.668 -31.890  1.00  0.00    -0.084 Cl
HETATM   17  C   UNL     1      -1.501   5.521 -34.314  1.00  0.00     0.004 A 
HETATM   18  C   UNL     1      -2.441   4.629 -33.790  1.00  0.00     0.029 A 
ENDBRANCH   8  12
ENDBRANCH   1   6
BRANCH   4  19
HETATM   19  C   UNL     1      -9.292   2.543 -33.478  1.00  0.00     0.271 C 
HETATM   20  N   UNL     1     -10.249   1.578 -33.283  1.00  0.00    -0.351 N 
HETATM   21  H   UNL     1     -10.118   0.932 -32.515  1.00  0.00     0.163 HD
HETATM   22  O   UNL     1      -9.278   3.295 -34.448  1.00  0.00    -0.266 OA
BRANCH  20  23
HETATM   23  C   UNL     1     -11.293   1.367 -34.255  1.00  0.00     0.161 C 
BRANCH  23  24
HETATM   24  C   UNL     1     -12.678   1.590 -33.703  1.00  0.00    -0.040 A 
HETATM   25  C   UNL     1     -12.941   2.588 -32.750  1.00  0.00     0.010 A 
HETATM   26  C   UNL     1     -14.244   2.816 -32.299  1.00  0.00     0.024 A 
HETATM   27  C   UNL     1     -15.298   2.064 -32.814  1.00  0.00     0.034 A 
HETATM   28 CL   UNL     1     -16.903   2.355 -32.269  1.00  0.00    -0.084 Cl
HETATM   29  C   UNL     1     -15.060   1.087 -33.775  1.00  0.00     0.024 A 
HETATM   30  C   UNL     1     -13.756   0.853 -34.220  1.00  0.00     0.010 A 
ENDBRANCH  23  24
ENDBRANCH  20  23
ENDBRANCH   4  19
TORSDOF 5
ENDMDL
