MODEL 1
REMARK VINA RESULT:      -7.5      0.000      0.000
REMARK  6 active torsions:
REMARK  status: ('A' for Active; 'I' for Inactive)
REMARK    1  A    between atoms: C_2  and  O_3 
REMARK    2  A    between atoms: O_3  and  C_4 
REMARK    3  A    between atoms: C_4  and  C_5 
REMARK    4  A    between atoms: C_6  and  O_7 
REMARK    5  A    between atoms: C_12  and  O_13 
REMARK    6  A    between atoms: C_17  and  C_18 
ROOT
HETATM    1  C   UNL     1      -5.358   0.779 -33.057  1.00  0.00     0.133 C 
HETATM    2  C   UNL     1      -6.823   0.798 -33.607  1.00  0.00     0.073 C 
HETATM    3  C   UNL     1      -7.133  -0.429 -34.479  1.00  0.00     0.047 C 
HETATM    4  C   UNL     1      -7.921   0.958 -32.514  1.00  0.00     0.097 C 
HETATM    5  C   UNL     1      -7.451   1.864 -31.435  1.00  0.00     0.042 A 
HETATM    6  C   UNL     1      -6.163   2.298 -31.201  1.00  0.00     0.030 A 
HETATM    7  C   UNL     1      -6.293   3.100 -30.058  1.00  0.00     0.190 A 
HETATM    8  N   UNL     1      -7.535   3.169 -29.594  1.00  0.00    -0.149 NA
HETATM    9  N   UNL     1      -8.234   2.417 -30.462  1.00  0.00    -0.279 N 
HETATM   10  H   UNL     1      -9.235   2.324 -30.322  1.00  0.00     0.189 HD
HETATM   11  C   UNL     1      -4.995   1.890 -32.032  1.00  0.00     0.075 C 
ENDROOT
BRANCH  11  12
HETATM   12  C   UNL     1      -4.418   3.145 -32.677  1.00  0.00    -0.045 A 
HETATM   13  C   UNL     1      -3.037   3.383 -32.560  1.00  0.00     0.050 A 
HETATM   14  C   UNL     1      -2.460   4.507 -33.148  1.00  0.00     0.117 A 
HETATM   15  F   UNL     1      -1.144   4.713 -33.016  1.00  0.00    -0.206 F 
HETATM   16  C   UNL     1      -3.226   5.413 -33.868  1.00  0.00     0.042 A 
HETATM   17  C   UNL     1      -4.592   5.189 -34.006  1.00  0.00     0.004 A 
HETATM   18  C   UNL     1      -5.182   4.063 -33.421  1.00  0.00     0.008 A 
ENDBRANCH  11  12
BRANCH   1  19
HETATM   19  C   UNL     1      -4.951  -0.540 -32.429  1.00  0.00     0.267 C 
HETATM   20  O   UNL     1      -5.377  -0.904 -31.340  1.00  0.00    -0.265 OA
BRANCH  19  21
HETATM   21  O   UNL     1      -4.148  -1.270 -33.238  1.00  0.00    -0.316 OA
BRANCH  21  22
HETATM   22  C   UNL     1      -4.353  -2.693 -33.388  1.00  0.00     0.123 C 
HETATM   23  C   UNL     1      -3.312  -3.497 -32.617  1.00  0.00     0.040 C 
HETATM   24  C   UNL     1      -4.481  -3.112 -34.847  1.00  0.00     0.040 C 
ENDBRANCH  21  22
ENDBRANCH  19  21
ENDBRANCH   1  19
BRANCH   2  25
HETATM   25  O   UNL     1      -6.961   1.928 -34.497  1.00  0.00    -0.389 OA
HETATM   26  H   UNL     1      -7.579   1.691 -35.212  1.00  0.00     0.210 HD
ENDBRANCH   2  25
BRANCH   7  27
HETATM   27  O   UNL     1      -5.367   3.793 -29.395  1.00  0.00    -0.343 OA
HETATM   28  H   UNL     1      -4.516   3.711 -29.850  1.00  0.00     0.219 HD
ENDBRANCH   7  27
TORSDOF 6
ENDMDL
MODEL 2
REMARK VINA RESULT:      -7.5      2.608      5.741
REMARK  6 active torsions:
REMARK  status: ('A' for Active; 'I' for Inactive)
REMARK    1  A    between atoms: C_2  and  O_3 
REMARK    2  A    between atoms: O_3  and  C_4 
REMARK    3  A    between atoms: C_4  and  C_5 
REMARK    4  A    between atoms: C_6  and  O_7 
REMARK    5  A    between atoms: C_12  and  O_13 
REMARK    6  A    between atoms: C_17  and  C_18 
ROOT
HETATM    1  C   UNL     1      -4.910   0.329 -31.877  1.00  0.00     0.133 C 
HETATM    2  C   UNL     1      -6.022   0.450 -30.783  1.00  0.00     0.073 C 
HETATM    3  C   UNL     1      -5.442   0.753 -29.393  1.00  0.00     0.047 C 
HETATM    4  C   UNL     1      -7.149   1.473 -31.118  1.00  0.00     0.097 C 
HETATM    5  C   UNL     1      -7.445   1.461 -32.573  1.00  0.00     0.042 A 
HETATM    6  C   UNL     1      -6.692   0.894 -33.581  1.00  0.00     0.030 A 
HETATM    7  C   UNL     1      -7.418   1.202 -34.741  1.00  0.00     0.190 A 
HETATM    8  N   UNL     1      -8.521   1.904 -34.508  1.00  0.00    -0.149 NA
HETATM    9  N   UNL     1      -8.528   2.039 -33.171  1.00  0.00    -0.279 N 
HETATM   10  H   UNL     1      -9.298   2.541 -32.742  1.00  0.00     0.189 HD
HETATM   11  C   UNL     1      -5.403   0.186 -33.344  1.00  0.00     0.075 C 
ENDROOT
BRANCH  11  12
HETATM   12  C   UNL     1      -5.576  -1.263 -33.787  1.00  0.00    -0.045 A 
HETATM   13  C   UNL     1      -4.431  -2.074 -33.889  1.00  0.00     0.050 A 
HETATM   14  C   UNL     1      -4.540  -3.408 -34.272  1.00  0.00     0.117 A 
HETATM   15  F   UNL     1      -3.434  -4.156 -34.367  1.00  0.00    -0.206 F 
HETATM   16  C   UNL     1      -5.775  -3.974 -34.554  1.00  0.00     0.042 A 
HETATM   17  C   UNL     1      -6.922  -3.194 -34.446  1.00  0.00     0.004 A 
HETATM   18  C   UNL     1      -6.824  -1.852 -34.062  1.00  0.00     0.008 A 
ENDBRANCH  11  12
BRANCH   1  19
HETATM   19  C   UNL     1      -3.907   1.466 -31.865  1.00  0.00     0.267 C 
HETATM   20  O   UNL     1      -2.895   1.437 -31.175  1.00  0.00    -0.265 OA
BRANCH  19  21
HETATM   21  O   UNL     1      -4.224   2.443 -32.745  1.00  0.00    -0.316 OA
BRANCH  21  22
HETATM   22  C   UNL     1      -4.099   3.835 -32.374  1.00  0.00     0.123 C 
HETATM   23  C   UNL     1      -5.399   4.598 -32.599  1.00  0.00     0.040 C 
HETATM   24  C   UNL     1      -2.889   4.502 -33.017  1.00  0.00     0.040 C 
ENDBRANCH  21  22
ENDBRANCH  19  21
ENDBRANCH   1  19
BRANCH   2  25
HETATM   25  O   UNL     1      -6.665  -0.837 -30.641  1.00  0.00    -0.389 OA
HETATM   26  H   UNL     1      -7.390  -0.756 -29.997  1.00  0.00     0.210 HD
ENDBRANCH   2  25
BRANCH   7  27
HETATM   27  O   UNL     1      -7.166   0.885 -36.011  1.00  0.00    -0.343 OA
HETATM   28  H   UNL     1      -6.669   0.055 -36.044  1.00  0.00     0.219 HD
ENDBRANCH   7  27
TORSDOF 6
ENDMDL
MODEL 3
REMARK VINA RESULT:      -7.4      2.407      5.649
REMARK  6 active torsions:
REMARK  status: ('A' for Active; 'I' for Inactive)
REMARK    1  A    between atoms: C_2  and  O_3 
REMARK    2  A    between atoms: O_3  and  C_4 
REMARK    3  A    between atoms: C_4  and  C_5 
REMARK    4  A    between atoms: C_6  and  O_7 
REMARK    5  A    between atoms: C_12  and  O_13 
REMARK    6  A    between atoms: C_17  and  C_18 
ROOT
HETATM    1  C   UNL     1      -5.269   1.374 -32.362  1.00  0.00     0.133 C 
HETATM    2  C   UNL     1      -6.072   1.280 -31.023  1.00  0.00     0.073 C 
HETATM    3  C   UNL     1      -5.392   2.047 -29.879  1.00  0.00     0.047 C 
HETATM    4  C   UNL     1      -7.565   1.714 -31.133  1.00  0.00     0.097 C 
HETATM    5  C   UNL     1      -8.128   1.305 -32.445  1.00  0.00     0.042 A 
HETATM    6  C   UNL     1      -7.439   0.877 -33.561  1.00  0.00     0.030 A 
HETATM    7  C   UNL     1      -8.454   0.653 -34.503  1.00  0.00     0.190 A 
HETATM    8  N   UNL     1      -9.673   0.919 -34.046  1.00  0.00    -0.149 NA
HETATM    9  N   UNL     1      -9.453   1.301 -32.776  1.00  0.00    -0.279 N 
HETATM   10  H   UNL     1     -10.252   1.551 -32.204  1.00  0.00     0.189 HD
HETATM   11  C   UNL     1      -5.955   0.769 -33.619  1.00  0.00     0.075 C 
ENDROOT
BRANCH  11  12
HETATM   12  C   UNL     1      -5.600  -0.694 -33.858  1.00  0.00    -0.045 A 
HETATM   13  C   UNL     1      -4.501  -1.238 -33.170  1.00  0.00     0.050 A 
HETATM   14  C   UNL     1      -4.149  -2.575 -33.342  1.00  0.00     0.117 A 
HETATM   15  F   UNL     1      -3.094  -3.066 -32.680  1.00  0.00    -0.206 F 
HETATM   16  C   UNL     1      -4.875  -3.405 -34.184  1.00  0.00     0.042 A 
HETATM   17  C   UNL     1      -5.975  -2.890 -34.864  1.00  0.00     0.004 A 
HETATM   18  C   UNL     1      -6.337  -1.549 -34.698  1.00  0.00     0.008 A 
ENDBRANCH  11  12
BRANCH   1  19
HETATM   19  C   UNL     1      -4.849   2.784 -32.732  1.00  0.00     0.267 C 
HETATM   20  O   UNL     1      -5.664   3.666 -32.970  1.00  0.00    -0.265 OA
BRANCH  19  21
HETATM   21  O   UNL     1      -3.507   2.950 -32.689  1.00  0.00    -0.316 OA
BRANCH  21  22
HETATM   22  C   UNL     1      -2.931   4.276 -32.675  1.00  0.00     0.123 C 
HETATM   23  C   UNL     1      -2.203   4.589 -33.977  1.00  0.00     0.040 C 
HETATM   24  C   UNL     1      -2.084   4.530 -31.433  1.00  0.00     0.040 C 
ENDBRANCH  21  22
ENDBRANCH  19  21
ENDBRANCH   1  19
BRANCH   2  25
HETATM   25  O   UNL     1      -6.077  -0.099 -30.590  1.00  0.00    -0.389 OA
HETATM   26  H   UNL     1      -5.850  -0.132 -29.644  1.00  0.00     0.210 HD
ENDBRANCH   2  25
BRANCH   7  27
HETATM   27  O   UNL     1      -8.368   0.211 -35.758  1.00  0.00    -0.343 OA
HETATM   28  H   UNL     1      -7.444   0.239 -36.046  1.00  0.00     0.219 HD
ENDBRANCH   7  27
TORSDOF 6
ENDMDL
MODEL 4
REMARK VINA RESULT:      -7.3      4.489      6.549
REMARK  6 active torsions:
REMARK  status: ('A' for Active; 'I' for Inactive)
REMARK    1  A    between atoms: C_2  and  O_3 
REMARK    2  A    between atoms: O_3  and  C_4 
REMARK    3  A    between atoms: C_4  and  C_5 
REMARK    4  A    between atoms: C_6  and  O_7 
REMARK    5  A    between atoms: C_12  and  O_13 
REMARK    6  A    between atoms: C_17  and  C_18 
ROOT
HETATM    1  C   UNL     1      -9.005   0.673 -33.328  1.00  0.00     0.133 C 
HETATM    2  C   UNL     1      -8.364   1.262 -32.029  1.00  0.00     0.073 C 
HETATM    3  C   UNL     1      -7.397   0.275 -31.356  1.00  0.00     0.047 C 
HETATM    4  C   UNL     1      -7.660   2.639 -32.222  1.00  0.00     0.097 C 
HETATM    5  C   UNL     1      -8.404   3.469 -33.204  1.00  0.00     0.042 A 
HETATM    6  C   UNL     1      -9.391   3.058 -34.076  1.00  0.00     0.030 A 
HETATM    7  C   UNL     1      -9.715   4.232 -34.773  1.00  0.00     0.190 A 
HETATM    8  N   UNL     1      -9.003   5.288 -34.399  1.00  0.00    -0.149 NA
HETATM    9  N   UNL     1      -8.216   4.803 -33.423  1.00  0.00    -0.279 N 
HETATM   10  H   UNL     1      -7.574   5.439 -32.962  1.00  0.00     0.189 HD
HETATM   11  C   UNL     1      -9.871   1.652 -34.171  1.00  0.00     0.075 C 
ENDROOT
BRANCH  11  12
HETATM   12  C   UNL     1     -11.348   1.633 -33.794  1.00  0.00    -0.045 A 
HETATM   13  C   UNL     1     -12.039   0.409 -33.852  1.00  0.00     0.050 A 
HETATM   14  C   UNL     1     -13.384   0.339 -33.499  1.00  0.00     0.117 A 
HETATM   15  F   UNL     1     -14.020  -0.838 -33.570  1.00  0.00    -0.206 F 
HETATM   16  C   UNL     1     -14.074   1.465 -33.074  1.00  0.00     0.042 A 
HETATM   17  C   UNL     1     -13.406   2.683 -32.997  1.00  0.00     0.004 A 
HETATM   18  C   UNL     1     -12.055   2.765 -33.348  1.00  0.00     0.008 A 
ENDBRANCH  11  12
BRANCH   1  19
HETATM   19  C   UNL     1      -8.005   0.048 -34.281  1.00  0.00     0.267 C 
HETATM   20  O   UNL     1      -7.482   0.683 -35.188  1.00  0.00    -0.265 OA
BRANCH  19  21
HETATM   21  O   UNL     1      -7.718  -1.235 -33.959  1.00  0.00    -0.316 OA
BRANCH  21  22
HETATM   22  C   UNL     1      -6.571  -1.899 -34.536  1.00  0.00     0.123 C 
HETATM   23  C   UNL     1      -6.826  -3.387 -34.745  1.00  0.00     0.040 C 
HETATM   24  C   UNL     1      -5.285  -1.608 -33.773  1.00  0.00     0.040 C 
ENDBRANCH  21  22
ENDBRANCH  19  21
ENDBRANCH   1  19
BRANCH   2  25
HETATM   25  O   UNL     1      -9.413   1.471 -31.056  1.00  0.00    -0.389 OA
HETATM   26  H   UNL     1      -9.926   0.649 -30.967  1.00  0.00     0.210 HD
ENDBRANCH   2  25
BRANCH   7  27
HETATM   27  O   UNL     1     -10.624   4.430 -35.729  1.00  0.00    -0.343 OA
HETATM   28  H   UNL     1     -10.458   5.280 -36.160  1.00  0.00     0.219 HD
ENDBRANCH   7  27
TORSDOF 6
ENDMDL
MODEL 5
REMARK VINA RESULT:      -7.1      2.292      5.323
REMARK  6 active torsions:
REMARK  status: ('A' for Active; 'I' for Inactive)
REMARK    1  A    between atoms: C_2  and  O_3 
REMARK    2  A    between atoms: O_3  and  C_4 
REMARK    3  A    between atoms: C_4  and  C_5 
REMARK    4  A    between atoms: C_6  and  O_7 
REMARK    5  A    between atoms: C_12  and  O_13 
REMARK    6  A    between atoms: C_17  and  C_18 
ROOT
HETATM    1  C   UNL     1      -6.341   2.789 -31.999  1.00  0.00     0.133 C 
HETATM    2  C   UNL     1      -7.173   2.573 -30.692  1.00  0.00     0.073 C 
HETATM    3  C   UNL     1      -6.825   3.599 -29.603  1.00  0.00     0.047 C 
HETATM    4  C   UNL     1      -8.716   2.535 -30.906  1.00  0.00     0.097 C 
HETATM    5  C   UNL     1      -9.044   1.871 -32.193  1.00  0.00     0.042 A 
HETATM    6  C   UNL     1      -8.185   1.575 -33.232  1.00  0.00     0.030 A 
HETATM    7  C   UNL     1      -9.024   0.983 -34.188  1.00  0.00     0.190 A 
HETATM    8  N   UNL     1     -10.295   0.913 -33.811  1.00  0.00    -0.149 NA
HETATM    9  N   UNL     1     -10.284   1.447 -32.577  1.00  0.00    -0.279 N 
HETATM   10  H   UNL     1     -11.159   1.495 -32.065  1.00  0.00     0.189 HD
HETATM   11  C   UNL     1      -6.733   1.907 -33.217  1.00  0.00     0.075 C 
ENDROOT
BRANCH  11  12
HETATM   12  C   UNL     1      -5.953   0.599 -33.295  1.00  0.00    -0.045 A 
HETATM   13  C   UNL     1      -4.594   0.608 -32.931  1.00  0.00     0.050 A 
HETATM   14  C   UNL     1      -3.845  -0.565 -32.968  1.00  0.00     0.117 A 
HETATM   15  F   UNL     1      -2.551  -0.529 -32.623  1.00  0.00    -0.206 F 
HETATM   16  C   UNL     1      -4.416  -1.770 -33.354  1.00  0.00     0.042 A 
HETATM   17  C   UNL     1      -5.762  -1.802 -33.705  1.00  0.00     0.004 A 
HETATM   18  C   UNL     1      -6.524  -0.630 -33.671  1.00  0.00     0.008 A 
ENDBRANCH  11  12
BRANCH   1  19
HETATM   19  C   UNL     1      -6.325   4.224 -32.490  1.00  0.00     0.267 C 
HETATM   20  O   UNL     1      -7.350   4.821 -32.795  1.00  0.00    -0.265 OA
BRANCH  19  21
HETATM   21  O   UNL     1      -5.084   4.763 -32.470  1.00  0.00    -0.316 OA
BRANCH  21  22
HETATM   22  C   UNL     1      -4.071   4.308 -33.396  1.00  0.00     0.123 C 
HETATM   23  C   UNL     1      -2.744   4.041 -32.695  1.00  0.00     0.040 C 
HETATM   24  C   UNL     1      -3.940   5.220 -34.610  1.00  0.00     0.040 C 
ENDBRANCH  21  22
ENDBRANCH  19  21
ENDBRANCH   1  19
BRANCH   2  25
HETATM   25  O   UNL     1      -6.806   1.295 -30.124  1.00  0.00    -0.389 OA
HETATM   26  H   UNL     1      -5.840   1.270 -30.004  1.00  0.00     0.210 HD
ENDBRANCH   2  25
BRANCH   7  27
HETATM   27  O   UNL     1      -8.727   0.485 -35.388  1.00  0.00    -0.343 OA
HETATM   28  H   UNL     1      -8.143  -0.280 -35.284  1.00  0.00     0.219 HD
ENDBRANCH   7  27
TORSDOF 6
ENDMDL
MODEL 6
REMARK VINA RESULT:      -7.1      3.347      5.117
REMARK  6 active torsions:
REMARK  status: ('A' for Active; 'I' for Inactive)
REMARK    1  A    between atoms: C_2  and  O_3 
REMARK    2  A    between atoms: O_3  and  C_4 
REMARK    3  A    between atoms: C_4  and  C_5 
REMARK    4  A    between atoms: C_6  and  O_7 
REMARK    5  A    between atoms: C_12  and  O_13 
REMARK    6  A    between atoms: C_17  and  C_18 
ROOT
HETATM    1  C   UNL     1      -6.832   1.435 -31.746  1.00  0.00     0.133 C 
HETATM    2  C   UNL     1      -6.242   1.836 -30.353  1.00  0.00     0.073 C 
HETATM    3  C   UNL     1      -5.670   0.629 -29.594  1.00  0.00     0.047 C 
HETATM    4  C   UNL     1      -5.181   2.976 -30.404  1.00  0.00     0.097 C 
HETATM    5  C   UNL     1      -5.540   3.971 -31.447  1.00  0.00     0.042 A 
HETATM    6  C   UNL     1      -6.472   3.836 -32.455  1.00  0.00     0.030 A 
HETATM    7  C   UNL     1      -6.378   5.052 -33.148  1.00  0.00     0.190 A 
HETATM    8  N   UNL     1      -5.471   5.883 -32.647  1.00  0.00    -0.149 NA
HETATM    9  N   UNL     1      -4.980   5.208 -31.593  1.00  0.00    -0.279 N 
HETATM   10  H   UNL     1      -4.263   5.652 -31.029  1.00  0.00     0.189 HD
HETATM   11  C   UNL     1      -7.286   2.606 -32.661  1.00  0.00     0.075 C 
ENDROOT
BRANCH  11  12
HETATM   12  C   UNL     1      -8.753   2.981 -32.483  1.00  0.00    -0.045 A 
HETATM   13  C   UNL     1      -9.722   2.255 -33.201  1.00  0.00     0.050 A 
HETATM   14  C   UNL     1     -11.075   2.548 -33.058  1.00  0.00     0.117 A 
HETATM   15  F   UNL     1     -11.976   1.846 -33.757  1.00  0.00    -0.206 F 
HETATM   16  C   UNL     1     -11.506   3.552 -32.202  1.00  0.00     0.042 A 
HETATM   17  C   UNL     1     -10.565   4.273 -31.473  1.00  0.00     0.004 A 
HETATM   18  C   UNL     1      -9.203   3.987 -31.609  1.00  0.00     0.008 A 
ENDBRANCH  11  12
BRANCH   1  19
HETATM   19  C   UNL     1      -5.910   0.565 -32.579  1.00  0.00     0.267 C 
HETATM   20  O   UNL     1      -4.752   0.884 -32.820  1.00  0.00    -0.265 OA
BRANCH  19  21
HETATM   21  O   UNL     1      -6.491  -0.602 -32.941  1.00  0.00    -0.316 OA
BRANCH  21  22
HETATM   22  C   UNL     1      -6.478  -1.034 -34.321  1.00  0.00     0.123 C 
HETATM   23  C   UNL     1      -7.311  -0.115 -35.207  1.00  0.00     0.040 C 
HETATM   24  C   UNL     1      -6.834  -2.507 -34.474  1.00  0.00     0.040 C 
ENDBRANCH  21  22
ENDBRANCH  19  21
ENDBRANCH   1  19
BRANCH   2  25
HETATM   25  O   UNL     1      -7.322   2.316 -29.522  1.00  0.00    -0.389 OA
HETATM   26  H   UNL     1      -7.105   3.214 -29.214  1.00  0.00     0.210 HD
ENDBRANCH   2  25
BRANCH   7  27
HETATM   27  O   UNL     1      -7.063   5.482 -34.208  1.00  0.00    -0.343 OA
HETATM   28  H   UNL     1      -7.561   4.745 -34.590  1.00  0.00     0.219 HD
ENDBRANCH   7  27
TORSDOF 6
ENDMDL
MODEL 7
REMARK VINA RESULT:      -7.0      1.832      2.320
REMARK  6 active torsions:
REMARK  status: ('A' for Active; 'I' for Inactive)
REMARK    1  A    between atoms: C_2  and  O_3 
REMARK    2  A    between atoms: O_3  and  C_4 
REMARK    3  A    between atoms: C_4  and  C_5 
REMARK    4  A    between atoms: C_6  and  O_7 
REMARK    5  A    between atoms: C_12  and  O_13 
REMARK    6  A    between atoms: C_17  and  C_18 
ROOT
HETATM    1  C   UNL     1      -6.457   1.054 -33.063  1.00  0.00     0.133 C 
HETATM    2  C   UNL     1      -7.315   0.755 -34.336  1.00  0.00     0.073 C 
HETATM    3  C   UNL     1      -7.351  -0.742 -34.678  1.00  0.00     0.047 C 
HETATM    4  C   UNL     1      -8.768   1.317 -34.283  1.00  0.00     0.097 C 
HETATM    5  C   UNL     1      -8.792   2.626 -33.580  1.00  0.00     0.042 A 
HETATM    6  C   UNL     1      -7.796   3.184 -32.805  1.00  0.00     0.030 A 
HETATM    7  C   UNL     1      -8.360   4.395 -32.377  1.00  0.00     0.190 A 
HETATM    8  N   UNL     1      -9.595   4.594 -32.820  1.00  0.00    -0.149 NA
HETATM    9  N   UNL     1      -9.836   3.505 -33.571  1.00  0.00    -0.279 N 
HETATM   10  H   UNL     1     -10.735   3.431 -34.036  1.00  0.00     0.189 HD
HETATM   11  C   UNL     1      -6.491   2.517 -32.539  1.00  0.00     0.075 C 
ENDROOT
BRANCH  11  12
HETATM   12  C   UNL     1      -5.389   3.395 -33.120  1.00  0.00    -0.045 A 
HETATM   13  C   UNL     1      -4.111   3.341 -32.535  1.00  0.00     0.050 A 
HETATM   14  C   UNL     1      -3.067   4.111 -33.042  1.00  0.00     0.117 A 
HETATM   15  F   UNL     1      -1.862   4.045 -32.463  1.00  0.00    -0.206 F 
HETATM   16  C   UNL     1      -3.255   4.941 -34.138  1.00  0.00     0.042 A 
HETATM   17  C   UNL     1      -4.508   4.999 -34.740  1.00  0.00     0.004 A 
HETATM   18  C   UNL     1      -5.563   4.230 -34.239  1.00  0.00     0.008 A 
ENDBRANCH  11  12
BRANCH   1  19
HETATM   19  C   UNL     1      -6.778   0.161 -31.879  1.00  0.00     0.267 C 
HETATM   20  O   UNL     1      -7.865   0.191 -31.315  1.00  0.00    -0.265 OA
BRANCH  19  21
HETATM   21  O   UNL     1      -5.770  -0.694 -31.590  1.00  0.00    -0.316 OA
BRANCH  21  22
HETATM   22  C   UNL     1      -4.474  -0.540 -32.210  1.00  0.00     0.123 C 
HETATM   23  C   UNL     1      -4.103  -1.754 -33.053  1.00  0.00     0.040 C 
HETATM   24  C   UNL     1      -3.393  -0.146 -31.210  1.00  0.00     0.040 C 
ENDBRANCH  21  22
ENDBRANCH  19  21
ENDBRANCH   1  19
BRANCH   2  25
HETATM   25  O   UNL     1      -6.676   1.377 -35.473  1.00  0.00    -0.389 OA
HETATM   26  H   UNL     1      -7.121   1.079 -36.286  1.00  0.00     0.210 HD
ENDBRANCH   2  25
BRANCH   7  27
HETATM   27  O   UNL     1      -7.835   5.354 -31.614  1.00  0.00    -0.343 OA
HETATM   28  H   UNL     1      -8.329   6.176 -31.745  1.00  0.00     0.219 HD
ENDBRANCH   7  27
TORSDOF 6
ENDMDL
MODEL 8
REMARK VINA RESULT:      -6.9      2.762      5.407
REMARK  6 active torsions:
REMARK  status: ('A' for Active; 'I' for Inactive)
REMARK    1  A    between atoms: C_2  and  O_3 
REMARK    2  A    between atoms: O_3  and  C_4 
REMARK    3  A    between atoms: C_4  and  C_5 
REMARK    4  A    between atoms: C_6  and  O_7 
REMARK    5  A    between atoms: C_12  and  O_13 
REMARK    6  A    between atoms: C_17  and  C_18 
ROOT
HETATM    1  C   UNL     1      -8.188   2.366 -33.281  1.00  0.00     0.133 C 
HETATM    2  C   UNL     1      -7.169   3.553 -33.295  1.00  0.00     0.073 C 
HETATM    3  C   UNL     1      -7.713   4.779 -34.046  1.00  0.00     0.047 C 
HETATM    4  C   UNL     1      -6.657   3.983 -31.887  1.00  0.00     0.097 C 
HETATM    5  C   UNL     1      -6.504   2.796 -31.007  1.00  0.00     0.042 A 
HETATM    6  C   UNL     1      -6.995   1.524 -31.216  1.00  0.00     0.030 A 
HETATM    7  C   UNL     1      -6.580   0.825 -30.073  1.00  0.00     0.190 A 
HETATM    8  N   UNL     1      -5.900   1.571 -29.209  1.00  0.00    -0.149 NA
HETATM    9  N   UNL     1      -5.850   2.773 -29.809  1.00  0.00    -0.279 N 
HETATM   10  H   UNL     1      -5.360   3.526 -29.337  1.00  0.00     0.189 HD
HETATM   11  C   UNL     1      -7.801   1.139 -32.408  1.00  0.00     0.075 C 
ENDROOT
BRANCH  11  12
HETATM   12  C   UNL     1      -7.026   0.072 -33.172  1.00  0.00    -0.045 A 
HETATM   13  C   UNL     1      -5.620   0.098 -33.121  1.00  0.00     0.050 A 
HETATM   14  C   UNL     1      -4.870  -0.866 -33.787  1.00  0.00     0.117 A 
HETATM   15  F   UNL     1      -3.533  -0.814 -33.727  1.00  0.00    -0.206 F 
HETATM   16  C   UNL     1      -5.483  -1.880 -34.510  1.00  0.00     0.042 A 
HETATM   17  C   UNL     1      -6.872  -1.933 -34.562  1.00  0.00     0.004 A 
HETATM   18  C   UNL     1      -7.636  -0.969 -33.896  1.00  0.00     0.008 A 
ENDBRANCH  11  12
BRANCH   1  19
HETATM   19  C   UNL     1      -9.593   2.764 -32.872  1.00  0.00     0.267 C 
HETATM   20  O   UNL     1      -9.852   3.186 -31.752  1.00  0.00    -0.265 OA
BRANCH  19  21
HETATM   21  O   UNL     1     -10.475   2.669 -33.894  1.00  0.00    -0.316 OA
BRANCH  21  22
HETATM   22  C   UNL     1     -11.650   1.836 -33.777  1.00  0.00     0.123 C 
HETATM   23  C   UNL     1     -11.291   0.402 -33.405  1.00  0.00     0.040 C 
HETATM   24  C   UNL     1     -12.558   1.934 -34.997  1.00  0.00     0.040 C 
ENDBRANCH  21  22
ENDBRANCH  19  21
ENDBRANCH   1  19
BRANCH   2  25
HETATM   25  O   UNL     1      -6.005   3.146 -34.048  1.00  0.00    -0.389 OA
HETATM   26  H   UNL     1      -5.218   3.235 -33.482  1.00  0.00     0.210 HD
ENDBRANCH   2  25
BRANCH   7  27
HETATM   27  O   UNL     1      -6.761  -0.455 -29.746  1.00  0.00    -0.343 OA
HETATM   28  H   UNL     1      -7.339  -0.876 -30.398  1.00  0.00     0.219 HD
ENDBRANCH   7  27
TORSDOF 6
ENDMDL
MODEL 9
REMARK VINA RESULT:      -6.9      1.499      2.044
REMARK  6 active torsions:
REMARK  status: ('A' for Active; 'I' for Inactive)
REMARK    1  A    between atoms: C_2  and  O_3 
REMARK    2  A    between atoms: O_3  and  C_4 
REMARK    3  A    between atoms: C_4  and  C_5 
REMARK    4  A    between atoms: C_6  and  O_7 
REMARK    5  A    between atoms: C_12  and  O_13 
REMARK    6  A    between atoms: C_17  and  C_18 
ROOT
HETATM    1  C   UNL     1      -5.864   1.687 -31.642  1.00  0.00     0.133 C 
HETATM    2  C   UNL     1      -7.407   1.899 -31.784  1.00  0.00     0.073 C 
HETATM    3  C   UNL     1      -8.154   0.582 -32.047  1.00  0.00     0.047 C 
HETATM    4  C   UNL     1      -8.069   2.651 -30.591  1.00  0.00     0.097 C 
HETATM    5  C   UNL     1      -7.154   3.697 -30.065  1.00  0.00     0.042 A 
HETATM    6  C   UNL     1      -5.808   3.848 -30.329  1.00  0.00     0.030 A 
HETATM    7  C   UNL     1      -5.451   4.966 -29.560  1.00  0.00     0.190 A 
HETATM    8  N   UNL     1      -6.459   5.478 -28.864  1.00  0.00    -0.149 NA
HETATM    9  N   UNL     1      -7.499   4.695 -29.200  1.00  0.00    -0.279 N 
HETATM   10  H   UNL     1      -8.407   4.900 -28.795  1.00  0.00     0.189 HD
HETATM   11  C   UNL     1      -5.036   2.931 -31.213  1.00  0.00     0.075 C 
ENDROOT
BRANCH  11  12
HETATM   12  C   UNL     1      -4.513   3.747 -32.390  1.00  0.00    -0.045 A 
HETATM   13  C   UNL     1      -3.122   3.898 -32.535  1.00  0.00     0.050 A 
HETATM   14  C   UNL     1      -2.595   4.619 -33.604  1.00  0.00     0.117 A 
HETATM   15  F   UNL     1      -1.268   4.753 -33.715  1.00  0.00    -0.206 F 
HETATM   16  C   UNL     1      -3.423   5.197 -34.556  1.00  0.00     0.042 A 
HETATM   17  C   UNL     1      -4.801   5.048 -34.439  1.00  0.00     0.004 A 
HETATM   18  C   UNL     1      -5.341   4.326 -33.369  1.00  0.00     0.008 A 
ENDBRANCH  11  12
BRANCH   1  19
HETATM   19  C   UNL     1      -5.479   0.564 -30.699  1.00  0.00     0.267 C 
HETATM   20  O   UNL     1      -5.682   0.626 -29.492  1.00  0.00    -0.265 OA
BRANCH  19  21
HETATM   21  O   UNL     1      -4.973  -0.508 -31.352  1.00  0.00    -0.316 OA
BRANCH  21  22
HETATM   22  C   UNL     1      -4.632  -0.421 -32.754  1.00  0.00     0.123 C 
HETATM   23  C   UNL     1      -5.320  -1.508 -33.571  1.00  0.00     0.040 C 
HETATM   24  C   UNL     1      -3.127  -0.355 -32.983  1.00  0.00     0.040 C 
ENDBRANCH  21  22
ENDBRANCH  19  21
ENDBRANCH   1  19
BRANCH   2  25
HETATM   25  O   UNL     1      -7.651   2.702 -32.961  1.00  0.00    -0.389 OA
HETATM   26  H   UNL     1      -8.560   3.048 -32.922  1.00  0.00     0.210 HD
ENDBRANCH   2  25
BRANCH   7  27
HETATM   27  O   UNL     1      -4.271   5.576 -29.443  1.00  0.00    -0.343 OA
HETATM   28  H   UNL     1      -3.563   4.917 -29.477  1.00  0.00     0.219 HD
ENDBRANCH   7  27
TORSDOF 6
ENDMDL
MODEL 10
REMARK VINA RESULT:      -6.8     16.017     17.761
REMARK  6 active torsions:
REMARK  status: ('A' for Active; 'I' for Inactive)
REMARK    1  A    between atoms: C_2  and  O_3 
REMARK    2  A    between atoms: O_3  and  C_4 
REMARK    3  A    between atoms: C_4  and  C_5 
REMARK    4  A    between atoms: C_6  and  O_7 
REMARK    5  A    between atoms: C_12  and  O_13 
REMARK    6  A    between atoms: C_17  and  C_18 
ROOT
HETATM    1  C   UNL     1      -4.132 -13.965 -38.888  1.00  0.00     0.133 C 
HETATM    2  C   UNL     1      -4.699 -14.900 -37.770  1.00  0.00     0.073 C 
HETATM    3  C   UNL     1      -3.632 -15.280 -36.731  1.00  0.00     0.047 C 
HETATM    4  C   UNL     1      -5.965 -14.350 -37.047  1.00  0.00     0.097 C 
HETATM    5  C   UNL     1      -6.832 -13.617 -38.005  1.00  0.00     0.042 A 
HETATM    6  C   UNL     1      -6.507 -13.186 -39.274  1.00  0.00     0.030 A 
HETATM    7  C   UNL     1      -7.675 -12.541 -39.707  1.00  0.00     0.190 A 
HETATM    8  N   UNL     1      -8.651 -12.547 -38.806  1.00  0.00    -0.149 NA
HETATM    9  N   UNL     1      -8.120 -13.226 -37.775  1.00  0.00    -0.279 N 
HETATM   10  H   UNL     1      -8.692 -13.376 -36.951  1.00  0.00     0.189 HD
HETATM   11  C   UNL     1      -5.168 -13.391 -39.895  1.00  0.00     0.075 C 
ENDROOT
BRANCH  11  12
HETATM   12  C   UNL     1      -5.355 -14.260 -41.134  1.00  0.00    -0.045 A 
HETATM   13  C   UNL     1      -4.617 -13.944 -42.290  1.00  0.00     0.050 A 
HETATM   14  C   UNL     1      -4.740 -14.719 -43.440  1.00  0.00     0.117 A 
HETATM   15  F   UNL     1      -4.031 -14.393 -44.529  1.00  0.00    -0.206 F 
HETATM   16  C   UNL     1      -5.580 -15.822 -43.476  1.00  0.00     0.042 A 
HETATM   17  C   UNL     1      -6.308 -16.159 -42.340  1.00  0.00     0.004 A 
HETATM   18  C   UNL     1      -6.193 -15.389 -41.178  1.00  0.00     0.008 A 
ENDBRANCH  11  12
BRANCH   1  19
HETATM   19  C   UNL     1      -3.339 -12.783 -38.361  1.00  0.00     0.267 C 
HETATM   20  O   UNL     1      -3.771 -12.046 -37.484  1.00  0.00    -0.265 OA
BRANCH  19  21
HETATM   21  O   UNL     1      -2.106 -12.703 -38.912  1.00  0.00    -0.316 OA
BRANCH  21  22
HETATM   22  C   UNL     1      -1.369 -13.903 -39.244  1.00  0.00     0.123 C 
HETATM   23  C   UNL     1      -0.324 -14.233 -38.185  1.00  0.00     0.040 C 
HETATM   24  C   UNL     1      -0.806 -13.867 -40.659  1.00  0.00     0.040 C 
ENDBRANCH  21  22
ENDBRANCH  19  21
ENDBRANCH   1  19
BRANCH   2  25
HETATM   25  O   UNL     1      -5.086 -16.154 -38.376  1.00  0.00    -0.389 OA
HETATM   26  H   UNL     1      -5.208 -16.015 -39.332  1.00  0.00     0.210 HD
ENDBRANCH   2  25
BRANCH   7  27
HETATM   27  O   UNL     1      -7.939 -11.948 -40.872  1.00  0.00    -0.343 OA
HETATM   28  H   UNL     1      -7.943 -10.988 -40.750  1.00  0.00     0.219 HD
ENDBRANCH   7  27
TORSDOF 6
ENDMDL
