MODEL 1
REMARK VINA RESULT:      -9.6      0.000      0.000
REMARK  8 active torsions:
REMARK  status: ('A' for Active; 'I' for Inactive)
REMARK    1  A    between atoms: C_2  and  O_3 
REMARK    2  A    between atoms: O_3  and  C_4 
REMARK    3  A    between atoms: C_5  and  C_6 
REMARK    4  A    between atoms: C_6  and  N_7 
REMARK    5  A    between atoms: C_23  and  C_24 
REMARK    6  A    between atoms: N_25  and  N_26 
REMARK       I    between atoms: N_26  and  C_27 
REMARK    7  A    between atoms: C_27  and  C_28 
REMARK    8  A    between atoms: C_31  and  N_32 
REMARK       I    between atoms: N_32  and  C_33 
ROOT
HETATM    1  C   UNL     1      -5.513  -1.107 -33.805  1.00  0.00     0.076 A 
HETATM    2  C   UNL     1      -5.883   0.250 -33.792  1.00  0.00     0.002 A 
HETATM    3  C   UNL     1      -5.137   1.162 -33.032  1.00  0.00     0.024 A 
HETATM    4  C   UNL     1      -4.027   0.735 -32.299  1.00  0.00    -0.016 A 
HETATM    5  C   UNL     1      -3.674  -0.612 -32.294  1.00  0.00     0.016 A 
HETATM    6  C   UNL     1      -4.417  -1.532 -33.045  1.00  0.00     0.038 A 
ENDROOT
BRANCH   4   7
HETATM    7  C   UNL     1      -3.204   1.723 -31.567  1.00  0.00     0.150 C 
HETATM    8  N   UNL     1      -3.262   2.972 -31.896  1.00  0.00    -0.184 NA
BRANCH   8   9
HETATM    9  N   UNL     1      -2.509   3.891 -31.221  1.00  0.00    -0.243 N 
HETATM   10  C   UNL     1      -1.605   4.792 -31.767  1.00  0.00     0.271 C 
HETATM   11  O   UNL     1      -1.347   4.927 -32.959  1.00  0.00    -0.266 OA
HETATM   12  H   UNL     1      -2.431   3.682 -30.230  1.00  0.00     0.192 HD
BRANCH  10  13
HETATM   13  C   UNL     1      -0.867   5.617 -30.766  1.00  0.00     0.033 A 
HETATM   14  C   UNL     1      -1.135   6.979 -30.585  1.00  0.00     0.019 A 
HETATM   15  C   UNL     1      -0.435   7.715 -29.621  1.00  0.00     0.030 A 
HETATM   16  C   UNL     1       0.547   7.107 -28.836  1.00  0.00     0.034 A 
HETATM   17  C   UNL     1       0.832   5.751 -29.040  1.00  0.00     0.030 A 
HETATM   18  C   UNL     1       0.134   5.010 -30.000  1.00  0.00     0.019 A 
BRANCH  16  19
HETATM   19  N   UNL     1       1.288   7.782 -27.844  1.00  0.00    -0.328 N 
HETATM   20  C   UNL     1       1.121   7.705 -26.472  1.00  0.00     0.218 C 
HETATM   21  C   UNL     1       2.100   8.577 -25.727  1.00  0.00     0.117 C 
HETATM   22  O   UNL     1       0.316   7.005 -25.868  1.00  0.00    -0.274 OA
HETATM   23  H   UNL     1       2.042   8.372 -28.175  1.00  0.00     0.169 HD
ENDBRANCH  16  19
ENDBRANCH  10  13
ENDBRANCH   8   9
ENDBRANCH   4   7
BRANCH   2  24
HETATM   24  C   UNL     1      -7.051   0.754 -34.597  1.00  0.00     0.276 C 
BRANCH  24  25
HETATM   25  N   UNL     1      -8.393   0.207 -34.145  1.00  0.00    -0.066 N 
HETATM   26  H   UNL     1      -8.310  -0.767 -34.480  1.00  0.00     0.280 HD
HETATM   27  C   UNL     1      -8.534   0.106 -32.641  1.00  0.00     0.246 C 
HETATM   28  C   UNL     1      -9.204   1.342 -32.006  1.00  0.00     0.062 C 
HETATM   29  C   UNL     1     -10.556   1.583 -32.667  1.00  0.00     0.020 C 
HETATM   30  C   UNL     1      -8.334   2.581 -32.101  1.00  0.00     0.020 A 
HETATM   31  C   UNL     1     -10.295   1.918 -34.128  1.00  0.00     0.031 C 
HETATM   32  C   UNL     1      -9.511   3.228 -34.214  1.00  0.00     0.138 C 
HETATM   33  C   UNL     1      -9.614   0.748 -34.847  1.00  0.00     0.241 C 
HETATM   34  N   UNL     1      -8.463   3.419 -33.213  1.00  0.00    -0.317 N 
HETATM   35  C   UNL     1      -7.677   4.570 -33.376  1.00  0.00     0.247 A 
HETATM   36  O   UNL     1      -7.755   5.319 -34.346  1.00  0.00    -0.268 OA
HETATM   37  C   UNL     1      -6.687   4.851 -32.309  1.00  0.00     0.074 A 
HETATM   38  C   UNL     1      -6.593   4.037 -31.254  1.00  0.00     0.007 A 
HETATM   39  C   UNL     1      -7.439   2.876 -31.143  1.00  0.00     0.026 A 
ENDBRANCH  24  25
ENDBRANCH   2  24
BRANCH   1  40
HETATM   40  O   UNL     1      -6.266  -1.907 -34.628  1.00  0.00    -0.351 OA
BRANCH  40  41
HETATM   41  C   UNL     1      -5.677  -3.150 -35.029  1.00  0.00     0.171 C 
HETATM   42  C   UNL     1      -6.753  -4.217 -34.951  1.00  0.00     0.034 C 
ENDBRANCH  40  41
ENDBRANCH   1  40
TORSDOF 8
ENDMDL
MODEL 2
REMARK VINA RESULT:      -8.9      3.023     10.230
REMARK  8 active torsions:
REMARK  status: ('A' for Active; 'I' for Inactive)
REMARK    1  A    between atoms: C_2  and  O_3 
REMARK    2  A    between atoms: O_3  and  C_4 
REMARK    3  A    between atoms: C_5  and  C_6 
REMARK    4  A    between atoms: C_6  and  N_7 
REMARK    5  A    between atoms: C_23  and  C_24 
REMARK    6  A    between atoms: N_25  and  N_26 
REMARK       I    between atoms: N_26  and  C_27 
REMARK    7  A    between atoms: C_27  and  C_28 
REMARK    8  A    between atoms: C_31  and  N_32 
REMARK       I    between atoms: N_32  and  C_33 
ROOT
HETATM    1  C   UNL     1       0.050   7.221 -29.797  1.00  0.00     0.076 A 
HETATM    2  C   UNL     1      -1.344   7.150 -29.630  1.00  0.00     0.002 A 
HETATM    3  C   UNL     1      -2.081   6.210 -30.364  1.00  0.00     0.024 A 
HETATM    4  C   UNL     1      -1.440   5.340 -31.249  1.00  0.00    -0.016 A 
HETATM    5  C   UNL     1      -0.062   5.425 -31.432  1.00  0.00     0.016 A 
HETATM    6  C   UNL     1       0.682   6.366 -30.707  1.00  0.00     0.038 A 
ENDROOT
BRANCH   4   7
HETATM    7  C   UNL     1      -2.221   4.302 -31.957  1.00  0.00     0.150 C 
HETATM    8  N   UNL     1      -2.750   3.331 -31.285  1.00  0.00    -0.184 NA
BRANCH   8   9
HETATM    9  N   UNL     1      -3.476   2.371 -31.930  1.00  0.00    -0.243 N 
HETATM   10  C   UNL     1      -4.842   2.385 -32.182  1.00  0.00     0.271 C 
HETATM   11  O   UNL     1      -5.624   3.281 -31.881  1.00  0.00    -0.266 OA
HETATM   12  H   UNL     1      -2.995   1.477 -31.971  1.00  0.00     0.192 HD
BRANCH  10  13
HETATM   13  C   UNL     1      -5.367   1.151 -32.836  1.00  0.00     0.033 A 
HETATM   14  C   UNL     1      -6.166   1.204 -33.985  1.00  0.00     0.019 A 
HETATM   15  C   UNL     1      -6.623   0.023 -34.582  1.00  0.00     0.030 A 
HETATM   16  C   UNL     1      -6.302  -1.222 -34.037  1.00  0.00     0.034 A 
HETATM   17  C   UNL     1      -5.526  -1.269 -32.872  1.00  0.00     0.030 A 
HETATM   18  C   UNL     1      -5.064  -0.092 -32.272  1.00  0.00     0.019 A 
BRANCH  16  19
HETATM   19  N   UNL     1      -6.721  -2.451 -34.585  1.00  0.00    -0.328 N 
HETATM   20  C   UNL     1      -5.922  -3.501 -35.004  1.00  0.00     0.218 C 
HETATM   21  C   UNL     1      -6.729  -4.655 -35.542  1.00  0.00     0.117 C 
HETATM   22  O   UNL     1      -4.699  -3.565 -34.940  1.00  0.00    -0.274 OA
HETATM   23  H   UNL     1      -7.722  -2.587 -34.660  1.00  0.00     0.169 HD
ENDBRANCH  16  19
ENDBRANCH  10  13
ENDBRANCH   8   9
ENDBRANCH   4   7
BRANCH   2  24
HETATM   24  C   UNL     1      -2.066   8.045 -28.659  1.00  0.00     0.276 C 
BRANCH  24  25
HETATM   25  N   UNL     1      -2.075   9.510 -29.060  1.00  0.00    -0.066 N 
HETATM   26  H   UNL     1      -1.059   9.698 -29.063  1.00  0.00     0.280 HD
HETATM   27  C   UNL     1      -2.535   9.748 -30.482  1.00  0.00     0.246 C 
HETATM   28  C   UNL     1      -4.042  10.058 -30.593  1.00  0.00     0.062 C 
HETATM   29  C   UNL     1      -4.384  11.246 -29.701  1.00  0.00     0.020 C 
HETATM   30  C   UNL     1      -4.903   8.860 -30.240  1.00  0.00     0.020 A 
HETATM   31  C   UNL     1      -4.119  10.825 -28.263  1.00  0.00     0.031 C 
HETATM   32  C   UNL     1      -5.069   9.689 -27.884  1.00  0.00     0.138 C 
HETATM   33  C   UNL     1      -2.640  10.483 -28.054  1.00  0.00     0.241 C 
HETATM   34  N   UNL     1      -5.313   8.682 -28.916  1.00  0.00    -0.317 N 
HETATM   35  C   UNL     1      -6.093   7.586 -28.514  1.00  0.00     0.247 A 
HETATM   36  O   UNL     1      -6.457   7.393 -27.358  1.00  0.00    -0.268 OA
HETATM   37  C   UNL     1      -6.456   6.612 -29.571  1.00  0.00     0.074 A 
HETATM   38  C   UNL     1      -6.057   6.813 -30.830  1.00  0.00     0.007 A 
HETATM   39  C   UNL     1      -5.266   7.965 -31.177  1.00  0.00     0.026 A 
ENDBRANCH  24  25
ENDBRANCH   2  24
BRANCH   1  40
HETATM   40  O   UNL     1       0.687   8.128 -28.987  1.00  0.00    -0.351 OA
BRANCH  40  41
HETATM   41  C   UNL     1       1.212   7.628 -27.751  1.00  0.00     0.171 C 
HETATM   42  C   UNL     1       1.688   8.817 -26.937  1.00  0.00     0.034 C 
ENDBRANCH  40  41
ENDBRANCH   1  40
TORSDOF 8
ENDMDL
MODEL 3
REMARK VINA RESULT:      -8.7      2.040      4.883
REMARK  8 active torsions:
REMARK  status: ('A' for Active; 'I' for Inactive)
REMARK    1  A    between atoms: C_2  and  O_3 
REMARK    2  A    between atoms: O_3  and  C_4 
REMARK    3  A    between atoms: C_5  and  C_6 
REMARK    4  A    between atoms: C_6  and  N_7 
REMARK    5  A    between atoms: C_23  and  C_24 
REMARK    6  A    between atoms: N_25  and  N_26 
REMARK       I    between atoms: N_26  and  C_27 
REMARK    7  A    between atoms: C_27  and  C_28 
REMARK    8  A    between atoms: C_31  and  N_32 
REMARK       I    between atoms: N_32  and  C_33 
ROOT
HETATM    1  C   UNL     1      -7.188   5.155 -33.421  1.00  0.00     0.076 A 
HETATM    2  C   UNL     1      -6.297   4.126 -33.066  1.00  0.00     0.002 A 
HETATM    3  C   UNL     1      -5.241   4.401 -32.186  1.00  0.00     0.024 A 
HETATM    4  C   UNL     1      -5.074   5.681 -31.654  1.00  0.00    -0.016 A 
HETATM    5  C   UNL     1      -5.943   6.706 -32.022  1.00  0.00     0.016 A 
HETATM    6  C   UNL     1      -6.998   6.442 -32.906  1.00  0.00     0.038 A 
ENDROOT
BRANCH   4   7
HETATM    7  C   UNL     1      -4.003   5.935 -30.666  1.00  0.00     0.150 C 
HETATM    8  N   UNL     1      -3.227   6.959 -30.814  1.00  0.00    -0.184 NA
BRANCH   8   9
HETATM    9  N   UNL     1      -2.238   7.203 -29.904  1.00  0.00    -0.243 N 
HETATM   10  C   UNL     1      -1.004   6.570 -29.821  1.00  0.00     0.271 C 
HETATM   11  O   UNL     1      -0.589   5.694 -30.572  1.00  0.00    -0.266 OA
HETATM   12  H   UNL     1      -2.575   7.695 -29.081  1.00  0.00     0.192 HD
BRANCH  10  13
HETATM   13  C   UNL     1      -0.164   6.994 -28.664  1.00  0.00     0.033 A 
HETATM   14  C   UNL     1       0.770   8.032 -28.767  1.00  0.00     0.019 A 
HETATM   15  C   UNL     1       1.527   8.416 -27.653  1.00  0.00     0.030 A 
HETATM   16  C   UNL     1       1.372   7.763 -26.428  1.00  0.00     0.034 A 
HETATM   17  C   UNL     1       0.456   6.707 -26.336  1.00  0.00     0.030 A 
HETATM   18  C   UNL     1      -0.305   6.322 -27.446  1.00  0.00     0.019 A 
BRANCH  16  19
HETATM   19  N   UNL     1       2.093   8.098 -25.264  1.00  0.00    -0.328 N 
HETATM   20  C   UNL     1       1.848   9.147 -24.395  1.00  0.00     0.218 C 
HETATM   21  C   UNL     1       2.838   9.191 -23.258  1.00  0.00     0.117 C 
HETATM   22  O   UNL     1       0.933   9.959 -24.463  1.00  0.00    -0.274 OA
HETATM   23  H   UNL     1       2.864   7.485 -25.027  1.00  0.00     0.169 HD
ENDBRANCH  16  19
ENDBRANCH  10  13
ENDBRANCH   8   9
ENDBRANCH   4   7
BRANCH   2  24
HETATM   24  C   UNL     1      -6.465   2.725 -33.591  1.00  0.00     0.276 C 
BRANCH  24  25
HETATM   25  N   UNL     1      -7.892   2.210 -33.528  1.00  0.00    -0.066 N 
HETATM   26  H   UNL     1      -8.387   3.004 -33.964  1.00  0.00     0.280 HD
HETATM   27  C   UNL     1      -8.150   1.025 -34.434  1.00  0.00     0.246 C 
HETATM   28  C   UNL     1      -7.985  -0.335 -33.724  1.00  0.00     0.062 C 
HETATM   29  C   UNL     1      -8.886  -0.378 -32.494  1.00  0.00     0.020 C 
HETATM   30  C   UNL     1      -6.544  -0.613 -33.340  1.00  0.00     0.020 A 
HETATM   31  C   UNL     1      -8.393   0.691 -31.531  1.00  0.00     0.031 C 
HETATM   32  C   UNL     1      -6.979   0.341 -31.066  1.00  0.00     0.138 C 
HETATM   33  C   UNL     1      -8.506   2.086 -32.155  1.00  0.00     0.241 C 
HETATM   34  N   UNL     1      -6.084  -0.207 -32.085  1.00  0.00    -0.317 N 
HETATM   35  C   UNL     1      -4.758  -0.413 -31.671  1.00  0.00     0.247 A 
HETATM   36  O   UNL     1      -4.318  -0.056 -30.582  1.00  0.00    -0.268 OA
HETATM   37  C   UNL     1      -3.859  -1.078 -32.644  1.00  0.00     0.074 A 
HETATM   38  C   UNL     1      -4.330  -1.463 -33.834  1.00  0.00     0.007 A 
HETATM   39  C   UNL     1      -5.706  -1.230 -34.191  1.00  0.00     0.026 A 
ENDBRANCH  24  25
ENDBRANCH   2  24
BRANCH   1  40
HETATM   40  O   UNL     1      -8.224   4.771 -34.236  1.00  0.00    -0.351 OA
BRANCH  40  41
HETATM   41  C   UNL     1      -9.498   5.379 -33.984  1.00  0.00     0.171 C 
HETATM   42  C   UNL     1     -10.100   5.760 -35.324  1.00  0.00     0.034 C 
ENDBRANCH  40  41
ENDBRANCH   1  40
TORSDOF 8
ENDMDL
MODEL 4
REMARK VINA RESULT:      -8.7      2.256      4.792
REMARK  8 active torsions:
REMARK  status: ('A' for Active; 'I' for Inactive)
REMARK    1  A    between atoms: C_2  and  O_3 
REMARK    2  A    between atoms: O_3  and  C_4 
REMARK    3  A    between atoms: C_5  and  C_6 
REMARK    4  A    between atoms: C_6  and  N_7 
REMARK    5  A    between atoms: C_23  and  C_24 
REMARK    6  A    between atoms: N_25  and  N_26 
REMARK       I    between atoms: N_26  and  C_27 
REMARK    7  A    between atoms: C_27  and  C_28 
REMARK    8  A    between atoms: C_31  and  N_32 
REMARK       I    between atoms: N_32  and  C_33 
ROOT
HETATM    1  C   UNL     1      -9.250   3.887 -30.589  1.00  0.00     0.076 A 
HETATM    2  C   UNL     1      -8.133   3.034 -30.619  1.00  0.00     0.002 A 
HETATM    3  C   UNL     1      -6.913   3.474 -30.084  1.00  0.00     0.024 A 
HETATM    4  C   UNL     1      -6.804   4.745 -29.515  1.00  0.00    -0.016 A 
HETATM    5  C   UNL     1      -7.905   5.599 -29.506  1.00  0.00     0.016 A 
HETATM    6  C   UNL     1      -9.126   5.171 -30.044  1.00  0.00     0.038 A 
ENDROOT
BRANCH   4   7
HETATM    7  C   UNL     1      -5.533   5.163 -28.885  1.00  0.00     0.150 C 
HETATM    8  N   UNL     1      -4.744   5.971 -29.515  1.00  0.00    -0.184 NA
BRANCH   8   9
HETATM    9  N   UNL     1      -3.570   6.366 -28.938  1.00  0.00    -0.243 N 
HETATM   10  C   UNL     1      -2.451   6.875 -29.584  1.00  0.00     0.271 C 
HETATM   11  O   UNL     1      -2.340   7.075 -30.789  1.00  0.00    -0.266 OA
HETATM   12  H   UNL     1      -3.448   5.990 -28.002  1.00  0.00     0.192 HD
BRANCH  10  13
HETATM   13  C   UNL     1      -1.285   7.141 -28.693  1.00  0.00     0.033 A 
HETATM   14  C   UNL     1      -0.092   7.693 -29.176  1.00  0.00     0.019 A 
HETATM   15  C   UNL     1       0.973   7.946 -28.304  1.00  0.00     0.030 A 
HETATM   16  C   UNL     1       0.869   7.643 -26.945  1.00  0.00     0.034 A 
HETATM   17  C   UNL     1      -0.315   7.066 -26.471  1.00  0.00     0.030 A 
HETATM   18  C   UNL     1      -1.385   6.813 -27.337  1.00  0.00     0.019 A 
BRANCH  16  19
HETATM   19  N   UNL     1       1.897   7.876 -26.008  1.00  0.00    -0.328 N 
HETATM   20  C   UNL     1       2.079   9.000 -25.222  1.00  0.00     0.218 C 
HETATM   21  C   UNL     1       3.297   8.889 -24.339  1.00  0.00     0.117 C 
HETATM   22  O   UNL     1       1.356   9.988 -25.173  1.00  0.00    -0.274 OA
HETATM   23  H   UNL     1       2.563   7.123 -25.883  1.00  0.00     0.169 HD
ENDBRANCH  16  19
ENDBRANCH  10  13
ENDBRANCH   8   9
ENDBRANCH   4   7
BRANCH   2  24
HETATM   24  C   UNL     1      -8.220   1.645 -31.190  1.00  0.00     0.276 C 
BRANCH  24  25
HETATM   25  N   UNL     1      -8.621   1.604 -32.655  1.00  0.00    -0.066 N 
HETATM   26  H   UNL     1      -9.613   1.880 -32.574  1.00  0.00     0.280 HD
HETATM   27  C   UNL     1      -7.967   2.681 -33.494  1.00  0.00     0.246 C 
HETATM   28  C   UNL     1      -6.669   2.213 -34.185  1.00  0.00     0.062 C 
HETATM   29  C   UNL     1      -6.957   0.969 -35.018  1.00  0.00     0.020 C 
HETATM   30  C   UNL     1      -5.553   1.946 -33.193  1.00  0.00     0.020 A 
HETATM   31  C   UNL     1      -7.374  -0.135 -34.057  1.00  0.00     0.031 C 
HETATM   32  C   UNL     1      -6.202  -0.471 -33.133  1.00  0.00     0.138 C 
HETATM   33  C   UNL     1      -8.656   0.244 -33.308  1.00  0.00     0.241 C 
HETATM   34  N   UNL     1      -5.411   0.662 -32.658  1.00  0.00    -0.317 N 
HETATM   35  C   UNL     1      -4.414   0.349 -31.721  1.00  0.00     0.247 A 
HETATM   36  O   UNL     1      -4.271  -0.763 -31.222  1.00  0.00    -0.268 OA
HETATM   37  C   UNL     1      -3.518   1.458 -31.313  1.00  0.00     0.074 A 
HETATM   38  C   UNL     1      -3.674   2.673 -31.848  1.00  0.00     0.007 A 
HETATM   39  C   UNL     1      -4.712   2.924 -32.815  1.00  0.00     0.026 A 
ENDBRANCH  24  25
ENDBRANCH   2  24
BRANCH   1  40
HETATM   40  O   UNL     1     -10.411   3.342 -31.078  1.00  0.00    -0.351 OA
BRANCH  40  41
HETATM   41  C   UNL     1     -11.255   4.211 -31.845  1.00  0.00     0.171 C 
HETATM   42  C   UNL     1     -11.691   3.453 -33.086  1.00  0.00     0.034 C 
ENDBRANCH  40  41
ENDBRANCH   1  40
TORSDOF 8
ENDMDL
MODEL 5
REMARK VINA RESULT:      -8.5      3.304     10.195
REMARK  8 active torsions:
REMARK  status: ('A' for Active; 'I' for Inactive)
REMARK    1  A    between atoms: C_2  and  O_3 
REMARK    2  A    between atoms: O_3  and  C_4 
REMARK    3  A    between atoms: C_5  and  C_6 
REMARK    4  A    between atoms: C_6  and  N_7 
REMARK    5  A    between atoms: C_23  and  C_24 
REMARK    6  A    between atoms: N_25  and  N_26 
REMARK       I    between atoms: N_26  and  C_27 
REMARK    7  A    between atoms: C_27  and  C_28 
REMARK    8  A    between atoms: C_31  and  N_32 
REMARK       I    between atoms: N_32  and  C_33 
ROOT
HETATM    1  C   UNL     1      -0.349   7.491 -29.518  1.00  0.00     0.076 A 
HETATM    2  C   UNL     1      -1.747   7.471 -29.667  1.00  0.00     0.002 A 
HETATM    3  C   UNL     1      -2.348   6.444 -30.409  1.00  0.00     0.024 A 
HETATM    4  C   UNL     1      -1.572   5.439 -30.990  1.00  0.00    -0.016 A 
HETATM    5  C   UNL     1      -0.185   5.471 -30.862  1.00  0.00     0.016 A 
HETATM    6  C   UNL     1       0.425   6.496 -30.127  1.00  0.00     0.038 A 
ENDROOT
BRANCH   4   7
HETATM    7  C   UNL     1      -2.227   4.320 -31.702  1.00  0.00     0.150 C 
HETATM    8  N   UNL     1      -3.334   3.833 -31.243  1.00  0.00    -0.184 NA
BRANCH   8   9
HETATM    9  N   UNL     1      -3.948   2.802 -31.898  1.00  0.00    -0.243 N 
HETATM   10  C   UNL     1      -5.181   2.835 -32.535  1.00  0.00     0.271 C 
HETATM   11  O   UNL     1      -5.920   3.810 -32.633  1.00  0.00    -0.266 OA
HETATM   12  H   UNL     1      -3.569   1.895 -31.643  1.00  0.00     0.192 HD
BRANCH  10  13
HETATM   13  C   UNL     1      -5.629   1.525 -33.093  1.00  0.00     0.033 A 
HETATM   14  C   UNL     1      -6.386   1.439 -34.267  1.00  0.00     0.019 A 
HETATM   15  C   UNL     1      -6.769   0.190 -34.770  1.00  0.00     0.030 A 
HETATM   16  C   UNL     1      -6.415  -0.986 -34.104  1.00  0.00     0.034 A 
HETATM   17  C   UNL     1      -5.681  -0.893 -32.915  1.00  0.00     0.030 A 
HETATM   18  C   UNL     1      -5.293   0.352 -32.409  1.00  0.00     0.019 A 
BRANCH  16  19
HETATM   19  N   UNL     1      -6.760  -2.277 -34.553  1.00  0.00    -0.328 N 
HETATM   20  C   UNL     1      -5.902  -3.281 -34.967  1.00  0.00     0.218 C 
HETATM   21  C   UNL     1      -6.639  -4.528 -35.383  1.00  0.00     0.117 C 
HETATM   22  O   UNL     1      -4.677  -3.239 -34.985  1.00  0.00    -0.274 OA
HETATM   23  H   UNL     1      -7.748  -2.499 -34.550  1.00  0.00     0.169 HD
ENDBRANCH  16  19
ENDBRANCH  10  13
ENDBRANCH   8   9
ENDBRANCH   4   7
BRANCH   2  24
HETATM   24  C   UNL     1      -2.621   8.516 -29.027  1.00  0.00     0.276 C 
BRANCH  24  25
HETATM   25  N   UNL     1      -2.441   8.633 -27.523  1.00  0.00    -0.066 N 
HETATM   26  H   UNL     1      -1.440   8.883 -27.483  1.00  0.00     0.280 HD
HETATM   27  C   UNL     1      -3.175   9.808 -26.913  1.00  0.00     0.246 C 
HETATM   28  C   UNL     1      -4.576   9.443 -26.378  1.00  0.00     0.062 C 
HETATM   29  C   UNL     1      -4.455   8.295 -25.382  1.00  0.00     0.020 C 
HETATM   30  C   UNL     1      -5.542   9.084 -27.491  1.00  0.00     0.020 A 
HETATM   31  C   UNL     1      -3.938   7.084 -26.143  1.00  0.00     0.031 C 
HETATM   32  C   UNL     1      -4.971   6.665 -27.190  1.00  0.00     0.138 C 
HETATM   33  C   UNL     1      -2.547   7.355 -26.729  1.00  0.00     0.241 C 
HETATM   34  N   UNL     1      -5.646   7.751 -27.899  1.00  0.00    -0.317 N 
HETATM   35  C   UNL     1      -6.504   7.351 -28.936  1.00  0.00     0.247 A 
HETATM   36  O   UNL     1      -6.609   6.192 -29.327  1.00  0.00    -0.268 OA
HETATM   37  C   UNL     1      -7.292   8.422 -29.591  1.00  0.00     0.074 A 
HETATM   38  C   UNL     1      -7.177   9.686 -29.174  1.00  0.00     0.007 A 
HETATM   39  C   UNL     1      -6.286  10.027 -28.096  1.00  0.00     0.026 A 
ENDBRANCH  24  25
ENDBRANCH   2  24
BRANCH   1  40
HETATM   40  O   UNL     1       0.137   8.498 -28.722  1.00  0.00    -0.351 OA
BRANCH  40  41
HETATM   41  C   UNL     1       1.411   8.271 -28.106  1.00  0.00     0.171 C 
HETATM   42  C   UNL     1       1.160   7.662 -26.738  1.00  0.00     0.034 C 
ENDBRANCH  40  41
ENDBRANCH   1  40
TORSDOF 8
ENDMDL
MODEL 6
REMARK VINA RESULT:      -8.2      2.358      5.347
REMARK  8 active torsions:
REMARK  status: ('A' for Active; 'I' for Inactive)
REMARK    1  A    between atoms: C_2  and  O_3 
REMARK    2  A    between atoms: O_3  and  C_4 
REMARK    3  A    between atoms: C_5  and  C_6 
REMARK    4  A    between atoms: C_6  and  N_7 
REMARK    5  A    between atoms: C_23  and  C_24 
REMARK    6  A    between atoms: N_25  and  N_26 
REMARK       I    between atoms: N_26  and  C_27 
REMARK    7  A    between atoms: C_27  and  C_28 
REMARK    8  A    between atoms: C_31  and  N_32 
REMARK       I    between atoms: N_32  and  C_33 
ROOT
HETATM    1  C   UNL     1      -6.405   5.603 -32.790  1.00  0.00     0.076 A 
HETATM    2  C   UNL     1      -5.559   4.635 -32.222  1.00  0.00     0.002 A 
HETATM    3  C   UNL     1      -4.661   5.010 -31.212  1.00  0.00     0.024 A 
HETATM    4  C   UNL     1      -4.609   6.331 -30.763  1.00  0.00    -0.016 A 
HETATM    5  C   UNL     1      -5.431   7.296 -31.341  1.00  0.00     0.016 A 
HETATM    6  C   UNL     1      -6.327   6.931 -32.355  1.00  0.00     0.038 A 
ENDROOT
BRANCH   4   7
HETATM    7  C   UNL     1      -3.712   6.694 -29.643  1.00  0.00     0.150 C 
HETATM    8  N   UNL     1      -2.445   6.837 -29.860  1.00  0.00    -0.184 NA
BRANCH   8   9
HETATM    9  N   UNL     1      -1.611   7.176 -28.833  1.00  0.00    -0.243 N 
HETATM   10  C   UNL     1      -1.202   8.455 -28.477  1.00  0.00     0.271 C 
HETATM   11  O   UNL     1      -1.542   9.501 -29.020  1.00  0.00    -0.266 OA
HETATM   12  H   UNL     1      -1.058   6.391 -28.501  1.00  0.00     0.192 HD
BRANCH  10  13
HETATM   13  C   UNL     1      -0.218   8.504 -27.356  1.00  0.00     0.033 A 
HETATM   14  C   UNL     1      -0.442   9.270 -26.206  1.00  0.00     0.019 A 
HETATM   15  C   UNL     1       0.496   9.274 -25.167  1.00  0.00     0.030 A 
HETATM   16  C   UNL     1       1.672   8.527 -25.265  1.00  0.00     0.034 A 
HETATM   17  C   UNL     1       1.905   7.784 -26.429  1.00  0.00     0.030 A 
HETATM   18  C   UNL     1       0.969   7.774 -27.470  1.00  0.00     0.019 A 
BRANCH  16  19
HETATM   19  N   UNL     1       2.658   8.479 -24.258  1.00  0.00    -0.328 N 
HETATM   20  C   UNL     1       3.380   9.538 -23.737  1.00  0.00     0.218 C 
HETATM   21  C   UNL     1       4.353   9.098 -22.672  1.00  0.00     0.117 C 
HETATM   22  O   UNL     1       3.267  10.722 -24.034  1.00  0.00    -0.274 OA
HETATM   23  H   UNL     1       2.840   7.566 -23.857  1.00  0.00     0.169 HD
ENDBRANCH  16  19
ENDBRANCH  10  13
ENDBRANCH   8   9
ENDBRANCH   4   7
BRANCH   2  24
HETATM   24  C   UNL     1      -5.610   3.195 -32.654  1.00  0.00     0.276 C 
BRANCH  24  25
HETATM   25  N   UNL     1      -4.898   2.241 -31.711  1.00  0.00    -0.066 N 
HETATM   26  H   UNL     1      -4.256   2.901 -31.243  1.00  0.00     0.280 HD
HETATM   27  C   UNL     1      -5.787   1.695 -30.614  1.00  0.00     0.246 C 
HETATM   28  C   UNL     1      -6.426   0.335 -30.964  1.00  0.00     0.062 C 
HETATM   29  C   UNL     1      -5.331  -0.661 -31.330  1.00  0.00     0.020 C 
HETATM   30  C   UNL     1      -7.440   0.448 -32.086  1.00  0.00     0.020 A 
HETATM   31  C   UNL     1      -4.651  -0.149 -32.590  1.00  0.00     0.031 C 
HETATM   32  C   UNL     1      -5.658  -0.143 -33.742  1.00  0.00     0.138 C 
HETATM   33  C   UNL     1      -3.993   1.214 -32.345  1.00  0.00     0.241 C 
HETATM   34  N   UNL     1      -7.015   0.285 -33.408  1.00  0.00    -0.317 N 
HETATM   35  C   UNL     1      -7.896   0.396 -34.496  1.00  0.00     0.247 A 
HETATM   36  O   UNL     1      -7.552   0.272 -35.668  1.00  0.00    -0.268 OA
HETATM   37  C   UNL     1      -9.308   0.710 -34.173  1.00  0.00     0.074 A 
HETATM   38  C   UNL     1      -9.686   0.853 -32.900  1.00  0.00     0.007 A 
HETATM   39  C   UNL     1      -8.733   0.714 -31.829  1.00  0.00     0.026 A 
ENDBRANCH  24  25
ENDBRANCH   2  24
BRANCH   1  40
HETATM   40  O   UNL     1      -7.291   5.125 -33.724  1.00  0.00    -0.351 OA
BRANCH  40  41
HETATM   41  C   UNL     1      -8.665   5.498 -33.555  1.00  0.00     0.171 C 
HETATM   42  C   UNL     1      -9.271   4.570 -32.518  1.00  0.00     0.034 C 
ENDBRANCH  40  41
ENDBRANCH   1  40
TORSDOF 8
ENDMDL
MODEL 7
REMARK VINA RESULT:      -8.1      2.598      4.392
REMARK  8 active torsions:
REMARK  status: ('A' for Active; 'I' for Inactive)
REMARK    1  A    between atoms: C_2  and  O_3 
REMARK    2  A    between atoms: O_3  and  C_4 
REMARK    3  A    between atoms: C_5  and  C_6 
REMARK    4  A    between atoms: C_6  and  N_7 
REMARK    5  A    between atoms: C_23  and  C_24 
REMARK    6  A    between atoms: N_25  and  N_26 
REMARK       I    between atoms: N_26  and  C_27 
REMARK    7  A    between atoms: C_27  and  C_28 
REMARK    8  A    between atoms: C_31  and  N_32 
REMARK       I    between atoms: N_32  and  C_33 
ROOT
HETATM    1  C   UNL     1      -7.931   2.138 -33.295  1.00  0.00     0.076 A 
HETATM    2  C   UNL     1      -8.436   3.316 -32.716  1.00  0.00     0.002 A 
HETATM    3  C   UNL     1      -7.583   4.138 -31.967  1.00  0.00     0.024 A 
HETATM    4  C   UNL     1      -6.237   3.803 -31.802  1.00  0.00    -0.016 A 
HETATM    5  C   UNL     1      -5.741   2.626 -32.357  1.00  0.00     0.016 A 
HETATM    6  C   UNL     1      -6.588   1.794 -33.102  1.00  0.00     0.038 A 
ENDROOT
BRANCH   4   7
HETATM    7  C   UNL     1      -5.333   4.722 -31.076  1.00  0.00     0.150 C 
HETATM    8  N   UNL     1      -4.053   4.610 -31.229  1.00  0.00    -0.184 NA
BRANCH   8   9
HETATM    9  N   UNL     1      -3.211   5.458 -30.566  1.00  0.00    -0.243 N 
HETATM   10  C   UNL     1      -1.908   5.786 -30.919  1.00  0.00     0.271 C 
HETATM   11  O   UNL     1      -1.302   5.381 -31.905  1.00  0.00    -0.266 OA
HETATM   12  H   UNL     1      -3.500   5.626 -29.606  1.00  0.00     0.192 HD
BRANCH  10  13
HETATM   13  C   UNL     1      -1.207   6.678 -29.950  1.00  0.00     0.033 A 
HETATM   14  C   UNL     1       0.180   6.864 -29.983  1.00  0.00     0.019 A 
HETATM   15  C   UNL     1       0.799   7.725 -29.069  1.00  0.00     0.030 A 
HETATM   16  C   UNL     1       0.048   8.401 -28.105  1.00  0.00     0.034 A 
HETATM   17  C   UNL     1      -1.336   8.191 -28.058  1.00  0.00     0.030 A 
HETATM   18  C   UNL     1      -1.961   7.334 -28.971  1.00  0.00     0.019 A 
BRANCH  16  19
HETATM   19  N   UNL     1       0.601   9.287 -27.158  1.00  0.00    -0.328 N 
HETATM   20  C   UNL     1       1.302   8.960 -26.010  1.00  0.00     0.218 C 
HETATM   21  C   UNL     1       1.735  10.181 -25.238  1.00  0.00     0.117 C 
HETATM   22  O   UNL     1       1.600   7.835 -25.626  1.00  0.00    -0.274 OA
HETATM   23  H   UNL     1       0.490  10.274 -27.354  1.00  0.00     0.169 HD
ENDBRANCH  16  19
ENDBRANCH  10  13
ENDBRANCH   8   9
ENDBRANCH   4   7
BRANCH   2  24
HETATM   24  C   UNL     1      -9.872   3.729 -32.900  1.00  0.00     0.276 C 
BRANCH  24  25
HETATM   25  N   UNL     1     -10.065   4.858 -33.897  1.00  0.00    -0.066 N 
HETATM   26  H   UNL     1      -9.106   5.242 -33.918  1.00  0.00     0.280 HD
HETATM   27  C   UNL     1     -10.342   4.383 -35.307  1.00  0.00     0.246 C 
HETATM   28  C   UNL     1     -11.846   4.288 -35.636  1.00  0.00     0.062 C 
HETATM   29  C   UNL     1     -12.511   5.635 -35.371  1.00  0.00     0.020 C 
HETATM   30  C   UNL     1     -12.538   3.188 -34.853  1.00  0.00     0.020 A 
HETATM   31  C   UNL     1     -12.396   5.912 -33.880  1.00  0.00     0.031 C 
HETATM   32  C   UNL     1     -13.189   4.859 -33.105  1.00  0.00     0.138 C 
HETATM   33  C   UNL     1     -10.928   6.013 -33.450  1.00  0.00     0.241 C 
HETATM   34  N   UNL     1     -13.104   3.489 -33.611  1.00  0.00    -0.317 N 
HETATM   35  C   UNL     1     -13.741   2.517 -32.823  1.00  0.00     0.247 A 
HETATM   36  O   UNL     1     -14.235   2.746 -31.723  1.00  0.00    -0.268 OA
HETATM   37  C   UNL     1     -13.774   1.141 -33.372  1.00  0.00     0.074 A 
HETATM   38  C   UNL     1     -13.232   0.885 -34.566  1.00  0.00     0.007 A 
HETATM   39  C   UNL     1     -12.603   1.932 -35.329  1.00  0.00     0.026 A 
ENDBRANCH  24  25
ENDBRANCH   2  24
BRANCH   1  40
HETATM   40  O   UNL     1      -8.828   1.436 -34.061  1.00  0.00    -0.351 OA
BRANCH  40  41
HETATM   41  C   UNL     1      -8.997   0.049 -33.740  1.00  0.00     0.171 C 
HETATM   42  C   UNL     1     -10.111  -0.055 -32.714  1.00  0.00     0.034 C 
ENDBRANCH  40  41
ENDBRANCH   1  40
TORSDOF 8
ENDMDL
MODEL 8
REMARK VINA RESULT:      -8.0      2.920     11.326
REMARK  8 active torsions:
REMARK  status: ('A' for Active; 'I' for Inactive)
REMARK    1  A    between atoms: C_2  and  O_3 
REMARK    2  A    between atoms: O_3  and  C_4 
REMARK    3  A    between atoms: C_5  and  C_6 
REMARK    4  A    between atoms: C_6  and  N_7 
REMARK    5  A    between atoms: C_23  and  C_24 
REMARK    6  A    between atoms: N_25  and  N_26 
REMARK       I    between atoms: N_26  and  C_27 
REMARK    7  A    between atoms: C_27  and  C_28 
REMARK    8  A    between atoms: C_31  and  N_32 
REMARK       I    between atoms: N_32  and  C_33 
ROOT
HETATM    1  C   UNL     1      -1.771   6.894 -31.238  1.00  0.00     0.076 A 
HETATM    2  C   UNL     1      -2.779   7.105 -30.280  1.00  0.00     0.002 A 
HETATM    3  C   UNL     1      -4.031   6.498 -30.449  1.00  0.00     0.024 A 
HETATM    4  C   UNL     1      -4.280   5.680 -31.553  1.00  0.00    -0.016 A 
HETATM    5  C   UNL     1      -3.290   5.489 -32.514  1.00  0.00     0.016 A 
HETATM    6  C   UNL     1      -2.037   6.096 -32.357  1.00  0.00     0.038 A 
ENDROOT
BRANCH   4   7
HETATM    7  C   UNL     1      -5.580   4.984 -31.677  1.00  0.00     0.150 C 
HETATM    8  N   UNL     1      -5.701   4.000 -32.508  1.00  0.00    -0.184 NA
BRANCH   8   9
HETATM    9  N   UNL     1      -6.897   3.349 -32.624  1.00  0.00    -0.243 N 
HETATM   10  C   UNL     1      -7.092   2.013 -32.950  1.00  0.00     0.271 C 
HETATM   11  O   UNL     1      -6.213   1.186 -33.169  1.00  0.00    -0.266 OA
HETATM   12  H   UNL     1      -7.680   3.986 -32.741  1.00  0.00     0.192 HD
BRANCH  10  13
HETATM   13  C   UNL     1      -8.522   1.608 -33.084  1.00  0.00     0.033 A 
HETATM   14  C   UNL     1      -8.962   0.323 -32.746  1.00  0.00     0.019 A 
HETATM   15  C   UNL     1     -10.316  -0.014 -32.866  1.00  0.00     0.030 A 
HETATM   16  C   UNL     1     -11.244   0.919 -33.334  1.00  0.00     0.034 A 
HETATM   17  C   UNL     1     -10.794   2.195 -33.696  1.00  0.00     0.030 A 
HETATM   18  C   UNL     1      -9.442   2.538 -33.576  1.00  0.00     0.019 A 
BRANCH  16  19
HETATM   19  N   UNL     1     -12.621   0.654 -33.475  1.00  0.00    -0.328 N 
HETATM   20  C   UNL     1     -13.459   1.078 -34.492  1.00  0.00     0.218 C 
HETATM   21  C   UNL     1     -14.877   0.600 -34.302  1.00  0.00     0.117 C 
HETATM   22  O   UNL     1     -13.144   1.735 -35.478  1.00  0.00    -0.274 OA
HETATM   23  H   UNL     1     -13.037   0.068 -32.761  1.00  0.00     0.169 HD
ENDBRANCH  16  19
ENDBRANCH  10  13
ENDBRANCH   8   9
ENDBRANCH   4   7
BRANCH   2  24
HETATM   24  C   UNL     1      -2.537   7.950 -29.058  1.00  0.00     0.276 C 
BRANCH  24  25
HETATM   25  N   UNL     1      -3.451   7.623 -27.890  1.00  0.00    -0.066 N 
HETATM   26  H   UNL     1      -4.254   7.222 -28.401  1.00  0.00     0.280 HD
HETATM   27  C   UNL     1      -2.934   6.506 -27.009  1.00  0.00     0.246 C 
HETATM   28  C   UNL     1      -2.123   7.010 -25.796  1.00  0.00     0.062 C 
HETATM   29  C   UNL     1      -2.968   7.994 -24.995  1.00  0.00     0.020 C 
HETATM   30  C   UNL     1      -0.808   7.645 -26.207  1.00  0.00     0.020 A 
HETATM   31  C   UNL     1      -3.232   9.198 -25.886  1.00  0.00     0.031 C 
HETATM   32  C   UNL     1      -1.908   9.894 -26.203  1.00  0.00     0.138 C 
HETATM   33  C   UNL     1      -4.027   8.794 -27.133  1.00  0.00     0.241 C 
HETATM   34  N   UNL     1      -0.766   9.018 -26.463  1.00  0.00    -0.317 N 
HETATM   35  C   UNL     1       0.411   9.668 -26.866  1.00  0.00     0.247 A 
HETATM   36  O   UNL     1       0.478  10.869 -27.113  1.00  0.00    -0.268 OA
HETATM   37  C   UNL     1       1.616   8.818 -27.019  1.00  0.00     0.074 A 
HETATM   38  C   UNL     1       1.547   7.509 -26.759  1.00  0.00     0.007 A 
HETATM   39  C   UNL     1       0.308   6.907 -26.338  1.00  0.00     0.026 A 
ENDBRANCH  24  25
ENDBRANCH   2  24
BRANCH   1  40
HETATM   40  O   UNL     1      -0.563   7.478 -30.949  1.00  0.00    -0.351 OA
BRANCH  40  41
HETATM   41  C   UNL     1       0.587   6.624 -30.981  1.00  0.00     0.171 C 
HETATM   42  C   UNL     1       0.440   5.610 -29.861  1.00  0.00     0.034 C 
ENDBRANCH  40  41
ENDBRANCH   1  40
TORSDOF 8
ENDMDL
MODEL 9
REMARK VINA RESULT:      -7.8      3.349     10.529
REMARK  8 active torsions:
REMARK  status: ('A' for Active; 'I' for Inactive)
REMARK    1  A    between atoms: C_2  and  O_3 
REMARK    2  A    between atoms: O_3  and  C_4 
REMARK    3  A    between atoms: C_5  and  C_6 
REMARK    4  A    between atoms: C_6  and  N_7 
REMARK    5  A    between atoms: C_23  and  C_24 
REMARK    6  A    between atoms: N_25  and  N_26 
REMARK       I    between atoms: N_26  and  C_27 
REMARK    7  A    between atoms: C_27  and  C_28 
REMARK    8  A    between atoms: C_31  and  N_32 
REMARK       I    between atoms: N_32  and  C_33 
ROOT
HETATM    1  C   UNL     1      -0.307   7.255 -29.838  1.00  0.00     0.076 A 
HETATM    2  C   UNL     1      -1.697   7.073 -29.724  1.00  0.00     0.002 A 
HETATM    3  C   UNL     1      -2.328   6.078 -30.483  1.00  0.00     0.024 A 
HETATM    4  C   UNL     1      -1.588   5.262 -31.341  1.00  0.00    -0.016 A 
HETATM    5  C   UNL     1      -0.214   5.456 -31.472  1.00  0.00     0.016 A 
HETATM    6  C   UNL     1       0.425   6.453 -30.721  1.00  0.00     0.038 A 
ENDROOT
BRANCH   4   7
HETATM    7  C   UNL     1      -2.256   4.165 -32.075  1.00  0.00     0.150 C 
HETATM    8  N   UNL     1      -3.138   3.438 -31.470  1.00  0.00    -0.184 NA
BRANCH   8   9
HETATM    9  N   UNL     1      -3.764   2.426 -32.143  1.00  0.00    -0.243 N 
HETATM   10  C   UNL     1      -5.087   2.395 -32.563  1.00  0.00     0.271 C 
HETATM   11  O   UNL     1      -5.914   3.289 -32.415  1.00  0.00    -0.266 OA
HETATM   12  H   UNL     1      -3.268   1.542 -32.070  1.00  0.00     0.192 HD
BRANCH  10  13
HETATM   13  C   UNL     1      -5.508   1.115 -33.202  1.00  0.00     0.033 A 
HETATM   14  C   UNL     1      -6.655   1.026 -34.000  1.00  0.00     0.019 A 
HETATM   15  C   UNL     1      -7.006  -0.190 -34.600  1.00  0.00     0.030 A 
HETATM   16  C   UNL     1      -6.227  -1.332 -34.403  1.00  0.00     0.034 A 
HETATM   17  C   UNL     1      -5.096  -1.245 -33.582  1.00  0.00     0.030 A 
HETATM   18  C   UNL     1      -4.739  -0.032 -32.982  1.00  0.00     0.019 A 
BRANCH  16  19
HETATM   19  N   UNL     1      -6.515  -2.587 -34.979  1.00  0.00    -0.328 N 
HETATM   20  C   UNL     1      -5.730  -3.727 -34.945  1.00  0.00     0.218 C 
HETATM   21  C   UNL     1      -6.367  -4.881 -35.678  1.00  0.00     0.117 C 
HETATM   22  O   UNL     1      -4.654  -3.862 -34.375  1.00  0.00    -0.274 OA
HETATM   23  H   UNL     1      -7.407  -2.666 -35.451  1.00  0.00     0.169 HD
ENDBRANCH  16  19
ENDBRANCH  10  13
ENDBRANCH   8   9
ENDBRANCH   4   7
BRANCH   2  24
HETATM   24  C   UNL     1      -2.524   7.909 -28.784  1.00  0.00     0.276 C 
BRANCH  24  25
HETATM   25  N   UNL     1      -3.999   7.964 -29.142  1.00  0.00    -0.066 N 
HETATM   26  H   UNL     1      -4.005   7.337 -29.963  1.00  0.00     0.280 HD
HETATM   27  C   UNL     1      -4.898   7.302 -28.120  1.00  0.00     0.246 C 
HETATM   28  C   UNL     1      -5.462   8.285 -27.074  1.00  0.00     0.062 C 
HETATM   29  C   UNL     1      -6.185   9.424 -27.785  1.00  0.00     0.020 C 
HETATM   30  C   UNL     1      -4.384   8.829 -26.155  1.00  0.00     0.020 A 
HETATM   31  C   UNL     1      -5.149  10.184 -28.598  1.00  0.00     0.031 C 
HETATM   32  C   UNL     1      -4.129  10.819 -27.653  1.00  0.00     0.138 C 
HETATM   33  C   UNL     1      -4.518   9.281 -29.665  1.00  0.00     0.241 C 
HETATM   34  N   UNL     1      -3.719  10.007 -26.508  1.00  0.00    -0.317 N 
HETATM   35  C   UNL     1      -2.698  10.556 -25.716  1.00  0.00     0.247 A 
HETATM   36  O   UNL     1      -2.086  11.580 -26.004  1.00  0.00    -0.268 OA
HETATM   37  C   UNL     1      -2.347   9.812 -24.483  1.00  0.00     0.074 A 
HETATM   38  C   UNL     1      -3.006   8.693 -24.167  1.00  0.00     0.007 A 
HETATM   39  C   UNL     1      -4.052   8.190 -25.019  1.00  0.00     0.026 A 
ENDBRANCH  24  25
ENDBRANCH   2  24
BRANCH   1  40
HETATM   40  O   UNL     1       0.225   8.210 -29.007  1.00  0.00    -0.351 OA
BRANCH  40  41
HETATM   41  C   UNL     1       1.147   7.751 -28.010  1.00  0.00     0.171 C 
HETATM   42  C   UNL     1       0.667   8.267 -26.666  1.00  0.00     0.034 C 
ENDBRANCH  40  41
ENDBRANCH   1  40
TORSDOF 8
ENDMDL
MODEL 10
REMARK VINA RESULT:      -7.8      1.685      1.975
REMARK  8 active torsions:
REMARK  status: ('A' for Active; 'I' for Inactive)
REMARK    1  A    between atoms: C_2  and  O_3 
REMARK    2  A    between atoms: O_3  and  C_4 
REMARK    3  A    between atoms: C_5  and  C_6 
REMARK    4  A    between atoms: C_6  and  N_7 
REMARK    5  A    between atoms: C_23  and  C_24 
REMARK    6  A    between atoms: N_25  and  N_26 
REMARK       I    between atoms: N_26  and  C_27 
REMARK    7  A    between atoms: C_27  and  C_28 
REMARK    8  A    between atoms: C_31  and  N_32 
REMARK       I    between atoms: N_32  and  C_33 
ROOT
HETATM    1  C   UNL     1      -5.636   0.468 -33.696  1.00  0.00     0.076 A 
HETATM    2  C   UNL     1      -6.157   1.730 -33.357  1.00  0.00     0.002 A 
HETATM    3  C   UNL     1      -5.414   2.584 -32.529  1.00  0.00     0.024 A 
HETATM    4  C   UNL     1      -4.161   2.195 -32.049  1.00  0.00    -0.016 A 
HETATM    5  C   UNL     1      -3.655   0.936 -32.366  1.00  0.00     0.016 A 
HETATM    6  C   UNL     1      -4.393   0.074 -33.188  1.00  0.00     0.038 A 
ENDROOT
BRANCH   4   7
HETATM    7  C   UNL     1      -3.356   3.138 -31.243  1.00  0.00     0.150 C 
HETATM    8  N   UNL     1      -3.610   4.405 -31.300  1.00  0.00    -0.184 NA
BRANCH   8   9
HETATM    9  N   UNL     1      -2.874   5.282 -30.554  1.00  0.00    -0.243 N 
HETATM   10  C   UNL     1      -2.849   6.665 -30.676  1.00  0.00     0.271 C 
HETATM   11  O   UNL     1      -3.505   7.334 -31.467  1.00  0.00    -0.266 OA
HETATM   12  H   UNL     1      -2.100   4.833 -30.072  1.00  0.00     0.192 HD
BRANCH  10  13
HETATM   13  C   UNL     1      -1.880   7.351 -29.772  1.00  0.00     0.033 A 
HETATM   14  C   UNL     1      -2.072   8.670 -29.343  1.00  0.00     0.019 A 
HETATM   15  C   UNL     1      -1.151   9.273 -28.478  1.00  0.00     0.030 A 
HETATM   16  C   UNL     1      -0.022   8.576 -28.041  1.00  0.00     0.034 A 
HETATM   17  C   UNL     1       0.181   7.267 -28.495  1.00  0.00     0.030 A 
HETATM   18  C   UNL     1      -0.738   6.658 -29.357  1.00  0.00     0.019 A 
BRANCH  16  19
HETATM   19  N   UNL     1       0.944   9.116 -27.168  1.00  0.00    -0.328 N 
HETATM   20  C   UNL     1       0.846   9.267 -25.795  1.00  0.00     0.218 C 
HETATM   21  C   UNL     1       2.083   9.890 -25.199  1.00  0.00     0.117 C 
HETATM   22  O   UNL     1      -0.091   8.924 -25.083  1.00  0.00    -0.274 OA
HETATM   23  H   UNL     1       1.817   9.405 -27.593  1.00  0.00     0.169 HD
ENDBRANCH  16  19
ENDBRANCH  10  13
ENDBRANCH   8   9
ENDBRANCH   4   7
BRANCH   2  24
HETATM   24  C   UNL     1      -7.486   2.199 -33.884  1.00  0.00     0.276 C 
BRANCH  24  25
HETATM   25  N   UNL     1      -8.662   1.348 -33.436  1.00  0.00    -0.066 N 
HETATM   26  H   UNL     1      -8.188   0.438 -33.322  1.00  0.00     0.280 HD
HETATM   27  C   UNL     1      -9.184   1.709 -32.062  1.00  0.00     0.246 C 
HETATM   28  C   UNL     1     -10.356   2.711 -32.096  1.00  0.00     0.062 C 
HETATM   29  C   UNL     1     -11.471   2.158 -32.978  1.00  0.00     0.020 C 
HETATM   30  C   UNL     1      -9.926   4.083 -32.577  1.00  0.00     0.020 A 
HETATM   31  C   UNL     1     -10.924   2.061 -34.395  1.00  0.00     0.031 C 
HETATM   32  C   UNL     1     -10.597   3.464 -34.908  1.00  0.00     0.138 C 
HETATM   33  C   UNL     1      -9.739   1.092 -34.461  1.00  0.00     0.241 C 
HETATM   34  N   UNL     1      -9.989   4.377 -33.942  1.00  0.00    -0.317 N 
HETATM   35  C   UNL     1      -9.587   5.620 -34.459  1.00  0.00     0.247 A 
HETATM   36  O   UNL     1      -9.616   5.904 -35.653  1.00  0.00    -0.268 OA
HETATM   37  C   UNL     1      -9.079   6.610 -33.480  1.00  0.00     0.074 A 
HETATM   38  C   UNL     1      -9.039   6.303 -32.179  1.00  0.00     0.007 A 
HETATM   39  C   UNL     1      -9.477   5.012 -31.714  1.00  0.00     0.026 A 
ENDBRANCH  24  25
ENDBRANCH   2  24
BRANCH   1  40
HETATM   40  O   UNL     1      -6.409  -0.266 -34.562  1.00  0.00    -0.351 OA
BRANCH  40  41
HETATM   41  C   UNL     1      -6.013  -1.626 -34.780  1.00  0.00     0.171 C 
HETATM   42  C   UNL     1      -7.087  -2.520 -34.187  1.00  0.00     0.034 C 
ENDBRANCH  40  41
ENDBRANCH   1  40
TORSDOF 8
ENDMDL
