MODEL 1
REMARK VINA RESULT:     -10.8      0.000      0.000
REMARK  3 active torsions:
REMARK  status: ('A' for Active; 'I' for Inactive)
REMARK    1  A    between atoms: C_4  and  N_5 
REMARK    2  A    between atoms: N_5  and  C_6 
REMARK    3  A    between atoms: C_13  and  C_14 
ROOT
HETATM    1  C   UNL     1      -9.128   2.348 -34.303  1.00  0.00     0.741 A 
HETATM    2  N   UNL     1      -8.777   1.055 -34.403  1.00  0.00    -0.066 NA
HETATM    3  C   UNL     1      -7.545   0.680 -33.997  1.00  0.00     0.069 A 
HETATM    4  C   UNL     1      -6.645   1.579 -33.472  1.00  0.00     0.053 A 
HETATM    5  C   UNL     1      -5.315   1.162 -33.003  1.00  0.00     0.163 C 
HETATM    6  O   UNL     1      -4.551   1.992 -32.521  1.00  0.00    -0.292 OA
HETATM    7  C   UNL     1      -4.972  -0.311 -33.068  1.00  0.00     0.093 C 
HETATM    8  C   UNL     1      -5.708  -1.009 -34.218  1.00  0.00     0.031 C 
HETATM    9  C   UNL     1      -7.223  -0.785 -34.096  1.00  0.00     0.070 C 
HETATM   10  C   UNL     1      -7.070   2.883 -33.405  1.00  0.00     0.153 A 
HETATM   11  N   UNL     1      -8.296   3.287 -33.813  1.00  0.00    -0.073 NA
ENDROOT
BRANCH   1  12
HETATM   12  N   UNL     1     -10.375   2.791 -34.681  1.00  0.00    -0.015 N 
HETATM   13  H   UNL     1     -10.370   3.427 -35.456  1.00  0.00     0.203 HD
BRANCH  12  14
HETATM   14  C   UNL     1     -11.623   2.597 -34.126  1.00  0.00     0.742 A 
HETATM   15  N   UNL     1     -12.066   1.330 -34.139  1.00  0.00    -0.066 NA
HETATM   16  C   UNL     1     -13.288   1.080 -33.615  1.00  0.00     0.062 A 
HETATM   17  C   UNL     1     -13.732  -0.353 -33.667  1.00  0.00     0.072 C 
HETATM   18  C   UNL     1     -14.095   2.081 -33.064  1.00  0.00     0.018 A 
HETATM   19  C   UNL     1     -13.536   3.361 -33.098  1.00  0.00     0.088 A 
HETATM   20  C   UNL     1     -15.381   1.892 -32.499  1.00  0.00     0.016 A 
HETATM   21  N   UNL     1     -12.332   3.610 -33.617  1.00  0.00    -0.062 NA
HETATM   22  C   UNL     1     -14.264   4.420 -32.571  1.00  0.00     0.033 A 
HETATM   23  C   UNL     1     -15.532   4.239 -32.013  1.00  0.00     0.002 A 
HETATM   24  C   UNL     1     -16.094   2.970 -31.977  1.00  0.00     0.001 A 
ENDBRANCH  12  14
ENDBRANCH   1  12
BRANCH   8  25
HETATM   25  C   UNL     1      -5.364  -2.486 -34.294  1.00  0.00    -0.053 A 
HETATM   26  C   UNL     1      -4.155  -2.991 -33.788  1.00  0.00     0.007 A 
HETATM   27  C   UNL     1      -3.868  -4.355 -33.858  1.00  0.00     0.001 A 
HETATM   28  C   UNL     1      -4.781  -5.233 -34.436  1.00  0.00     0.000 A 
HETATM   29  C   UNL     1      -5.983  -4.747 -34.946  1.00  0.00     0.001 A 
HETATM   30  C   UNL     1      -6.273  -3.383 -34.876  1.00  0.00     0.007 A 
ENDBRANCH   8  25
TORSDOF 3
ENDMDL
MODEL 2
REMARK VINA RESULT:     -10.5      1.043      2.110
REMARK  3 active torsions:
REMARK  status: ('A' for Active; 'I' for Inactive)
REMARK    1  A    between atoms: C_4  and  N_5 
REMARK    2  A    between atoms: N_5  and  C_6 
REMARK    3  A    between atoms: C_13  and  C_14 
ROOT
HETATM    1  C   UNL     1      -8.332   2.946 -33.596  1.00  0.00     0.741 A 
HETATM    2  N   UNL     1      -8.208   1.626 -33.816  1.00  0.00    -0.066 NA
HETATM    3  C   UNL     1      -7.027   1.029 -33.548  1.00  0.00     0.069 A 
HETATM    4  C   UNL     1      -5.954   1.727 -33.045  1.00  0.00     0.053 A 
HETATM    5  C   UNL     1      -4.679   1.067 -32.726  1.00  0.00     0.163 C 
HETATM    6  O   UNL     1      -3.754   1.724 -32.259  1.00  0.00    -0.292 OA
HETATM    7  C   UNL     1      -4.589  -0.431 -32.923  1.00  0.00     0.093 C 
HETATM    8  C   UNL     1      -5.517  -0.906 -34.047  1.00  0.00     0.031 C 
HETATM    9  C   UNL     1      -6.960  -0.455 -33.776  1.00  0.00     0.070 C 
HETATM   10  C   UNL     1      -6.152   3.073 -32.852  1.00  0.00     0.153 A 
HETATM   11  N   UNL     1      -7.322   3.698 -33.119  1.00  0.00    -0.073 NA
ENDROOT
BRANCH   1  12
HETATM   12  N   UNL     1      -9.515   3.611 -33.831  1.00  0.00    -0.015 N 
HETATM   13  H   UNL     1      -9.405   4.508 -34.263  1.00  0.00     0.203 HD
BRANCH  12  14
HETATM   14  C   UNL     1     -10.817   3.311 -33.489  1.00  0.00     0.742 A 
HETATM   15  N   UNL     1     -11.300   3.977 -32.428  1.00  0.00    -0.066 NA
HETATM   16  C   UNL     1     -12.570   3.719 -32.041  1.00  0.00     0.062 A 
HETATM   17  C   UNL     1     -13.049   4.487 -30.843  1.00  0.00     0.072 C 
HETATM   18  C   UNL     1     -13.390   2.797 -32.700  1.00  0.00     0.018 A 
HETATM   19  C   UNL     1     -12.791   2.165 -33.792  1.00  0.00     0.088 A 
HETATM   20  C   UNL     1     -14.726   2.477 -32.352  1.00  0.00     0.016 A 
HETATM   21  N   UNL     1     -11.537   2.416 -34.174  1.00  0.00    -0.062 NA
HETATM   22  C   UNL     1     -13.530   1.234 -34.512  1.00  0.00     0.033 A 
HETATM   23  C   UNL     1     -14.846   0.915 -34.172  1.00  0.00     0.002 A 
HETATM   24  C   UNL     1     -15.448   1.539 -33.087  1.00  0.00     0.001 A 
ENDBRANCH  12  14
ENDBRANCH   1  12
BRANCH   8  25
HETATM   25  C   UNL     1      -5.428  -2.407 -34.255  1.00  0.00    -0.053 A 
HETATM   26  C   UNL     1      -6.494  -3.144 -34.794  1.00  0.00     0.007 A 
HETATM   27  C   UNL     1      -6.383  -4.522 -34.987  1.00  0.00     0.001 A 
HETATM   28  C   UNL     1      -5.208  -5.184 -34.642  1.00  0.00     0.000 A 
HETATM   29  C   UNL     1      -4.142  -4.468 -34.102  1.00  0.00     0.001 A 
HETATM   30  C   UNL     1      -4.251  -3.089 -33.908  1.00  0.00     0.007 A 
ENDBRANCH   8  25
TORSDOF 3
ENDMDL
MODEL 3
REMARK VINA RESULT:     -10.5      6.094     10.155
REMARK  3 active torsions:
REMARK  status: ('A' for Active; 'I' for Inactive)
REMARK    1  A    between atoms: C_4  and  N_5 
REMARK    2  A    between atoms: N_5  and  C_6 
REMARK    3  A    between atoms: C_13  and  C_14 
ROOT
HETATM    1  C   UNL     1      -4.411   4.122 -32.479  1.00  0.00     0.741 A 
HETATM    2  N   UNL     1      -3.852   4.726 -31.418  1.00  0.00    -0.066 NA
HETATM    3  C   UNL     1      -3.053   5.795 -31.622  1.00  0.00     0.069 A 
HETATM    4  C   UNL     1      -2.806   6.291 -32.881  1.00  0.00     0.053 A 
HETATM    5  C   UNL     1      -1.960   7.475 -33.097  1.00  0.00     0.163 C 
HETATM    6  O   UNL     1      -1.783   7.897 -34.234  1.00  0.00    -0.292 OA
HETATM    7  C   UNL     1      -1.395   8.172 -31.877  1.00  0.00     0.093 C 
HETATM    8  C   UNL     1      -1.180   7.192 -30.718  1.00  0.00     0.031 C 
HETATM    9  C   UNL     1      -2.487   6.453 -30.395  1.00  0.00     0.070 C 
HETATM   10  C   UNL     1      -3.406   5.620 -33.918  1.00  0.00     0.153 A 
HETATM   11  N   UNL     1      -4.205   4.542 -33.742  1.00  0.00    -0.073 NA
ENDROOT
BRANCH   1  12
HETATM   12  N   UNL     1      -5.250   3.039 -32.338  1.00  0.00    -0.015 N 
HETATM   13  H   UNL     1      -6.090   3.232 -31.826  1.00  0.00     0.203 HD
BRANCH  12  14
HETATM   14  C   UNL     1      -5.101   1.713 -32.687  1.00  0.00     0.742 A 
HETATM   15  N   UNL     1      -4.022   1.102 -32.171  1.00  0.00    -0.066 NA
HETATM   16  C   UNL     1      -3.818  -0.198 -32.485  1.00  0.00     0.062 A 
HETATM   17  C   UNL     1      -2.591  -0.822 -31.886  1.00  0.00     0.072 C 
HETATM   18  C   UNL     1      -4.683  -0.921 -33.314  1.00  0.00     0.018 A 
HETATM   19  C   UNL     1      -5.774  -0.192 -33.791  1.00  0.00     0.088 A 
HETATM   20  C   UNL     1      -4.533  -2.281 -33.683  1.00  0.00     0.016 A 
HETATM   21  N   UNL     1      -5.976   1.092 -33.485  1.00  0.00    -0.062 NA
HETATM   22  C   UNL     1      -6.690  -0.828 -34.620  1.00  0.00     0.033 A 
HETATM   23  C   UNL     1      -6.546  -2.168 -34.987  1.00  0.00     0.002 A 
HETATM   24  C   UNL     1      -5.463  -2.898 -34.517  1.00  0.00     0.001 A 
ENDBRANCH  12  14
ENDBRANCH   1  12
BRANCH   8  25
HETATM   25  C   UNL     1      -0.609   7.884 -29.494  1.00  0.00    -0.053 A 
HETATM   26  C   UNL     1      -1.340   8.844 -28.778  1.00  0.00     0.007 A 
HETATM   27  C   UNL     1      -0.798   9.457 -27.647  1.00  0.00     0.001 A 
HETATM   28  C   UNL     1       0.483   9.121 -27.217  1.00  0.00     0.000 A 
HETATM   29  C   UNL     1       1.224   8.173 -27.919  1.00  0.00     0.001 A 
HETATM   30  C   UNL     1       0.683   7.559 -29.051  1.00  0.00     0.007 A 
ENDBRANCH   8  25
TORSDOF 3
ENDMDL
MODEL 4
REMARK VINA RESULT:     -10.4      4.359      8.371
REMARK  3 active torsions:
REMARK  status: ('A' for Active; 'I' for Inactive)
REMARK    1  A    between atoms: C_4  and  N_5 
REMARK    2  A    between atoms: N_5  and  C_6 
REMARK    3  A    between atoms: C_13  and  C_14 
ROOT
HETATM    1  C   UNL     1      -5.871   3.564 -32.234  1.00  0.00     0.741 A 
HETATM    2  N   UNL     1      -5.392   2.338 -32.503  1.00  0.00    -0.066 NA
HETATM    3  C   UNL     1      -6.148   1.489 -33.232  1.00  0.00     0.069 A 
HETATM    4  C   UNL     1      -7.385   1.846 -33.717  1.00  0.00     0.053 A 
HETATM    5  C   UNL     1      -8.192   0.929 -34.537  1.00  0.00     0.163 C 
HETATM    6  O   UNL     1      -9.280   1.296 -34.967  1.00  0.00    -0.292 OA
HETATM    7  C   UNL     1      -7.599  -0.421 -34.878  1.00  0.00     0.093 C 
HETATM    8  C   UNL     1      -6.636  -0.904 -33.788  1.00  0.00     0.031 C 
HETATM    9  C   UNL     1      -5.545   0.146 -33.536  1.00  0.00     0.070 C 
HETATM   10  C   UNL     1      -7.811   3.112 -33.397  1.00  0.00     0.153 A 
HETATM   11  N   UNL     1      -7.078   3.980 -32.662  1.00  0.00    -0.073 NA
ENDROOT
BRANCH   1  12
HETATM   12  N   UNL     1      -5.143   4.483 -31.512  1.00  0.00    -0.015 N 
HETATM   13  H   UNL     1      -5.652   4.923 -30.770  1.00  0.00     0.203 HD
BRANCH  12  14
HETATM   14  C   UNL     1      -3.868   4.981 -31.686  1.00  0.00     0.742 A 
HETATM   15  N   UNL     1      -3.385   4.898 -32.935  1.00  0.00    -0.066 NA
HETATM   16  C   UNL     1      -2.136   5.364 -33.165  1.00  0.00     0.062 A 
HETATM   17  C   UNL     1      -1.648   5.235 -34.579  1.00  0.00     0.072 C 
HETATM   18  C   UNL     1      -1.341   5.926 -32.160  1.00  0.00     0.018 A 
HETATM   19  C   UNL     1      -1.942   5.968 -30.900  1.00  0.00     0.088 A 
HETATM   20  C   UNL     1      -0.028   6.433 -32.329  1.00  0.00     0.016 A 
HETATM   21  N   UNL     1      -3.173   5.506 -30.671  1.00  0.00    -0.062 NA
HETATM   22  C   UNL     1      -1.228   6.512 -29.839  1.00  0.00     0.033 A 
HETATM   23  C   UNL     1       0.066   7.013 -30.000  1.00  0.00     0.002 A 
HETATM   24  C   UNL     1       0.669   6.973 -31.249  1.00  0.00     0.001 A 
ENDBRANCH  12  14
ENDBRANCH   1  12
BRANCH   8  25
HETATM   25  C   UNL     1      -6.042  -2.261 -34.121  1.00  0.00    -0.053 A 
HETATM   26  C   UNL     1      -4.682  -2.544 -33.918  1.00  0.00     0.007 A 
HETATM   27  C   UNL     1      -4.163  -3.804 -34.220  1.00  0.00     0.001 A 
HETATM   28  C   UNL     1      -4.993  -4.798 -34.731  1.00  0.00     0.000 A 
HETATM   29  C   UNL     1      -6.344  -4.532 -34.943  1.00  0.00     0.001 A 
HETATM   30  C   UNL     1      -6.866  -3.272 -34.641  1.00  0.00     0.007 A 
ENDBRANCH   8  25
TORSDOF 3
ENDMDL
MODEL 5
REMARK VINA RESULT:     -10.3      2.358      3.628
REMARK  3 active torsions:
REMARK  status: ('A' for Active; 'I' for Inactive)
REMARK    1  A    between atoms: C_4  and  N_5 
REMARK    2  A    between atoms: N_5  and  C_6 
REMARK    3  A    between atoms: C_13  and  C_14 
ROOT
HETATM    1  C   UNL     1      -6.044   3.155 -32.912  1.00  0.00     0.741 A 
HETATM    2  N   UNL     1      -6.210   1.886 -33.323  1.00  0.00    -0.066 NA
HETATM    3  C   UNL     1      -5.324   0.950 -32.920  1.00  0.00     0.069 A 
HETATM    4  C   UNL     1      -4.267   1.254 -32.094  1.00  0.00     0.053 A 
HETATM    5  C   UNL     1      -3.321   0.225 -31.633  1.00  0.00     0.163 C 
HETATM    6  O   UNL     1      -2.404   0.535 -30.880  1.00  0.00    -0.292 OA
HETATM    7  C   UNL     1      -3.570  -1.206 -32.059  1.00  0.00     0.093 C 
HETATM    8  C   UNL     1      -4.281  -1.273 -33.416  1.00  0.00     0.031 C 
HETATM    9  C   UNL     1      -5.582  -0.458 -33.378  1.00  0.00     0.070 C 
HETATM   10  C   UNL     1      -4.157   2.571 -31.720  1.00  0.00     0.153 A 
HETATM   11  N   UNL     1      -5.026   3.530 -32.115  1.00  0.00    -0.073 NA
ENDROOT
BRANCH   1  12
HETATM   12  N   UNL     1      -6.923   4.152 -33.272  1.00  0.00    -0.015 N 
HETATM   13  H   UNL     1      -6.625   5.076 -33.020  1.00  0.00     0.203 HD
BRANCH  12  14
HETATM   14  C   UNL     1      -8.185   4.105 -33.826  1.00  0.00     0.742 A 
HETATM   15  N   UNL     1      -8.617   5.254 -34.368  1.00  0.00    -0.066 NA
HETATM   16  C   UNL     1      -9.852   5.271 -34.921  1.00  0.00     0.062 A 
HETATM   17  C   UNL     1     -10.283   6.587 -35.500  1.00  0.00     0.072 C 
HETATM   18  C   UNL     1     -10.683   4.146 -34.951  1.00  0.00     0.018 A 
HETATM   19  C   UNL     1     -10.133   3.003 -34.365  1.00  0.00     0.088 A 
HETATM   20  C   UNL     1     -11.983   4.090 -35.512  1.00  0.00     0.016 A 
HETATM   21  N   UNL     1      -8.916   2.985 -33.817  1.00  0.00    -0.062 NA
HETATM   22  C   UNL     1     -10.885   1.834 -34.350  1.00  0.00     0.033 A 
HETATM   23  C   UNL     1     -12.167   1.774 -34.902  1.00  0.00     0.002 A 
HETATM   24  C   UNL     1     -12.719   2.907 -35.485  1.00  0.00     0.001 A 
ENDBRANCH  12  14
ENDBRANCH   1  12
BRANCH   8  25
HETATM   25  C   UNL     1      -4.529  -2.706 -33.852  1.00  0.00    -0.053 A 
HETATM   26  C   UNL     1      -3.703  -3.761 -33.431  1.00  0.00     0.007 A 
HETATM   27  C   UNL     1      -3.960  -5.072 -33.835  1.00  0.00     0.001 A 
HETATM   28  C   UNL     1      -5.042  -5.348 -34.667  1.00  0.00     0.000 A 
HETATM   29  C   UNL     1      -5.868  -4.312 -35.097  1.00  0.00     0.001 A 
HETATM   30  C   UNL     1      -5.614  -2.999 -34.693  1.00  0.00     0.007 A 
ENDBRANCH   8  25
TORSDOF 3
ENDMDL
MODEL 6
REMARK VINA RESULT:     -10.1      6.033      9.774
REMARK  3 active torsions:
REMARK  status: ('A' for Active; 'I' for Inactive)
REMARK    1  A    between atoms: C_4  and  N_5 
REMARK    2  A    between atoms: N_5  and  C_6 
REMARK    3  A    between atoms: C_13  and  C_14 
ROOT
HETATM    1  C   UNL     1      -3.016   3.974 -31.713  1.00  0.00     0.741 A 
HETATM    2  N   UNL     1      -2.827   2.747 -32.225  1.00  0.00    -0.066 NA
HETATM    3  C   UNL     1      -3.810   1.830 -32.098  1.00  0.00     0.069 A 
HETATM    4  C   UNL     1      -5.001   2.118 -31.474  1.00  0.00     0.053 A 
HETATM    5  C   UNL     1      -6.081   1.125 -31.365  1.00  0.00     0.163 C 
HETATM    6  O   UNL     1      -7.136   1.431 -30.818  1.00  0.00    -0.292 OA
HETATM    7  C   UNL     1      -5.865  -0.228 -32.008  1.00  0.00     0.093 C 
HETATM    8  C   UNL     1      -4.380  -0.609 -32.030  1.00  0.00     0.031 C 
HETATM    9  C   UNL     1      -3.559   0.487 -32.725  1.00  0.00     0.070 C 
HETATM   10  C   UNL     1      -5.121   3.390 -30.970  1.00  0.00     0.153 A 
HETATM   11  N   UNL     1      -4.149   4.326 -31.075  1.00  0.00    -0.073 NA
ENDROOT
BRANCH   1  12
HETATM   12  N   UNL     1      -2.061   4.960 -31.825  1.00  0.00    -0.015 N 
HETATM   13  H   UNL     1      -1.561   4.954 -32.693  1.00  0.00     0.203 HD
BRANCH  12  14
HETATM   14  C   UNL     1      -1.599   5.894 -30.920  1.00  0.00     0.742 A 
HETATM   15  N   UNL     1      -2.140   7.117 -31.031  1.00  0.00    -0.066 NA
HETATM   16  C   UNL     1      -1.719   8.077 -30.176  1.00  0.00     0.062 A 
HETATM   17  C   UNL     1      -2.354   9.426 -30.356  1.00  0.00     0.072 C 
HETATM   18  C   UNL     1      -0.755   7.843 -29.189  1.00  0.00     0.018 A 
HETATM   19  C   UNL     1      -0.263   6.536 -29.159  1.00  0.00     0.088 A 
HETATM   20  C   UNL     1      -0.269   8.797 -28.262  1.00  0.00     0.016 A 
HETATM   21  N   UNL     1      -0.675   5.588 -30.004  1.00  0.00    -0.062 NA
HETATM   22  C   UNL     1       0.698   6.208 -28.210  1.00  0.00     0.033 A 
HETATM   23  C   UNL     1       1.180   7.145 -27.294  1.00  0.00     0.002 A 
HETATM   24  C   UNL     1       0.695   8.446 -27.319  1.00  0.00     0.001 A 
ENDBRANCH  12  14
ENDBRANCH   1  12
BRANCH   8  25
HETATM   25  C   UNL     1      -4.157  -1.968 -32.669  1.00  0.00    -0.053 A 
HETATM   26  C   UNL     1      -4.756  -2.320 -33.888  1.00  0.00     0.007 A 
HETATM   27  C   UNL     1      -4.524  -3.572 -34.461  1.00  0.00     0.001 A 
HETATM   28  C   UNL     1      -3.693  -4.489 -33.824  1.00  0.00     0.000 A 
HETATM   29  C   UNL     1      -3.095  -4.157 -32.611  1.00  0.00     0.001 A 
HETATM   30  C   UNL     1      -3.325  -2.905 -32.036  1.00  0.00     0.007 A 
ENDBRANCH   8  25
TORSDOF 3
ENDMDL
MODEL 7
REMARK VINA RESULT:     -10.0      1.322      1.964
REMARK  3 active torsions:
REMARK  status: ('A' for Active; 'I' for Inactive)
REMARK    1  A    between atoms: C_4  and  N_5 
REMARK    2  A    between atoms: N_5  and  C_6 
REMARK    3  A    between atoms: C_13  and  C_14 
ROOT
HETATM    1  C   UNL     1      -7.392   3.016 -33.366  1.00  0.00     0.741 A 
HETATM    2  N   UNL     1      -7.338   1.696 -33.609  1.00  0.00    -0.066 NA
HETATM    3  C   UNL     1      -6.219   1.017 -33.275  1.00  0.00     0.069 A 
HETATM    4  C   UNL     1      -5.142   1.633 -32.682  1.00  0.00     0.053 A 
HETATM    5  C   UNL     1      -3.937   0.884 -32.293  1.00  0.00     0.163 C 
HETATM    6  O   UNL     1      -3.007   1.469 -31.747  1.00  0.00    -0.292 OA
HETATM    7  C   UNL     1      -3.931  -0.612 -32.520  1.00  0.00     0.093 C 
HETATM    8  C   UNL     1      -4.806  -1.003 -33.717  1.00  0.00     0.031 C 
HETATM    9  C   UNL     1      -6.232  -0.463 -33.534  1.00  0.00     0.070 C 
HETATM   10  C   UNL     1      -5.266   2.984 -32.470  1.00  0.00     0.153 A 
HETATM   11  N   UNL     1      -6.372   3.690 -32.802  1.00  0.00    -0.073 NA
ENDROOT
BRANCH   1  12
HETATM   12  N   UNL     1      -8.510   3.763 -33.665  1.00  0.00    -0.015 N 
HETATM   13  H   UNL     1      -8.312   4.670 -34.041  1.00  0.00     0.203 HD
BRANCH  12  14
HETATM   14  C   UNL     1      -9.852   3.528 -33.449  1.00  0.00     0.742 A 
HETATM   15  N   UNL     1     -10.466   2.799 -34.395  1.00  0.00    -0.066 NA
HETATM   16  C   UNL     1     -11.785   2.543 -34.242  1.00  0.00     0.062 A 
HETATM   17  C   UNL     1     -12.417   1.732 -35.336  1.00  0.00     0.072 C 
HETATM   18  C   UNL     1     -12.523   3.001 -33.145  1.00  0.00     0.018 A 
HETATM   19  C   UNL     1     -11.786   3.744 -32.220  1.00  0.00     0.088 A 
HETATM   20  C   UNL     1     -13.903   2.771 -32.920  1.00  0.00     0.016 A 
HETATM   21  N   UNL     1     -10.485   4.001 -32.371  1.00  0.00    -0.062 NA
HETATM   22  C   UNL     1     -12.435   4.240 -31.095  1.00  0.00     0.033 A 
HETATM   23  C   UNL     1     -13.795   4.016 -30.869  1.00  0.00     0.002 A 
HETATM   24  C   UNL     1     -14.533   3.279 -31.785  1.00  0.00     0.001 A 
ENDBRANCH  12  14
ENDBRANCH   1  12
BRANCH   8  25
HETATM   25  C   UNL     1      -4.799  -2.502 -33.955  1.00  0.00    -0.053 A 
HETATM   26  C   UNL     1      -5.819  -3.141 -34.677  1.00  0.00     0.007 A 
HETATM   27  C   UNL     1      -5.784  -4.520 -34.893  1.00  0.00     0.001 A 
HETATM   28  C   UNL     1      -4.732  -5.280 -34.390  1.00  0.00     0.000 A 
HETATM   29  C   UNL     1      -3.714  -4.661 -33.667  1.00  0.00     0.001 A 
HETATM   30  C   UNL     1      -3.747  -3.282 -33.450  1.00  0.00     0.007 A 
ENDBRANCH   8  25
TORSDOF 3
ENDMDL
MODEL 8
REMARK VINA RESULT:      -9.9      5.963     10.283
REMARK  3 active torsions:
REMARK  status: ('A' for Active; 'I' for Inactive)
REMARK    1  A    between atoms: C_4  and  N_5 
REMARK    2  A    between atoms: N_5  and  C_6 
REMARK    3  A    between atoms: C_13  and  C_14 
ROOT
HETATM    1  C   UNL     1      -3.786   3.476 -32.025  1.00  0.00     0.741 A 
HETATM    2  N   UNL     1      -3.775   4.553 -31.221  1.00  0.00    -0.066 NA
HETATM    3  C   UNL     1      -3.045   5.629 -31.583  1.00  0.00     0.069 A 
HETATM    4  C   UNL     1      -2.325   5.662 -32.755  1.00  0.00     0.053 A 
HETATM    5  C   UNL     1      -1.555   6.848 -33.160  1.00  0.00     0.163 C 
HETATM    6  O   UNL     1      -0.944   6.842 -34.224  1.00  0.00    -0.292 OA
HETATM    7  C   UNL     1      -1.614   8.068 -32.267  1.00  0.00     0.093 C 
HETATM    8  C   UNL     1      -1.839   7.681 -30.801  1.00  0.00     0.031 C 
HETATM    9  C   UNL     1      -3.102   6.818 -30.665  1.00  0.00     0.070 C 
HETATM   10  C   UNL     1      -2.378   4.524 -33.523  1.00  0.00     0.153 A 
HETATM   11  N   UNL     1      -3.095   3.429 -33.180  1.00  0.00    -0.073 NA
ENDROOT
BRANCH   1  12
HETATM   12  N   UNL     1      -4.525   2.354 -31.723  1.00  0.00    -0.015 N 
HETATM   13  H   UNL     1      -4.780   2.276 -30.757  1.00  0.00     0.203 HD
BRANCH  12  14
HETATM   14  C   UNL     1      -4.894   1.267 -32.488  1.00  0.00     0.742 A 
HETATM   15  N   UNL     1      -5.950   1.464 -33.292  1.00  0.00    -0.066 NA
HETATM   16  C   UNL     1      -6.363   0.430 -34.061  1.00  0.00     0.062 A 
HETATM   17  C   UNL     1      -7.554   0.708 -34.931  1.00  0.00     0.072 C 
HETATM   18  C   UNL     1      -5.734  -0.820 -34.051  1.00  0.00     0.018 A 
HETATM   19  C   UNL     1      -4.644  -0.913 -33.183  1.00  0.00     0.088 A 
HETATM   20  C   UNL     1      -6.111  -1.943 -34.828  1.00  0.00     0.016 A 
HETATM   21  N   UNL     1      -4.236   0.104 -32.421  1.00  0.00    -0.062 NA
HETATM   22  C   UNL     1      -3.954  -2.117 -33.107  1.00  0.00     0.033 A 
HETATM   23  C   UNL     1      -4.322  -3.228 -33.870  1.00  0.00     0.002 A 
HETATM   24  C   UNL     1      -5.405  -3.142 -34.735  1.00  0.00     0.001 A 
ENDBRANCH  12  14
ENDBRANCH   1  12
BRANCH   8  25
HETATM   25  C   UNL     1      -1.893   8.900 -29.898  1.00  0.00    -0.053 A 
HETATM   26  C   UNL     1      -1.241   8.929 -28.655  1.00  0.00     0.007 A 
HETATM   27  C   UNL     1      -1.294  10.067 -27.848  1.00  0.00     0.001 A 
HETATM   28  C   UNL     1      -2.001  11.190 -28.269  1.00  0.00     0.000 A 
HETATM   29  C   UNL     1      -2.658  11.175 -29.498  1.00  0.00     0.001 A 
HETATM   30  C   UNL     1      -2.605  10.038 -30.307  1.00  0.00     0.007 A 
ENDBRANCH   8  25
TORSDOF 3
ENDMDL
MODEL 9
REMARK VINA RESULT:      -9.7      4.231      8.146
REMARK  3 active torsions:
REMARK  status: ('A' for Active; 'I' for Inactive)
REMARK    1  A    between atoms: C_4  and  N_5 
REMARK    2  A    between atoms: N_5  and  C_6 
REMARK    3  A    between atoms: C_13  and  C_14 
ROOT
HETATM    1  C   UNL     1      -6.430   3.559 -31.651  1.00  0.00     0.741 A 
HETATM    2  N   UNL     1      -5.886   2.380 -31.997  1.00  0.00    -0.066 NA
HETATM    3  C   UNL     1      -6.558   1.579 -32.852  1.00  0.00     0.069 A 
HETATM    4  C   UNL     1      -7.772   1.939 -33.388  1.00  0.00     0.053 A 
HETATM    5  C   UNL     1      -8.486   1.077 -34.343  1.00  0.00     0.163 C 
HETATM    6  O   UNL     1      -9.557   1.446 -34.814  1.00  0.00    -0.292 OA
HETATM    7  C   UNL     1      -7.819  -0.215 -34.764  1.00  0.00     0.093 C 
HETATM    8  C   UNL     1      -6.913  -0.766 -33.657  1.00  0.00     0.031 C 
HETATM    9  C   UNL     1      -5.883   0.292 -33.234  1.00  0.00     0.070 C 
HETATM   10  C   UNL     1      -8.269   3.154 -32.985  1.00  0.00     0.153 A 
HETATM   11  N   UNL     1      -7.621   3.973 -32.123  1.00  0.00    -0.073 NA
ENDROOT
BRANCH   1  12
HETATM   12  N   UNL     1      -5.788   4.430 -30.799  1.00  0.00    -0.015 N 
HETATM   13  H   UNL     1      -6.275   4.602 -29.940  1.00  0.00     0.203 HD
BRANCH  12  14
HETATM   14  C   UNL     1      -4.645   5.186 -30.953  1.00  0.00     0.742 A 
HETATM   15  N   UNL     1      -4.830   6.515 -30.946  1.00  0.00    -0.066 NA
HETATM   16  C   UNL     1      -3.746   7.309 -31.102  1.00  0.00     0.062 A 
HETATM   17  C   UNL     1      -4.019   8.785 -31.096  1.00  0.00     0.072 C 
HETATM   18  C   UNL     1      -2.452   6.800 -31.263  1.00  0.00     0.018 A 
HETATM   19  C   UNL     1      -2.372   5.405 -31.250  1.00  0.00     0.088 A 
HETATM   20  C   UNL     1      -1.274   7.568 -31.429  1.00  0.00     0.016 A 
HETATM   21  N   UNL     1      -3.442   4.621 -31.099  1.00  0.00    -0.062 NA
HETATM   22  C   UNL     1      -1.127   4.808 -31.400  1.00  0.00     0.033 A 
HETATM   23  C   UNL     1       0.038   5.561 -31.565  1.00  0.00     0.002 A 
HETATM   24  C   UNL     1      -0.035   6.948 -31.580  1.00  0.00     0.001 A 
ENDBRANCH  12  14
ENDBRANCH   1  12
BRANCH   8  25
HETATM   25  C   UNL     1      -6.245  -2.065 -34.070  1.00  0.00    -0.053 A 
HETATM   26  C   UNL     1      -4.861  -2.261 -33.939  1.00  0.00     0.007 A 
HETATM   27  C   UNL     1      -4.273  -3.469 -34.314  1.00  0.00     0.001 A 
HETATM   28  C   UNL     1      -5.056  -4.499 -34.827  1.00  0.00     0.000 A 
HETATM   29  C   UNL     1      -6.430  -4.320 -34.969  1.00  0.00     0.001 A 
HETATM   30  C   UNL     1      -7.022  -3.111 -34.594  1.00  0.00     0.007 A 
ENDBRANCH   8  25
TORSDOF 3
ENDMDL
MODEL 10
REMARK VINA RESULT:      -9.4      2.465      3.146
REMARK  3 active torsions:
REMARK  status: ('A' for Active; 'I' for Inactive)
REMARK    1  A    between atoms: C_4  and  N_5 
REMARK    2  A    between atoms: N_5  and  C_6 
REMARK    3  A    between atoms: C_13  and  C_14 
ROOT
HETATM    1  C   UNL     1      -7.674   2.571 -30.853  1.00  0.00     0.741 A 
HETATM    2  N   UNL     1      -7.697   1.369 -31.454  1.00  0.00    -0.066 NA
HETATM    3  C   UNL     1      -6.526   0.775 -31.768  1.00  0.00     0.069 A 
HETATM    4  C   UNL     1      -5.313   1.356 -31.481  1.00  0.00     0.053 A 
HETATM    5  C   UNL     1      -4.040   0.692 -31.798  1.00  0.00     0.163 C 
HETATM    6  O   UNL     1      -2.980   1.236 -31.506  1.00  0.00    -0.292 OA
HETATM    7  C   UNL     1      -4.097  -0.689 -32.415  1.00  0.00     0.093 C 
HETATM    8  C   UNL     1      -5.369  -0.879 -33.251  1.00  0.00     0.031 C 
HETATM    9  C   UNL     1      -6.614  -0.585 -32.402  1.00  0.00     0.070 C 
HETATM   10  C   UNL     1      -5.367   2.586 -30.873  1.00  0.00     0.153 A 
HETATM   11  N   UNL     1      -6.526   3.208 -30.554  1.00  0.00    -0.073 NA
ENDROOT
BRANCH   1  12
HETATM   12  N   UNL     1      -8.832   3.221 -30.489  1.00  0.00    -0.015 N 
HETATM   13  H   UNL     1      -8.959   3.316 -29.500  1.00  0.00     0.203 HD
BRANCH  12  14
HETATM   14  C   UNL     1      -9.898   3.679 -31.235  1.00  0.00     0.742 A 
HETATM   15  N   UNL     1     -11.036   3.872 -30.551  1.00  0.00    -0.066 NA
HETATM   16  C   UNL     1     -12.119   4.313 -31.232  1.00  0.00     0.062 A 
HETATM   17  C   UNL     1     -13.364   4.500 -30.414  1.00  0.00     0.072 C 
HETATM   18  C   UNL     1     -12.094   4.577 -32.606  1.00  0.00     0.018 A 
HETATM   19  C   UNL     1     -10.860   4.347 -33.218  1.00  0.00     0.088 A 
HETATM   20  C   UNL     1     -13.186   5.040 -33.381  1.00  0.00     0.016 A 
HETATM   21  N   UNL     1      -9.791   3.910 -32.548  1.00  0.00    -0.062 NA
HETATM   22  C   UNL     1     -10.738   4.584 -34.581  1.00  0.00     0.033 A 
HETATM   23  C   UNL     1     -11.811   5.040 -35.350  1.00  0.00     0.002 A 
HETATM   24  C   UNL     1     -13.041   5.269 -34.748  1.00  0.00     0.001 A 
ENDBRANCH  12  14
ENDBRANCH   1  12
BRANCH   8  25
HETATM   25  C   UNL     1      -5.430  -2.261 -33.877  1.00  0.00    -0.053 A 
HETATM   26  C   UNL     1      -4.327  -3.129 -33.863  1.00  0.00     0.007 A 
HETATM   27  C   UNL     1      -4.413  -4.400 -34.435  1.00  0.00     0.001 A 
HETATM   28  C   UNL     1      -5.599  -4.820 -35.031  1.00  0.00     0.000 A 
HETATM   29  C   UNL     1      -6.701  -3.968 -35.058  1.00  0.00     0.001 A 
HETATM   30  C   UNL     1      -6.618  -2.696 -34.485  1.00  0.00     0.007 A 
ENDBRANCH   8  25
TORSDOF 3
ENDMDL
