MODEL 1
REMARK VINA RESULT:      -8.0      0.000      0.000
REMARK  4 active torsions:
REMARK  status: ('A' for Active; 'I' for Inactive)
REMARK    1  A    between atoms: S_2  and  N_3 
REMARK    2  A    between atoms: N_3  and  N_4 
REMARK    3  A    between atoms: C_10  and  C_11 
REMARK    4  A    between atoms: C_14  and  O_15 
ROOT
HETATM    1  N   UNL     1      -8.471   0.813 -31.869  1.00  0.00    -0.224 N 
HETATM    2  C   UNL     1      -7.192   0.488 -31.419  1.00  0.00     0.276 C 
HETATM    3  O   UNL     1      -6.669   0.905 -30.392  1.00  0.00    -0.266 OA
HETATM    4  C   UNL     1      -6.405  -0.398 -32.311  1.00  0.00     0.055 A 
HETATM    5  C   UNL     1      -6.943  -0.751 -33.557  1.00  0.00     0.026 A 
HETATM    6  N   UNL     1      -8.205  -0.283 -33.960  1.00  0.00    -0.265 NA
HETATM    7  C   UNL     1      -9.119  -0.064 -32.843  1.00  0.00     0.222 C 
HETATM    8  C   UNL     1      -5.123  -0.819 -31.934  1.00  0.00     0.019 A 
HETATM    9  C   UNL     1      -4.353  -1.568 -32.822  1.00  0.00     0.001 A 
HETATM   10  C   UNL     1      -4.854  -1.873 -34.086  1.00  0.00     0.002 A 
HETATM   11  C   UNL     1      -6.135  -1.455 -34.456  1.00  0.00     0.024 A 
HETATM   12  H   UNL     1      -8.619  -0.865 -34.683  1.00  0.00     0.130 HD
ENDROOT
BRANCH   7  13
HETATM   13  C   UNL     1     -10.436   0.463 -33.396  1.00  0.00    -0.019 A 
HETATM   14  C   UNL     1     -10.446   1.590 -34.239  1.00  0.00     0.013 A 
HETATM   15  C   UNL     1     -11.642   2.060 -34.789  1.00  0.00     0.037 A 
HETATM   16  C   UNL     1     -12.832   1.403 -34.499  1.00  0.00     0.065 A 
HETATM   17  C   UNL     1     -12.847   0.289 -33.669  1.00  0.00     0.037 A 
HETATM   18  C   UNL     1     -11.654  -0.183 -33.121  1.00  0.00     0.013 A 
BRANCH  16  19
HETATM   19  O   UNL     1     -14.020   1.823 -35.017  1.00  0.00    -0.361 OA
HETATM   20  H   UNL     1     -14.625   1.065 -35.076  1.00  0.00     0.217 HD
ENDBRANCH  16  19
ENDBRANCH   7  13
BRANCH   1  21
HETATM   21  N   UNL     1      -9.374   1.669 -31.056  1.00  0.00    -0.220 N 
HETATM   22  H   UNL     1     -10.366   1.409 -31.026  1.00  0.00     0.200 HD
BRANCH  21  23
HETATM   23  S   UNL     1      -9.236   3.341 -30.902  1.00  0.00     0.240 S 
HETATM   24  C   UNL     1      -8.405   3.859 -32.397  1.00  0.00     0.187 C 
HETATM   25  O   UNL     1      -8.450   3.672 -29.736  1.00  0.00    -0.205 OA
HETATM   26  O   UNL     1     -10.605   3.810 -31.008  1.00  0.00    -0.205 OA
ENDBRANCH  21  23
ENDBRANCH   1  21
TORSDOF 4
ENDMDL
MODEL 2
REMARK VINA RESULT:      -7.8      2.701      3.766
REMARK  4 active torsions:
REMARK  status: ('A' for Active; 'I' for Inactive)
REMARK    1  A    between atoms: S_2  and  N_3 
REMARK    2  A    between atoms: N_3  and  N_4 
REMARK    3  A    between atoms: C_10  and  C_11 
REMARK    4  A    between atoms: C_14  and  O_15 
ROOT
HETATM    1  N   UNL     1      -5.514   0.005 -33.202  1.00  0.00    -0.224 N 
HETATM    2  C   UNL     1      -4.554  -0.985 -33.403  1.00  0.00     0.276 C 
HETATM    3  O   UNL     1      -3.344  -0.844 -33.265  1.00  0.00    -0.266 OA
HETATM    4  C   UNL     1      -5.070  -2.292 -33.878  1.00  0.00     0.055 A 
HETATM    5  C   UNL     1      -6.433  -2.408 -34.183  1.00  0.00     0.026 A 
HETATM    6  N   UNL     1      -7.303  -1.314 -34.042  1.00  0.00    -0.265 NA
HETATM    7  C   UNL     1      -6.903  -0.397 -32.979  1.00  0.00     0.222 C 
HETATM    8  C   UNL     1      -4.194  -3.367 -34.073  1.00  0.00     0.019 A 
HETATM    9  C   UNL     1      -4.672  -4.559 -34.615  1.00  0.00     0.001 A 
HETATM   10  C   UNL     1      -6.013  -4.665 -34.978  1.00  0.00     0.002 A 
HETATM   11  C   UNL     1      -6.885  -3.591 -34.777  1.00  0.00     0.024 A 
HETATM   12  H   UNL     1      -8.274  -1.601 -33.951  1.00  0.00     0.130 HD
ENDROOT
BRANCH   7  13
HETATM   13  C   UNL     1      -7.899   0.754 -32.937  1.00  0.00    -0.019 A 
HETATM   14  C   UNL     1      -8.379   1.315 -34.135  1.00  0.00     0.013 A 
HETATM   15  C   UNL     1      -9.325   2.343 -34.114  1.00  0.00     0.037 A 
HETATM   16  C   UNL     1      -9.796   2.814 -32.893  1.00  0.00     0.065 A 
HETATM   17  C   UNL     1      -9.337   2.275 -31.697  1.00  0.00     0.037 A 
HETATM   18  C   UNL     1      -8.393   1.248 -31.717  1.00  0.00     0.013 A 
BRANCH  16  19
HETATM   19  O   UNL     1     -10.722   3.810 -32.825  1.00  0.00    -0.361 OA
HETATM   20  H   UNL     1     -11.608   3.415 -32.774  1.00  0.00     0.217 HD
ENDBRANCH  16  19
ENDBRANCH   7  13
BRANCH   1  21
HETATM   21  N   UNL     1      -5.134   1.350 -32.699  1.00  0.00    -0.220 N 
HETATM   22  H   UNL     1      -4.744   2.013 -33.377  1.00  0.00     0.200 HD
BRANCH  21  23
HETATM   23  S   UNL     1      -4.472   1.659 -31.181  1.00  0.00     0.240 S 
HETATM   24  C   UNL     1      -5.280   3.158 -30.638  1.00  0.00     0.187 C 
HETATM   25  O   UNL     1      -3.045   1.854 -31.288  1.00  0.00    -0.205 OA
HETATM   26  O   UNL     1      -4.995   0.587 -30.354  1.00  0.00    -0.205 OA
ENDBRANCH  21  23
ENDBRANCH   1  21
TORSDOF 4
ENDMDL
MODEL 3
REMARK VINA RESULT:      -7.5      3.235      5.576
REMARK  4 active torsions:
REMARK  status: ('A' for Active; 'I' for Inactive)
REMARK    1  A    between atoms: S_2  and  N_3 
REMARK    2  A    between atoms: N_3  and  N_4 
REMARK    3  A    between atoms: C_10  and  C_11 
REMARK    4  A    between atoms: C_14  and  O_15 
ROOT
HETATM    1  N   UNL     1      -5.754  -0.056 -33.518  1.00  0.00    -0.224 N 
HETATM    2  C   UNL     1      -5.820  -1.264 -34.210  1.00  0.00     0.276 C 
HETATM    3  O   UNL     1      -6.626  -1.538 -35.092  1.00  0.00    -0.266 OA
HETATM    4  C   UNL     1      -4.853  -2.303 -33.780  1.00  0.00     0.055 A 
HETATM    5  C   UNL     1      -4.035  -2.045 -32.671  1.00  0.00     0.026 A 
HETATM    6  N   UNL     1      -4.119  -0.827 -31.976  1.00  0.00    -0.265 NA
HETATM    7  C   UNL     1      -4.513   0.292 -32.827  1.00  0.00     0.222 C 
HETATM    8  C   UNL     1      -4.808  -3.539 -34.437  1.00  0.00     0.019 A 
HETATM    9  C   UNL     1      -3.967  -4.544 -33.962  1.00  0.00     0.001 A 
HETATM   10  C   UNL     1      -3.194  -4.319 -32.825  1.00  0.00     0.002 A 
HETATM   11  C   UNL     1      -3.239  -3.082 -32.175  1.00  0.00     0.024 A 
HETATM   12  H   UNL     1      -3.275  -0.625 -31.448  1.00  0.00     0.130 HD
ENDROOT
BRANCH   7  13
HETATM   13  C   UNL     1      -4.596   1.545 -31.965  1.00  0.00    -0.019 A 
HETATM   14  C   UNL     1      -3.994   2.741 -32.399  1.00  0.00     0.013 A 
HETATM   15  C   UNL     1      -4.098   3.909 -31.640  1.00  0.00     0.037 A 
HETATM   16  C   UNL     1      -4.805   3.886 -30.443  1.00  0.00     0.065 A 
HETATM   17  C   UNL     1      -5.407   2.717 -29.993  1.00  0.00     0.037 A 
HETATM   18  C   UNL     1      -5.306   1.550 -30.751  1.00  0.00     0.013 A 
BRANCH  16  19
HETATM   19  O   UNL     1      -4.936   5.002 -29.673  1.00  0.00    -0.361 OA
HETATM   20  H   UNL     1      -5.857   5.309 -29.716  1.00  0.00     0.217 HD
ENDBRANCH  16  19
ENDBRANCH   7  13
BRANCH   1  21
HETATM   21  N   UNL     1      -6.647   1.079 -33.870  1.00  0.00    -0.220 N 
HETATM   22  H   UNL     1      -6.212   1.999 -33.993  1.00  0.00     0.200 HD
BRANCH  21  23
HETATM   23  S   UNL     1      -8.217   1.282 -33.293  1.00  0.00     0.240 S 
HETATM   24  C   UNL     1      -8.287   2.994 -32.784  1.00  0.00     0.187 C 
HETATM   25  O   UNL     1      -8.456   0.403 -32.173  1.00  0.00    -0.205 OA
HETATM   26  O   UNL     1      -9.038   1.173 -34.485  1.00  0.00    -0.205 OA
ENDBRANCH  21  23
ENDBRANCH   1  21
TORSDOF 4
ENDMDL
MODEL 4
REMARK VINA RESULT:      -7.5      2.169      6.009
REMARK  4 active torsions:
REMARK  status: ('A' for Active; 'I' for Inactive)
REMARK    1  A    between atoms: S_2  and  N_3 
REMARK    2  A    between atoms: N_3  and  N_4 
REMARK    3  A    between atoms: C_10  and  C_11 
REMARK    4  A    between atoms: C_14  and  O_15 
ROOT
HETATM    1  N   UNL     1      -9.006   2.071 -34.093  1.00  0.00    -0.224 N 
HETATM    2  C   UNL     1     -10.203   2.655 -34.504  1.00  0.00     0.276 C 
HETATM    3  O   UNL     1     -10.329   3.790 -34.946  1.00  0.00    -0.266 OA
HETATM    4  C   UNL     1     -11.417   1.821 -34.326  1.00  0.00     0.055 A 
HETATM    5  C   UNL     1     -11.296   0.583 -33.679  1.00  0.00     0.026 A 
HETATM    6  N   UNL     1     -10.052   0.130 -33.208  1.00  0.00    -0.265 NA
HETATM    7  C   UNL     1      -8.928   0.613 -34.004  1.00  0.00     0.222 C 
HETATM    8  C   UNL     1     -12.667   2.296 -34.744  1.00  0.00     0.019 A 
HETATM    9  C   UNL     1     -13.814   1.549 -34.482  1.00  0.00     0.001 A 
HETATM   10  C   UNL     1     -13.712   0.346 -33.786  1.00  0.00     0.002 A 
HETATM   11  C   UNL     1     -12.462  -0.127 -33.375  1.00  0.00     0.024 A 
HETATM   12  H   UNL     1     -10.028  -0.879 -33.089  1.00  0.00     0.130 HD
ENDROOT
BRANCH   7  13
HETATM   13  C   UNL     1      -7.640   0.083 -33.387  1.00  0.00    -0.019 A 
HETATM   14  C   UNL     1      -6.647  -0.484 -34.207  1.00  0.00     0.013 A 
HETATM   15  C   UNL     1      -5.442  -0.936 -33.662  1.00  0.00     0.037 A 
HETATM   16  C   UNL     1      -5.227  -0.822 -32.293  1.00  0.00     0.065 A 
HETATM   17  C   UNL     1      -6.192  -0.266 -31.463  1.00  0.00     0.037 A 
HETATM   18  C   UNL     1      -7.394   0.188 -32.007  1.00  0.00     0.013 A 
BRANCH  16  19
HETATM   19  O   UNL     1      -4.065  -1.244 -31.719  1.00  0.00    -0.361 OA
HETATM   20  H   UNL     1      -3.558  -0.470 -31.425  1.00  0.00     0.217 HD
ENDBRANCH  16  19
ENDBRANCH   7  13
BRANCH   1  21
HETATM   21  N   UNL     1      -7.713   2.788 -34.244  1.00  0.00    -0.220 N 
HETATM   22  H   UNL     1      -6.916   2.250 -34.601  1.00  0.00     0.200 HD
BRANCH  21  23
HETATM   23  S   UNL     1      -7.149   3.985 -33.201  1.00  0.00     0.240 S 
HETATM   24  C   UNL     1      -5.514   3.437 -32.735  1.00  0.00     0.187 C 
HETATM   25  O   UNL     1      -8.007   4.084 -32.043  1.00  0.00    -0.205 OA
HETATM   26  O   UNL     1      -6.967   5.136 -34.066  1.00  0.00    -0.205 OA
ENDBRANCH  21  23
ENDBRANCH   1  21
TORSDOF 4
ENDMDL
MODEL 5
REMARK VINA RESULT:      -7.4      3.367      6.354
REMARK  4 active torsions:
REMARK  status: ('A' for Active; 'I' for Inactive)
REMARK    1  A    between atoms: S_2  and  N_3 
REMARK    2  A    between atoms: N_3  and  N_4 
REMARK    3  A    between atoms: C_10  and  C_11 
REMARK    4  A    between atoms: C_14  and  O_15 
ROOT
HETATM    1  N   UNL     1      -5.712   0.513 -33.479  1.00  0.00    -0.224 N 
HETATM    2  C   UNL     1      -6.133   1.829 -33.301  1.00  0.00     0.276 C 
HETATM    3  O   UNL     1      -5.475   2.725 -32.785  1.00  0.00    -0.266 OA
HETATM    4  C   UNL     1      -7.521   2.123 -33.734  1.00  0.00     0.055 A 
HETATM    5  C   UNL     1      -8.326   1.067 -34.182  1.00  0.00     0.026 A 
HETATM    6  N   UNL     1      -7.835  -0.249 -34.227  1.00  0.00    -0.265 NA
HETATM    7  C   UNL     1      -6.397  -0.317 -34.470  1.00  0.00     0.222 C 
HETATM    8  C   UNL     1      -8.029   3.425 -33.636  1.00  0.00     0.019 A 
HETATM    9  C   UNL     1      -9.364   3.671 -33.951  1.00  0.00     0.001 A 
HETATM   10  C   UNL     1     -10.189   2.617 -34.339  1.00  0.00     0.002 A 
HETATM   11  C   UNL     1      -9.677   1.320 -34.440  1.00  0.00     0.024 A 
HETATM   12  H   UNL     1      -8.359  -0.835 -34.872  1.00  0.00     0.130 HD
ENDROOT
BRANCH   7  13
HETATM   13  C   UNL     1      -5.979  -1.781 -34.472  1.00  0.00    -0.019 A 
HETATM   14  C   UNL     1      -6.954  -2.793 -34.543  1.00  0.00     0.013 A 
HETATM   15  C   UNL     1      -6.583  -4.140 -34.589  1.00  0.00     0.037 A 
HETATM   16  C   UNL     1      -5.235  -4.479 -34.564  1.00  0.00     0.065 A 
HETATM   17  C   UNL     1      -4.255  -3.498 -34.494  1.00  0.00     0.037 A 
HETATM   18  C   UNL     1      -4.623  -2.153 -34.450  1.00  0.00     0.013 A 
BRANCH  16  19
HETATM   19  O   UNL     1      -4.828  -5.778 -34.612  1.00  0.00    -0.361 OA
HETATM   20  H   UNL     1      -4.027  -5.839 -35.158  1.00  0.00     0.217 HD
ENDBRANCH  16  19
ENDBRANCH   7  13
BRANCH   1  21
HETATM   21  N   UNL     1      -4.334   0.092 -33.115  1.00  0.00    -0.220 N 
HETATM   22  H   UNL     1      -3.911  -0.661 -33.667  1.00  0.00     0.200 HD
BRANCH  21  23
HETATM   23  S   UNL     1      -3.731   0.033 -31.543  1.00  0.00     0.240 S 
HETATM   24  C   UNL     1      -5.186   0.011 -30.507  1.00  0.00     0.187 C 
HETATM   25  O   UNL     1      -2.925   1.200 -31.272  1.00  0.00    -0.205 OA
HETATM   26  O   UNL     1      -3.140  -1.290 -31.451  1.00  0.00    -0.205 OA
ENDBRANCH  21  23
ENDBRANCH   1  21
TORSDOF 4
ENDMDL
MODEL 6
REMARK VINA RESULT:      -7.3      2.629      3.444
REMARK  4 active torsions:
REMARK  status: ('A' for Active; 'I' for Inactive)
REMARK    1  A    between atoms: S_2  and  N_3 
REMARK    2  A    between atoms: N_3  and  N_4 
REMARK    3  A    between atoms: C_10  and  C_11 
REMARK    4  A    between atoms: C_14  and  O_15 
ROOT
HETATM    1  N   UNL     1      -5.829   0.771 -32.797  1.00  0.00    -0.224 N 
HETATM    2  C   UNL     1      -4.802  -0.137 -33.048  1.00  0.00     0.276 C 
HETATM    3  O   UNL     1      -3.605   0.076 -32.889  1.00  0.00    -0.266 OA
HETATM    4  C   UNL     1      -5.224  -1.444 -33.609  1.00  0.00     0.055 A 
HETATM    5  C   UNL     1      -6.574  -1.634 -33.935  1.00  0.00     0.026 A 
HETATM    6  N   UNL     1      -7.518  -0.612 -33.737  1.00  0.00    -0.265 NA
HETATM    7  C   UNL     1      -7.188   0.262 -32.615  1.00  0.00     0.222 C 
HETATM    8  C   UNL     1      -4.274  -2.443 -33.859  1.00  0.00     0.019 A 
HETATM    9  C   UNL     1      -4.666  -3.629 -34.478  1.00  0.00     0.001 A 
HETATM   10  C   UNL     1      -5.995  -3.803 -34.862  1.00  0.00     0.002 A 
HETATM   11  C   UNL     1      -6.939  -2.805 -34.605  1.00  0.00     0.024 A 
HETATM   12  H   UNL     1      -8.467  -0.970 -33.675  1.00  0.00     0.130 HD
ENDROOT
BRANCH   7  13
HETATM   13  C   UNL     1      -8.261   1.339 -32.514  1.00  0.00    -0.019 A 
HETATM   14  C   UNL     1      -8.935   1.774 -33.670  1.00  0.00     0.013 A 
HETATM   15  C   UNL     1      -9.951   2.729 -33.587  1.00  0.00     0.037 A 
HETATM   16  C   UNL     1     -10.298   3.253 -32.347  1.00  0.00     0.065 A 
HETATM   17  C   UNL     1      -9.647   2.839 -31.191  1.00  0.00     0.037 A 
HETATM   18  C   UNL     1      -8.633   1.884 -31.272  1.00  0.00     0.013 A 
BRANCH  16  19
HETATM   19  O   UNL     1     -11.285   4.182 -32.218  1.00  0.00    -0.361 OA
HETATM   20  H   UNL     1     -10.884   5.047 -32.031  1.00  0.00     0.217 HD
ENDBRANCH  16  19
ENDBRANCH   7  13
BRANCH   1  21
HETATM   21  N   UNL     1      -5.545   2.105 -32.208  1.00  0.00    -0.220 N 
HETATM   22  H   UNL     1      -5.999   2.332 -31.317  1.00  0.00     0.200 HD
BRANCH  21  23
HETATM   23  S   UNL     1      -5.328   3.521 -33.095  1.00  0.00     0.240 S 
HETATM   24  C   UNL     1      -6.163   4.779 -32.139  1.00  0.00     0.187 C 
HETATM   25  O   UNL     1      -5.925   3.389 -34.403  1.00  0.00    -0.205 OA
HETATM   26  O   UNL     1      -3.906   3.788 -32.973  1.00  0.00    -0.205 OA
ENDBRANCH  21  23
ENDBRANCH   1  21
TORSDOF 4
ENDMDL
MODEL 7
REMARK VINA RESULT:      -7.1      3.795      4.969
REMARK  4 active torsions:
REMARK  status: ('A' for Active; 'I' for Inactive)
REMARK    1  A    between atoms: S_2  and  N_3 
REMARK    2  A    between atoms: N_3  and  N_4 
REMARK    3  A    between atoms: C_10  and  C_11 
REMARK    4  A    between atoms: C_14  and  O_15 
ROOT
HETATM    1  N   UNL     1      -4.865   1.361 -31.938  1.00  0.00    -0.224 N 
HETATM    2  C   UNL     1      -4.204   0.238 -32.433  1.00  0.00     0.276 C 
HETATM    3  O   UNL     1      -3.000   0.025 -32.354  1.00  0.00    -0.266 OA
HETATM    4  C   UNL     1      -5.054  -0.735 -33.162  1.00  0.00     0.055 A 
HETATM    5  C   UNL     1      -6.401  -0.419 -33.387  1.00  0.00     0.026 A 
HETATM    6  N   UNL     1      -6.947   0.793 -32.932  1.00  0.00    -0.265 NA
HETATM    7  C   UNL     1      -6.308   1.288 -31.716  1.00  0.00     0.222 C 
HETATM    8  C   UNL     1      -4.498  -1.918 -33.665  1.00  0.00     0.019 A 
HETATM    9  C   UNL     1      -5.281  -2.778 -34.434  1.00  0.00     0.001 A 
HETATM   10  C   UNL     1      -6.604  -2.443 -34.714  1.00  0.00     0.002 A 
HETATM   11  C   UNL     1      -7.157  -1.264 -34.206  1.00  0.00     0.024 A 
HETATM   12  H   UNL     1      -7.958   0.752 -32.841  1.00  0.00     0.130 HD
ENDROOT
BRANCH   7  13
HETATM   13  C   UNL     1      -6.961   2.610 -31.335  1.00  0.00    -0.019 A 
HETATM   14  C   UNL     1      -7.209   2.911 -29.983  1.00  0.00     0.013 A 
HETATM   15  C   UNL     1      -7.767   4.138 -29.614  1.00  0.00     0.037 A 
HETATM   16  C   UNL     1      -8.079   5.069 -30.598  1.00  0.00     0.065 A 
HETATM   17  C   UNL     1      -7.843   4.796 -31.939  1.00  0.00     0.037 A 
HETATM   18  C   UNL     1      -7.284   3.572 -32.308  1.00  0.00     0.013 A 
BRANCH  16  19
HETATM   19  O   UNL     1      -8.620   6.280 -30.284  1.00  0.00    -0.361 OA
HETATM   20  H   UNL     1      -9.557   6.283 -30.539  1.00  0.00     0.217 HD
ENDBRANCH  16  19
ENDBRANCH   7  13
BRANCH   1  21
HETATM   21  N   UNL     1      -4.136   2.399 -31.163  1.00  0.00    -0.220 N 
HETATM   22  H   UNL     1      -4.482   2.613 -30.222  1.00  0.00     0.200 HD
BRANCH  21  23
HETATM   23  S   UNL     1      -3.443   3.784 -31.826  1.00  0.00     0.240 S 
HETATM   24  C   UNL     1      -4.158   5.131 -30.894  1.00  0.00     0.187 C 
HETATM   25  O   UNL     1      -3.781   3.892 -33.226  1.00  0.00    -0.205 OA
HETATM   26  O   UNL     1      -2.051   3.699 -31.423  1.00  0.00    -0.205 OA
ENDBRANCH  21  23
ENDBRANCH   1  21
TORSDOF 4
ENDMDL
MODEL 8
REMARK VINA RESULT:      -7.1      8.726     10.815
REMARK  4 active torsions:
REMARK  status: ('A' for Active; 'I' for Inactive)
REMARK    1  A    between atoms: S_2  and  N_3 
REMARK    2  A    between atoms: N_3  and  N_4 
REMARK    3  A    between atoms: C_10  and  C_11 
REMARK    4  A    between atoms: C_14  and  O_15 
ROOT
HETATM    1  N   UNL     1      -2.208   6.958 -29.194  1.00  0.00    -0.224 N 
HETATM    2  C   UNL     1      -2.125   7.430 -27.886  1.00  0.00     0.276 C 
HETATM    3  O   UNL     1      -3.067   7.565 -27.114  1.00  0.00    -0.266 OA
HETATM    4  C   UNL     1      -0.773   7.847 -27.439  1.00  0.00     0.055 A 
HETATM    5  C   UNL     1       0.277   7.838 -28.368  1.00  0.00     0.026 A 
HETATM    6  N   UNL     1       0.064   7.440 -29.699  1.00  0.00    -0.265 NA
HETATM    7  C   UNL     1      -0.998   6.447 -29.837  1.00  0.00     0.222 C 
HETATM    8  C   UNL     1      -0.572   8.298 -26.129  1.00  0.00     0.019 A 
HETATM    9  C   UNL     1       0.680   8.782 -25.749  1.00  0.00     0.001 A 
HETATM   10  C   UNL     1       1.714   8.834 -26.682  1.00  0.00     0.002 A 
HETATM   11  C   UNL     1       1.509   8.378 -27.987  1.00  0.00     0.024 A 
HETATM   12  H   UNL     1       0.922   7.146 -30.157  1.00  0.00     0.130 HD
ENDROOT
BRANCH   7  13
HETATM   13  C   UNL     1      -1.154   6.113 -31.314  1.00  0.00    -0.019 A 
HETATM   14  C   UNL     1      -1.579   4.830 -31.707  1.00  0.00     0.013 A 
HETATM   15  C   UNL     1      -1.769   4.522 -33.056  1.00  0.00     0.037 A 
HETATM   16  C   UNL     1      -1.535   5.497 -34.019  1.00  0.00     0.065 A 
HETATM   17  C   UNL     1      -1.116   6.771 -33.656  1.00  0.00     0.037 A 
HETATM   18  C   UNL     1      -0.927   7.081 -32.309  1.00  0.00     0.013 A 
BRANCH  16  19
HETATM   19  O   UNL     1      -1.712   5.243 -35.346  1.00  0.00    -0.361 OA
HETATM   20  H   UNL     1      -2.529   5.677 -35.645  1.00  0.00     0.217 HD
ENDBRANCH  16  19
ENDBRANCH   7  13
BRANCH   1  21
HETATM   21  N   UNL     1      -3.498   6.480 -29.756  1.00  0.00    -0.220 N 
HETATM   22  H   UNL     1      -3.539   5.508 -30.081  1.00  0.00     0.200 HD
BRANCH  21  23
HETATM   23  S   UNL     1      -4.550   7.417 -30.681  1.00  0.00     0.240 S 
HETATM   24  C   UNL     1      -4.926   6.397 -32.099  1.00  0.00     0.187 C 
HETATM   25  O   UNL     1      -3.904   8.643 -31.086  1.00  0.00    -0.205 OA
HETATM   26  O   UNL     1      -5.759   7.468 -29.879  1.00  0.00    -0.205 OA
ENDBRANCH  21  23
ENDBRANCH   1  21
TORSDOF 4
ENDMDL
MODEL 9
REMARK VINA RESULT:      -7.0      5.554      7.560
REMARK  4 active torsions:
REMARK  status: ('A' for Active; 'I' for Inactive)
REMARK    1  A    between atoms: S_2  and  N_3 
REMARK    2  A    between atoms: N_3  and  N_4 
REMARK    3  A    between atoms: C_10  and  C_11 
REMARK    4  A    between atoms: C_14  and  O_15 
ROOT
HETATM    1  N   UNL     1      -4.136   4.834 -31.921  1.00  0.00    -0.224 N 
HETATM    2  C   UNL     1      -3.597   6.118 -31.866  1.00  0.00     0.276 C 
HETATM    3  O   UNL     1      -4.161   7.145 -32.222  1.00  0.00    -0.266 OA
HETATM    4  C   UNL     1      -2.197   6.205 -31.381  1.00  0.00     0.055 A 
HETATM    5  C   UNL     1      -1.499   5.018 -31.119  1.00  0.00     0.026 A 
HETATM    6  N   UNL     1      -2.105   3.764 -31.305  1.00  0.00    -0.265 NA
HETATM    7  C   UNL     1      -3.548   3.787 -31.085  1.00  0.00     0.222 C 
HETATM    8  C   UNL     1      -1.574   7.452 -31.248  1.00  0.00     0.019 A 
HETATM    9  C   UNL     1      -0.229   7.518 -30.888  1.00  0.00     0.001 A 
HETATM   10  C   UNL     1       0.491   6.342 -30.684  1.00  0.00     0.002 A 
HETATM   11  C   UNL     1      -0.137   5.100 -30.813  1.00  0.00     0.024 A 
HETATM   12  H   UNL     1      -1.650   3.031 -30.769  1.00  0.00     0.130 HD
ENDROOT
BRANCH   7  13
HETATM   13  C   UNL     1      -4.095   2.389 -31.340  1.00  0.00    -0.019 A 
HETATM   14  C   UNL     1      -5.183   1.909 -30.588  1.00  0.00     0.013 A 
HETATM   15  C   UNL     1      -5.723   0.645 -30.839  1.00  0.00     0.037 A 
HETATM   16  C   UNL     1      -5.177  -0.144 -31.845  1.00  0.00     0.065 A 
HETATM   17  C   UNL     1      -4.103   0.308 -32.602  1.00  0.00     0.037 A 
HETATM   18  C   UNL     1      -3.564   1.571 -32.353  1.00  0.00     0.013 A 
BRANCH  16  19
HETATM   19  O   UNL     1      -5.675  -1.380 -32.128  1.00  0.00    -0.361 OA
HETATM   20  H   UNL     1      -6.182  -1.335 -32.956  1.00  0.00     0.217 HD
ENDBRANCH  16  19
ENDBRANCH   7  13
BRANCH   1  21
HETATM   21  N   UNL     1      -5.538   4.610 -32.361  1.00  0.00    -0.220 N 
HETATM   22  H   UNL     1      -6.125   4.010 -31.771  1.00  0.00     0.200 HD
BRANCH  21  23
HETATM   23  S   UNL     1      -6.031   4.463 -33.965  1.00  0.00     0.240 S 
HETATM   24  C   UNL     1      -6.518   2.751 -34.127  1.00  0.00     0.187 C 
HETATM   25  O   UNL     1      -4.936   4.772 -34.855  1.00  0.00    -0.205 OA
HETATM   26  O   UNL     1      -7.252   5.246 -34.022  1.00  0.00    -0.205 OA
ENDBRANCH  21  23
ENDBRANCH   1  21
TORSDOF 4
ENDMDL
MODEL 10
REMARK VINA RESULT:      -6.9      2.541      6.240
REMARK  4 active torsions:
REMARK  status: ('A' for Active; 'I' for Inactive)
REMARK    1  A    between atoms: S_2  and  N_3 
REMARK    2  A    between atoms: N_3  and  N_4 
REMARK    3  A    between atoms: C_10  and  C_11 
REMARK    4  A    between atoms: C_14  and  O_15 
ROOT
HETATM    1  N   UNL     1      -7.080   2.176 -33.459  1.00  0.00    -0.224 N 
HETATM    2  C   UNL     1      -8.203   2.930 -33.793  1.00  0.00     0.276 C 
HETATM    3  O   UNL     1      -8.209   4.131 -34.039  1.00  0.00    -0.266 OA
HETATM    4  C   UNL     1      -9.493   2.197 -33.787  1.00  0.00     0.055 A 
HETATM    5  C   UNL     1      -9.508   0.863 -33.358  1.00  0.00     0.026 A 
HETATM    6  N   UNL     1      -8.329   0.222 -32.942  1.00  0.00    -0.265 NA
HETATM    7  C   UNL     1      -7.136   0.723 -33.617  1.00  0.00     0.222 C 
HETATM    8  C   UNL     1     -10.677   2.852 -34.148  1.00  0.00     0.019 A 
HETATM    9  C   UNL     1     -11.896   2.183 -34.043  1.00  0.00     0.001 A 
HETATM   10  C   UNL     1     -11.929   0.877 -33.560  1.00  0.00     0.002 A 
HETATM   11  C   UNL     1     -10.744   0.226 -33.206  1.00  0.00     0.024 A 
HETATM   12  H   UNL     1      -8.400  -0.791 -32.995  1.00  0.00     0.130 HD
ENDROOT
BRANCH   7  13
HETATM   13  C   UNL     1      -5.926  -0.023 -33.070  1.00  0.00    -0.019 A 
HETATM   14  C   UNL     1      -5.628   0.028 -31.696  1.00  0.00     0.013 A 
HETATM   15  C   UNL     1      -4.546  -0.686 -31.172  1.00  0.00     0.037 A 
HETATM   16  C   UNL     1      -3.759  -1.454 -32.022  1.00  0.00     0.065 A 
HETATM   17  C   UNL     1      -4.033  -1.520 -33.382  1.00  0.00     0.037 A 
HETATM   18  C   UNL     1      -5.114  -0.810 -33.906  1.00  0.00     0.013 A 
BRANCH  16  19
HETATM   19  O   UNL     1      -2.698  -2.169 -31.554  1.00  0.00    -0.361 OA
HETATM   20  H   UNL     1      -3.026  -2.980 -31.130  1.00  0.00     0.217 HD
ENDBRANCH  16  19
ENDBRANCH   7  13
BRANCH   1  21
HETATM   21  N   UNL     1      -5.723   2.782 -33.456  1.00  0.00    -0.220 N 
HETATM   22  H   UNL     1      -4.967   2.244 -33.892  1.00  0.00     0.200 HD
BRANCH  21  23
HETATM   23  S   UNL     1      -5.088   3.713 -32.204  1.00  0.00     0.240 S 
HETATM   24  C   UNL     1      -3.433   3.080 -31.972  1.00  0.00     0.187 C 
HETATM   25  O   UNL     1      -5.876   3.543 -31.005  1.00  0.00    -0.205 OA
HETATM   26  O   UNL     1      -4.946   5.031 -32.794  1.00  0.00    -0.205 OA
ENDBRANCH  21  23
ENDBRANCH   1  21
TORSDOF 4
ENDMDL
