MODEL 1
REMARK VINA RESULT:      -8.2      0.000      0.000
REMARK  9 active torsions:
REMARK  status: ('A' for Active; 'I' for Inactive)
REMARK    1  A    between atoms: C_2  and  C_3 
REMARK    2  A    between atoms: C_7  and  C_8 
REMARK    3  A    between atoms: C_8  and  C_9 
REMARK       I    between atoms: C_9  and  N_10 
REMARK    4  A    between atoms: N_10  and  C_11 
REMARK    5  A    between atoms: C_11  and  C_12 
REMARK    6  A    between atoms: C_12  and  C_13 
REMARK    7  A    between atoms: C_21  and  C_22 
REMARK    8  A    between atoms: C_32  and  C_33 
REMARK    9  A    between atoms: C_33  and  O_34 
ROOT
HETATM    1  C   UNL     1      -6.582   4.260 -32.756  1.00  0.00     0.051 C 
HETATM    2  N   UNL     1      -6.063   4.801 -33.944  1.00  0.00    -0.228 NA
HETATM    3  C   UNL     1      -4.817   4.547 -34.176  1.00  0.00     0.170 C 
HETATM    4  N   UNL     1      -4.017   3.472 -33.364  1.00  0.00    -0.318 N 
HETATM    5  C   UNL     1      -2.896   4.009 -32.991  1.00  0.00     0.011 C 
HETATM    6  C   UNL     1      -4.996   2.421 -33.001  1.00  0.00     0.166 C 
HETATM    7  S   UNL     1      -3.749   5.527 -35.102  1.00  0.00    -0.086 SA
HETATM    8  C   UNL     1      -2.445   5.185 -33.857  1.00  0.00     0.135 C 
HETATM    9  C   UNL     1      -6.034   3.148 -32.201  1.00  0.00     0.069 C 
ENDROOT
BRANCH   5  10
HETATM   10  C   UNL     1      -2.303   3.682 -31.648  1.00  0.00     0.156 C 
BRANCH  10  11
HETATM   11  C   UNL     1      -1.545   4.776 -30.928  1.00  0.00     0.222 C 
HETATM   12  N   UNL     1      -2.359   5.778 -30.444  1.00  0.00    -0.361 N 
HETATM   13  H   UNL     1      -3.360   5.727 -30.633  1.00  0.00     0.162 HD
HETATM   14  O   UNL     1      -0.323   4.794 -30.805  1.00  0.00    -0.273 OA
BRANCH  12  15
HETATM   15  C   UNL     1      -1.852   7.089 -30.077  1.00  0.00     0.124 C 
BRANCH  15  16
HETATM   16  C   UNL     1      -2.006   7.460 -28.599  1.00  0.00     0.053 C 
BRANCH  16  17
HETATM   17  C   UNL     1      -0.783   8.086 -27.939  1.00  0.00     0.189 C 
HETATM   18  N   UNL     1      -0.429   7.550 -26.567  1.00  0.00    -0.071 N 
HETATM   19  H   UNL     1      -1.056   8.027 -25.893  1.00  0.00     0.279 HD
HETATM   20  C   UNL     1      -0.544   6.064 -26.346  1.00  0.00     0.270 C 
HETATM   21  C   UNL     1       1.003   8.017 -26.320  1.00  0.00     0.235 C 
HETATM   22  C   UNL     1       1.551   8.397 -27.691  1.00  0.00     0.030 C 
HETATM   23  C   UNL     1       0.520   7.921 -28.701  1.00  0.00     0.035 C 
ENDBRANCH  16  17
ENDBRANCH  15  16
ENDBRANCH  12  15
ENDBRANCH  10  11
ENDBRANCH   5  10
BRANCH   6  24
HETATM   24  C   UNL     1      -4.521   1.012 -32.644  1.00  0.00    -0.024 C 
HETATM   25  C   UNL     1      -5.106  -0.142 -33.234  1.00  0.00    -0.053 C 
HETATM   26  C   UNL     1      -6.194  -0.122 -34.282  1.00  0.00     0.049 C 
HETATM   27  C   UNL     1      -4.639  -1.428 -32.889  1.00  0.00     0.014 C 
HETATM   28  C   UNL     1      -3.546  -1.611 -32.045  1.00  0.00    -0.061 C 
HETATM   29  C   UNL     1      -3.027  -2.990 -31.761  1.00  0.00     0.048 C 
HETATM   30  C   UNL     1      -2.883  -0.484 -31.573  1.00  0.00     0.007 C 
HETATM   31  C   UNL     1      -3.351   0.799 -31.883  1.00  0.00     0.011 C 
ENDBRANCH   6  24
BRANCH   9  32
HETATM   32  C   UNL     1      -6.066   2.886 -30.757  1.00  0.00     0.293 C 
HETATM   33  O   UNL     1      -5.324   3.515 -30.015  1.00  0.00    -0.259 OA
BRANCH  32  34
HETATM   34  O   UNL     1      -6.939   1.920 -30.431  1.00  0.00    -0.323 OA
HETATM   35  C   UNL     1      -6.352   0.808 -29.747  1.00  0.00     0.213 C 
ENDBRANCH  32  34
ENDBRANCH   9  32
BRANCH   1  36
HETATM   36  C   UNL     1      -7.618   5.153 -32.094  1.00  0.00     0.056 C 
HETATM   37  C   UNL     1      -9.039   4.651 -32.313  1.00  0.00     0.011 C 
ENDBRANCH   1  36
TORSDOF 9
ENDMDL
MODEL 2
REMARK VINA RESULT:      -8.1      2.267      4.637
REMARK  9 active torsions:
REMARK  status: ('A' for Active; 'I' for Inactive)
REMARK    1  A    between atoms: C_2  and  C_3 
REMARK    2  A    between atoms: C_7  and  C_8 
REMARK    3  A    between atoms: C_8  and  C_9 
REMARK       I    between atoms: C_9  and  N_10 
REMARK    4  A    between atoms: N_10  and  C_11 
REMARK    5  A    between atoms: C_11  and  C_12 
REMARK    6  A    between atoms: C_12  and  C_13 
REMARK    7  A    between atoms: C_21  and  C_22 
REMARK    8  A    between atoms: C_32  and  C_33 
REMARK    9  A    between atoms: C_33  and  O_34 
ROOT
HETATM    1  C   UNL     1      -6.208   0.668 -33.189  1.00  0.00     0.051 C 
HETATM    2  N   UNL     1      -7.345   1.365 -33.627  1.00  0.00    -0.228 NA
HETATM    3  C   UNL     1      -7.508   2.544 -33.119  1.00  0.00     0.170 C 
HETATM    4  N   UNL     1      -6.378   3.271 -32.313  1.00  0.00    -0.318 N 
HETATM    5  C   UNL     1      -6.901   3.721 -31.214  1.00  0.00     0.011 C 
HETATM    6  C   UNL     1      -5.098   2.823 -32.910  1.00  0.00     0.166 C 
HETATM    7  S   UNL     1      -9.015   3.348 -32.911  1.00  0.00    -0.086 SA
HETATM    8  C   UNL     1      -8.412   3.935 -31.281  1.00  0.00     0.135 C 
HETATM    9  C   UNL     1      -5.114   1.335 -32.739  1.00  0.00     0.069 C 
ENDROOT
BRANCH   5  10
HETATM   10  C   UNL     1      -6.111   3.711 -29.934  1.00  0.00     0.156 C 
BRANCH  10  11
HETATM   11  C   UNL     1      -5.629   5.040 -29.394  1.00  0.00     0.222 C 
HETATM   12  N   UNL     1      -5.340   5.010 -28.046  1.00  0.00    -0.361 N 
HETATM   13  H   UNL     1      -5.502   4.144 -27.532  1.00  0.00     0.162 HD
HETATM   14  O   UNL     1      -5.529   6.058 -30.073  1.00  0.00    -0.273 OA
BRANCH  12  15
HETATM   15  C   UNL     1      -5.243   6.214 -27.239  1.00  0.00     0.124 C 
BRANCH  15  16
HETATM   16  C   UNL     1      -3.820   6.661 -26.898  1.00  0.00     0.053 C 
BRANCH  16  17
HETATM   17  C   UNL     1      -3.221   7.730 -27.804  1.00  0.00     0.189 C 
HETATM   18  N   UNL     1      -2.284   8.714 -27.133  1.00  0.00    -0.071 N 
HETATM   19  H   UNL     1      -2.884   9.422 -26.669  1.00  0.00     0.279 HD
HETATM   20  C   UNL     1      -1.318   8.174 -26.112  1.00  0.00     0.270 C 
HETATM   21  C   UNL     1      -1.531   9.383 -28.278  1.00  0.00     0.235 C 
HETATM   22  C   UNL     1      -1.728   8.473 -29.486  1.00  0.00     0.030 C 
HETATM   23  C   UNL     1      -2.377   7.206 -28.953  1.00  0.00     0.035 C 
ENDBRANCH  16  17
ENDBRANCH  15  16
ENDBRANCH  12  15
ENDBRANCH  10  11
ENDBRANCH   5  10
BRANCH   6  24
HETATM   24  C   UNL     1      -3.828   3.658 -32.731  1.00  0.00    -0.024 C 
HETATM   25  C   UNL     1      -3.450   4.650 -33.677  1.00  0.00    -0.053 C 
HETATM   26  C   UNL     1      -4.248   5.023 -34.905  1.00  0.00     0.049 C 
HETATM   27  C   UNL     1      -2.278   5.408 -33.479  1.00  0.00     0.014 C 
HETATM   28  C   UNL     1      -1.508   5.283 -32.324  1.00  0.00    -0.061 C 
HETATM   29  C   UNL     1      -0.310   6.161 -32.110  1.00  0.00     0.048 C 
HETATM   30  C   UNL     1      -1.947   4.414 -31.332  1.00  0.00     0.007 C 
HETATM   31  C   UNL     1      -3.093   3.633 -31.526  1.00  0.00     0.011 C 
ENDBRANCH   6  24
BRANCH   9  32
HETATM   32  C   UNL     1      -4.198   0.769 -31.741  1.00  0.00     0.293 C 
HETATM   33  O   UNL     1      -4.495   0.815 -30.556  1.00  0.00    -0.259 OA
BRANCH  32  34
HETATM   34  O   UNL     1      -3.082   0.269 -32.295  1.00  0.00    -0.323 OA
HETATM   35  C   UNL     1      -2.821  -1.097 -31.954  1.00  0.00     0.213 C 
ENDBRANCH  32  34
ENDBRANCH   9  32
BRANCH   1  36
HETATM   36  C   UNL     1      -6.431  -0.831 -33.077  1.00  0.00     0.056 C 
HETATM   37  C   UNL     1      -6.024  -1.574 -34.342  1.00  0.00     0.011 C 
ENDBRANCH   1  36
TORSDOF 9
ENDMDL
MODEL 3
REMARK VINA RESULT:      -8.1      2.846      5.521
REMARK  9 active torsions:
REMARK  status: ('A' for Active; 'I' for Inactive)
REMARK    1  A    between atoms: C_2  and  C_3 
REMARK    2  A    between atoms: C_7  and  C_8 
REMARK    3  A    between atoms: C_8  and  C_9 
REMARK       I    between atoms: C_9  and  N_10 
REMARK    4  A    between atoms: N_10  and  C_11 
REMARK    5  A    between atoms: C_11  and  C_12 
REMARK    6  A    between atoms: C_12  and  C_13 
REMARK    7  A    between atoms: C_21  and  C_22 
REMARK    8  A    between atoms: C_32  and  C_33 
REMARK    9  A    between atoms: C_33  and  O_34 
ROOT
HETATM    1  C   UNL     1      -6.331   0.960 -31.091  1.00  0.00     0.051 C 
HETATM    2  N   UNL     1      -6.437   1.800 -29.970  1.00  0.00    -0.228 NA
HETATM    3  C   UNL     1      -6.812   3.014 -30.215  1.00  0.00     0.170 C 
HETATM    4  N   UNL     1      -7.399   3.444 -31.602  1.00  0.00    -0.318 N 
HETATM    5  C   UNL     1      -6.786   4.527 -31.973  1.00  0.00     0.011 C 
HETATM    6  C   UNL     1      -8.118   2.260 -32.127  1.00  0.00     0.166 C 
HETATM    7  S   UNL     1      -6.425   4.394 -29.264  1.00  0.00    -0.086 SA
HETATM    8  C   UNL     1      -6.179   5.328 -30.824  1.00  0.00     0.135 C 
HETATM    9  C   UNL     1      -7.064   1.198 -32.209  1.00  0.00     0.069 C 
ENDROOT
BRANCH   5  10
HETATM   10  C   UNL     1      -6.456   4.756 -33.422  1.00  0.00     0.156 C 
BRANCH  10  11
HETATM   11  C   UNL     1      -4.996   4.767 -33.818  1.00  0.00     0.222 C 
HETATM   12  N   UNL     1      -4.253   3.787 -33.194  1.00  0.00    -0.361 N 
HETATM   13  H   UNL     1      -4.715   3.182 -32.515  1.00  0.00     0.162 HD
HETATM   14  O   UNL     1      -4.504   5.580 -34.597  1.00  0.00    -0.273 OA
BRANCH  12  15
HETATM   15  C   UNL     1      -2.804   3.840 -33.108  1.00  0.00     0.124 C 
BRANCH  15  16
HETATM   16  C   UNL     1      -2.241   4.118 -31.711  1.00  0.00     0.053 C 
BRANCH  16  17
HETATM   17  C   UNL     1      -2.186   5.582 -31.294  1.00  0.00     0.189 C 
HETATM   18  N   UNL     1      -1.274   5.901 -30.128  1.00  0.00    -0.071 N 
HETATM   19  H   UNL     1      -1.800   5.660 -29.267  1.00  0.00     0.279 HD
HETATM   20  C   UNL     1       0.061   5.205 -30.073  1.00  0.00     0.270 C 
HETATM   21  C   UNL     1      -1.084   7.414 -30.179  1.00  0.00     0.235 C 
HETATM   22  C   UNL     1      -1.507   7.832 -31.584  1.00  0.00     0.030 C 
HETATM   23  C   UNL     1      -1.697   6.543 -32.365  1.00  0.00     0.035 C 
ENDBRANCH  16  17
ENDBRANCH  15  16
ENDBRANCH  12  15
ENDBRANCH  10  11
ENDBRANCH   5  10
BRANCH   6  24
HETATM   24  C   UNL     1      -9.204   2.425 -33.192  1.00  0.00    -0.024 C 
HETATM   25  C   UNL     1     -10.146   1.394 -33.459  1.00  0.00    -0.053 C 
HETATM   26  C   UNL     1     -10.221   0.077 -32.721  1.00  0.00     0.049 C 
HETATM   27  C   UNL     1     -11.141   1.581 -34.442  1.00  0.00     0.014 C 
HETATM   28  C   UNL     1     -11.294   2.793 -35.111  1.00  0.00    -0.061 C 
HETATM   29  C   UNL     1     -12.412   2.982 -36.094  1.00  0.00     0.048 C 
HETATM   30  C   UNL     1     -10.464   3.849 -34.757  1.00  0.00     0.007 C 
HETATM   31  C   UNL     1      -9.453   3.673 -33.804  1.00  0.00     0.011 C 
ENDBRANCH   6  24
BRANCH   9  32
HETATM   32  C   UNL     1      -6.608   0.814 -33.550  1.00  0.00     0.293 C 
HETATM   33  O   UNL     1      -5.943   1.602 -34.208  1.00  0.00    -0.259 OA
BRANCH  32  34
HETATM   34  O   UNL     1      -7.027  -0.412 -33.903  1.00  0.00    -0.323 OA
HETATM   35  C   UNL     1      -5.990  -1.260 -34.408  1.00  0.00     0.213 C 
ENDBRANCH  32  34
ENDBRANCH   9  32
BRANCH   1  36
HETATM   36  C   UNL     1      -5.198  -0.045 -30.981  1.00  0.00     0.056 C 
HETATM   37  C   UNL     1      -3.833   0.595 -31.198  1.00  0.00     0.011 C 
ENDBRANCH   1  36
TORSDOF 9
ENDMDL
MODEL 4
REMARK VINA RESULT:      -8.1      2.638      4.147
REMARK  9 active torsions:
REMARK  status: ('A' for Active; 'I' for Inactive)
REMARK    1  A    between atoms: C_2  and  C_3 
REMARK    2  A    between atoms: C_7  and  C_8 
REMARK    3  A    between atoms: C_8  and  C_9 
REMARK       I    between atoms: C_9  and  N_10 
REMARK    4  A    between atoms: N_10  and  C_11 
REMARK    5  A    between atoms: C_11  and  C_12 
REMARK    6  A    between atoms: C_12  and  C_13 
REMARK    7  A    between atoms: C_21  and  C_22 
REMARK    8  A    between atoms: C_32  and  C_33 
REMARK    9  A    between atoms: C_33  and  O_34 
ROOT
HETATM    1  C   UNL     1      -7.807   3.559 -30.102  1.00  0.00     0.051 C 
HETATM    2  N   UNL     1      -8.927   4.180 -30.679  1.00  0.00    -0.228 NA
HETATM    3  C   UNL     1      -8.955   4.191 -31.972  1.00  0.00     0.170 C 
HETATM    4  N   UNL     1      -7.982   3.321 -32.838  1.00  0.00    -0.318 N 
HETATM    5  C   UNL     1      -7.470   4.088 -33.751  1.00  0.00     0.011 C 
HETATM    6  C   UNL     1      -7.722   2.093 -32.051  1.00  0.00     0.166 C 
HETATM    7  S   UNL     1      -9.754   5.361 -32.948  1.00  0.00    -0.086 SA
HETATM    8  C   UNL     1      -8.312   5.319 -34.080  1.00  0.00     0.135 C 
HETATM    9  C   UNL     1      -7.124   2.596 -30.773  1.00  0.00     0.069 C 
ENDROOT
BRANCH   5  10
HETATM   10  C   UNL     1      -6.038   3.912 -34.178  1.00  0.00     0.156 C 
BRANCH  10  11
HETATM   11  C   UNL     1      -5.127   5.118 -34.097  1.00  0.00     0.222 C 
HETATM   12  N   UNL     1      -3.994   5.000 -34.874  1.00  0.00    -0.361 N 
HETATM   13  H   UNL     1      -3.844   4.133 -35.390  1.00  0.00     0.162 HD
HETATM   14  O   UNL     1      -5.351   6.098 -33.391  1.00  0.00    -0.273 OA
BRANCH  12  15
HETATM   15  C   UNL     1      -2.814   5.822 -34.667  1.00  0.00     0.124 C 
BRANCH  15  16
HETATM   16  C   UNL     1      -1.956   5.443 -33.457  1.00  0.00     0.053 C 
BRANCH  16  17
HETATM   17  C   UNL     1      -2.134   6.310 -32.216  1.00  0.00     0.189 C 
HETATM   18  N   UNL     1      -1.357   5.873 -30.991  1.00  0.00    -0.071 N 
HETATM   19  H   UNL     1      -1.904   5.108 -30.552  1.00  0.00     0.279 HD
HETATM   20  C   UNL     1       0.054   5.386 -31.194  1.00  0.00     0.270 C 
HETATM   21  C   UNL     1      -1.375   7.083 -30.062  1.00  0.00     0.235 C 
HETATM   22  C   UNL     1      -1.752   8.270 -30.943  1.00  0.00     0.030 C 
HETATM   23  C   UNL     1      -1.708   7.760 -32.374  1.00  0.00     0.035 C 
ENDBRANCH  16  17
ENDBRANCH  15  16
ENDBRANCH  12  15
ENDBRANCH  10  11
ENDBRANCH   5  10
BRANCH   6  24
HETATM   24  C   UNL     1      -7.231   0.820 -32.744  1.00  0.00    -0.024 C 
HETATM   25  C   UNL     1      -8.132  -0.207 -33.139  1.00  0.00    -0.053 C 
HETATM   26  C   UNL     1      -9.633  -0.152 -32.974  1.00  0.00     0.049 C 
HETATM   27  C   UNL     1      -7.647  -1.364 -33.783  1.00  0.00     0.014 C 
HETATM   28  C   UNL     1      -6.307  -1.503 -34.136  1.00  0.00    -0.061 C 
HETATM   29  C   UNL     1      -5.840  -2.713 -34.890  1.00  0.00     0.048 C 
HETATM   30  C   UNL     1      -5.445  -0.444 -33.876  1.00  0.00     0.007 C 
HETATM   31  C   UNL     1      -5.904   0.701 -33.211  1.00  0.00     0.011 C 
ENDBRANCH   6  24
BRANCH   9  32
HETATM   32  C   UNL     1      -5.691   2.354 -30.568  1.00  0.00     0.293 C 
HETATM   33  O   UNL     1      -5.330   1.367 -29.943  1.00  0.00    -0.259 OA
BRANCH  32  34
HETATM   34  O   UNL     1      -4.926   3.317 -31.108  1.00  0.00    -0.323 OA
HETATM   35  C   UNL     1      -3.579   2.913 -31.375  1.00  0.00     0.213 C 
ENDBRANCH  32  34
ENDBRANCH   9  32
BRANCH   1  36
HETATM   36  C   UNL     1      -7.352   4.223 -28.813  1.00  0.00     0.056 C 
HETATM   37  C   UNL     1      -6.872   5.651 -29.035  1.00  0.00     0.011 C 
ENDBRANCH   1  36
TORSDOF 9
ENDMDL
MODEL 5
REMARK VINA RESULT:      -7.8      3.776      8.781
REMARK  9 active torsions:
REMARK  status: ('A' for Active; 'I' for Inactive)
REMARK    1  A    between atoms: C_2  and  C_3 
REMARK    2  A    between atoms: C_7  and  C_8 
REMARK    3  A    between atoms: C_8  and  C_9 
REMARK       I    between atoms: C_9  and  N_10 
REMARK    4  A    between atoms: N_10  and  C_11 
REMARK    5  A    between atoms: C_11  and  C_12 
REMARK    6  A    between atoms: C_12  and  C_13 
REMARK    7  A    between atoms: C_21  and  C_22 
REMARK    8  A    between atoms: C_32  and  C_33 
REMARK    9  A    between atoms: C_33  and  O_34 
ROOT
HETATM    1  C   UNL     1      -4.548   4.985 -30.709  1.00  0.00     0.051 C 
HETATM    2  N   UNL     1      -5.568   5.251 -29.781  1.00  0.00    -0.228 NA
HETATM    3  C   UNL     1      -6.760   4.909 -30.149  1.00  0.00     0.170 C 
HETATM    4  N   UNL     1      -7.022   3.995 -31.394  1.00  0.00    -0.318 N 
HETATM    5  C   UNL     1      -7.948   4.557 -32.110  1.00  0.00     0.011 C 
HETATM    6  C   UNL     1      -5.862   3.078 -31.480  1.00  0.00     0.166 C 
HETATM    7  S   UNL     1      -8.223   5.638 -29.611  1.00  0.00    -0.086 SA
HETATM    8  C   UNL     1      -8.851   5.512 -31.331  1.00  0.00     0.135 C 
HETATM    9  C   UNL     1      -4.683   3.992 -31.625  1.00  0.00     0.069 C 
ENDROOT
BRANCH   5  10
HETATM   10  C   UNL     1      -7.894   4.491 -33.611  1.00  0.00     0.156 C 
BRANCH  10  11
HETATM   11  C   UNL     1      -9.171   4.772 -34.374  1.00  0.00     0.222 C 
HETATM   12  N   UNL     1     -10.098   3.756 -34.283  1.00  0.00    -0.361 N 
HETATM   13  H   UNL     1      -9.849   2.914 -33.764  1.00  0.00     0.162 HD
HETATM   14  O   UNL     1      -9.363   5.790 -35.035  1.00  0.00    -0.273 OA
BRANCH  12  15
HETATM   15  C   UNL     1     -11.202   3.618 -35.217  1.00  0.00     0.124 C 
BRANCH  15  16
HETATM   16  C   UNL     1     -12.087   2.386 -35.007  1.00  0.00     0.053 C 
BRANCH  16  17
HETATM   17  C   UNL     1     -13.364   2.612 -34.205  1.00  0.00     0.189 C 
HETATM   18  N   UNL     1     -14.322   1.439 -34.148  1.00  0.00    -0.071 N 
HETATM   19  H   UNL     1     -14.858   1.453 -35.036  1.00  0.00     0.279 HD
HETATM   20  C   UNL     1     -13.733   0.064 -33.976  1.00  0.00     0.270 C 
HETATM   21  C   UNL     1     -15.269   1.762 -32.996  1.00  0.00     0.235 C 
HETATM   22  C   UNL     1     -14.568   2.841 -32.179  1.00  0.00     0.030 C 
HETATM   23  C   UNL     1     -13.157   2.938 -32.736  1.00  0.00     0.035 C 
ENDBRANCH  16  17
ENDBRANCH  15  16
ENDBRANCH  12  15
ENDBRANCH  10  11
ENDBRANCH   5  10
BRANCH   6  24
HETATM   24  C   UNL     1      -5.977   1.756 -32.240  1.00  0.00    -0.024 C 
HETATM   25  C   UNL     1      -6.016   0.508 -31.560  1.00  0.00    -0.053 C 
HETATM   26  C   UNL     1      -5.999   0.339 -30.059  1.00  0.00     0.049 C 
HETATM   27  C   UNL     1      -6.130  -0.693 -32.291  1.00  0.00     0.014 C 
HETATM   28  C   UNL     1      -6.300  -0.699 -33.674  1.00  0.00    -0.061 C 
HETATM   29  C   UNL     1      -6.497  -1.992 -34.410  1.00  0.00     0.048 C 
HETATM   30  C   UNL     1      -6.400   0.522 -34.330  1.00  0.00     0.007 C 
HETATM   31  C   UNL     1      -6.260   1.723 -33.623  1.00  0.00     0.011 C 
ENDBRANCH   6  24
BRANCH   9  32
HETATM   32  C   UNL     1      -4.032   4.034 -32.940  1.00  0.00     0.293 C 
HETATM   33  O   UNL     1      -3.013   3.383 -33.128  1.00  0.00    -0.259 OA
BRANCH  32  34
HETATM   34  O   UNL     1      -4.667   4.845 -33.801  1.00  0.00    -0.323 OA
HETATM   35  C   UNL     1      -3.868   5.255 -34.915  1.00  0.00     0.213 C 
ENDBRANCH  32  34
ENDBRANCH   9  32
BRANCH   1  36
HETATM   36  C   UNL     1      -3.447   6.032 -30.705  1.00  0.00     0.056 C 
HETATM   37  C   UNL     1      -3.667   7.100 -29.642  1.00  0.00     0.011 C 
ENDBRANCH   1  36
TORSDOF 9
ENDMDL
MODEL 6
REMARK VINA RESULT:      -7.6      2.031      4.452
REMARK  9 active torsions:
REMARK  status: ('A' for Active; 'I' for Inactive)
REMARK    1  A    between atoms: C_2  and  C_3 
REMARK    2  A    between atoms: C_7  and  C_8 
REMARK    3  A    between atoms: C_8  and  C_9 
REMARK       I    between atoms: C_9  and  N_10 
REMARK    4  A    between atoms: N_10  and  C_11 
REMARK    5  A    between atoms: C_11  and  C_12 
REMARK    6  A    between atoms: C_12  and  C_13 
REMARK    7  A    between atoms: C_21  and  C_22 
REMARK    8  A    between atoms: C_32  and  C_33 
REMARK    9  A    between atoms: C_33  and  O_34 
ROOT
HETATM    1  C   UNL     1      -6.215   1.906 -33.411  1.00  0.00     0.051 C 
HETATM    2  N   UNL     1      -7.101   2.847 -33.958  1.00  0.00    -0.228 NA
HETATM    3  C   UNL     1      -7.050   4.031 -33.438  1.00  0.00     0.170 C 
HETATM    4  N   UNL     1      -5.890   4.477 -32.485  1.00  0.00    -0.318 N 
HETATM    5  C   UNL     1      -6.424   5.035 -31.443  1.00  0.00     0.011 C 
HETATM    6  C   UNL     1      -4.683   3.747 -32.941  1.00  0.00     0.166 C 
HETATM    7  S   UNL     1      -8.347   5.160 -33.386  1.00  0.00    -0.086 SA
HETATM    8  C   UNL     1      -7.827   5.591 -31.680  1.00  0.00     0.135 C 
HETATM    9  C   UNL     1      -5.060   2.302 -32.816  1.00  0.00     0.069 C 
ENDROOT
BRANCH   5  10
HETATM   10  C   UNL     1      -5.819   4.841 -30.080  1.00  0.00     0.156 C 
BRANCH  10  11
HETATM   11  C   UNL     1      -5.504   6.079 -29.267  1.00  0.00     0.222 C 
HETATM   12  N   UNL     1      -4.877   5.802 -28.071  1.00  0.00    -0.361 N 
HETATM   13  H   UNL     1      -4.716   4.828 -27.818  1.00  0.00     0.162 HD
HETATM   14  O   UNL     1      -5.798   7.219 -29.617  1.00  0.00    -0.273 OA
BRANCH  12  15
HETATM   15  C   UNL     1      -4.832   6.754 -26.974  1.00  0.00     0.124 C 
BRANCH  15  16
HETATM   16  C   UNL     1      -3.611   7.678 -26.959  1.00  0.00     0.053 C 
BRANCH  16  17
HETATM   17  C   UNL     1      -2.305   7.064 -27.447  1.00  0.00     0.189 C 
HETATM   18  N   UNL     1      -1.459   7.943 -28.345  1.00  0.00    -0.071 N 
HETATM   19  H   UNL     1      -1.866   7.870 -29.297  1.00  0.00     0.279 HD
HETATM   20  C   UNL     1      -1.348   9.403 -27.991  1.00  0.00     0.270 C 
HETATM   21  C   UNL     1      -0.080   7.289 -28.349  1.00  0.00     0.235 C 
HETATM   22  C   UNL     1      -0.065   6.357 -27.142  1.00  0.00     0.030 C 
HETATM   23  C   UNL     1      -1.324   6.674 -26.353  1.00  0.00     0.035 C 
ENDBRANCH  16  17
ENDBRANCH  15  16
ENDBRANCH  12  15
ENDBRANCH  10  11
ENDBRANCH   5  10
BRANCH   6  24
HETATM   24  C   UNL     1      -3.288   4.267 -32.591  1.00  0.00    -0.024 C 
HETATM   25  C   UNL     1      -2.471   4.916 -33.557  1.00  0.00    -0.053 C 
HETATM   26  C   UNL     1      -2.881   5.206 -34.982  1.00  0.00     0.049 C 
HETATM   27  C   UNL     1      -1.192   5.391 -33.199  1.00  0.00     0.014 C 
HETATM   28  C   UNL     1      -0.724   5.327 -31.889  1.00  0.00    -0.061 C 
HETATM   29  C   UNL     1       0.609   5.912 -31.528  1.00  0.00     0.048 C 
HETATM   30  C   UNL     1      -1.572   4.819 -30.912  1.00  0.00     0.007 C 
HETATM   31  C   UNL     1      -2.833   4.317 -31.254  1.00  0.00     0.011 C 
ENDBRANCH   6  24
BRANCH   9  32
HETATM   32  C   UNL     1      -4.424   1.540 -31.735  1.00  0.00     0.293 C 
HETATM   33  O   UNL     1      -4.848   1.648 -30.592  1.00  0.00    -0.259 OA
BRANCH  32  34
HETATM   34  O   UNL     1      -3.390   0.802 -32.168  1.00  0.00    -0.323 OA
HETATM   35  C   UNL     1      -3.083  -0.320 -31.333  1.00  0.00     0.213 C 
ENDBRANCH  32  34
ENDBRANCH   9  32
BRANCH   1  36
HETATM   36  C   UNL     1      -6.786   0.499 -33.368  1.00  0.00     0.056 C 
HETATM   37  C   UNL     1      -6.098  -0.436 -34.354  1.00  0.00     0.011 C 
ENDBRANCH   1  36
TORSDOF 9
ENDMDL
MODEL 7
REMARK VINA RESULT:      -7.6      2.507      4.941
REMARK  9 active torsions:
REMARK  status: ('A' for Active; 'I' for Inactive)
REMARK    1  A    between atoms: C_2  and  C_3 
REMARK    2  A    between atoms: C_7  and  C_8 
REMARK    3  A    between atoms: C_8  and  C_9 
REMARK       I    between atoms: C_9  and  N_10 
REMARK    4  A    between atoms: N_10  and  C_11 
REMARK    5  A    between atoms: C_11  and  C_12 
REMARK    6  A    between atoms: C_12  and  C_13 
REMARK    7  A    between atoms: C_21  and  C_22 
REMARK    8  A    between atoms: C_32  and  C_33 
REMARK    9  A    between atoms: C_33  and  O_34 
ROOT
HETATM    1  C   UNL     1      -6.916   1.400 -33.486  1.00  0.00     0.051 C 
HETATM    2  N   UNL     1      -6.253   0.422 -32.728  1.00  0.00    -0.228 NA
HETATM    3  C   UNL     1      -5.451   0.871 -31.817  1.00  0.00     0.170 C 
HETATM    4  N   UNL     1      -5.438   2.375 -31.380  1.00  0.00    -0.318 N 
HETATM    5  C   UNL     1      -4.205   2.777 -31.375  1.00  0.00     0.011 C 
HETATM    6  C   UNL     1      -6.832   2.855 -31.529  1.00  0.00     0.166 C 
HETATM    7  S   UNL     1      -4.068   0.049 -31.206  1.00  0.00    -0.086 SA
HETATM    8  C   UNL     1      -3.180   1.655 -31.216  1.00  0.00     0.135 C 
HETATM    9  C   UNL     1      -7.141   2.640 -32.979  1.00  0.00     0.069 C 
ENDROOT
BRANCH   5  10
HETATM   10  C   UNL     1      -3.857   4.174 -31.810  1.00  0.00     0.156 C 
BRANCH  10  11
HETATM   11  C   UNL     1      -2.391   4.518 -31.968  1.00  0.00     0.222 C 
HETATM   12  N   UNL     1      -1.799   4.938 -30.796  1.00  0.00    -0.361 N 
HETATM   13  H   UNL     1      -2.376   5.018 -29.959  1.00  0.00     0.162 HD
HETATM   14  O   UNL     1      -1.786   4.458 -33.035  1.00  0.00    -0.273 OA
BRANCH  12  15
HETATM   15  C   UNL     1      -0.548   5.677 -30.772  1.00  0.00     0.124 C 
BRANCH  15  16
HETATM   16  C   UNL     1       0.093   5.836 -29.391  1.00  0.00     0.053 C 
BRANCH  16  17
HETATM   17  C   UNL     1       0.320   7.268 -28.923  1.00  0.00     0.189 C 
HETATM   18  N   UNL     1      -0.926   8.046 -28.555  1.00  0.00    -0.071 N 
HETATM   19  H   UNL     1      -1.335   8.387 -29.446  1.00  0.00     0.279 HD
HETATM   20  C   UNL     1      -2.003   7.322 -27.790  1.00  0.00     0.270 C 
HETATM   21  C   UNL     1      -0.420   9.244 -27.757  1.00  0.00     0.235 C 
HETATM   22  C   UNL     1       0.997   8.881 -27.326  1.00  0.00     0.030 C 
HETATM   23  C   UNL     1       1.176   7.413 -27.676  1.00  0.00     0.035 C 
ENDBRANCH  16  17
ENDBRANCH  15  16
ENDBRANCH  12  15
ENDBRANCH  10  11
ENDBRANCH   5  10
BRANCH   6  24
HETATM   24  C   UNL     1      -7.311   4.088 -30.761  1.00  0.00    -0.024 C 
HETATM   25  C   UNL     1      -8.676   4.257 -30.401  1.00  0.00    -0.053 C 
HETATM   26  C   UNL     1      -9.774   3.257 -30.679  1.00  0.00     0.049 C 
HETATM   27  C   UNL     1      -9.084   5.402 -29.685  1.00  0.00     0.014 C 
HETATM   28  C   UNL     1      -8.169   6.349 -29.230  1.00  0.00    -0.061 C 
HETATM   29  C   UNL     1      -8.628   7.514 -28.404  1.00  0.00     0.048 C 
HETATM   30  C   UNL     1      -6.817   6.120 -29.458  1.00  0.00     0.007 C 
HETATM   31  C   UNL     1      -6.398   5.004 -30.192  1.00  0.00     0.011 C 
ENDBRANCH   6  24
BRANCH   9  32
HETATM   32  C   UNL     1      -7.234   3.836 -33.825  1.00  0.00     0.293 C 
HETATM   33  O   UNL     1      -6.210   4.395 -34.191  1.00  0.00    -0.259 OA
BRANCH  32  34
HETATM   34  O   UNL     1      -8.505   4.187 -34.077  1.00  0.00    -0.323 OA
HETATM   35  C   UNL     1      -8.790   5.568 -33.829  1.00  0.00     0.213 C 
ENDBRANCH  32  34
ENDBRANCH   9  32
BRANCH   1  36
HETATM   36  C   UNL     1      -7.130   0.992 -34.934  1.00  0.00     0.056 C 
HETATM   37  C   UNL     1      -7.336  -0.510 -35.088  1.00  0.00     0.011 C 
ENDBRANCH   1  36
TORSDOF 9
ENDMDL
MODEL 8
REMARK VINA RESULT:      -7.2      2.908      5.156
REMARK  9 active torsions:
REMARK  status: ('A' for Active; 'I' for Inactive)
REMARK    1  A    between atoms: C_2  and  C_3 
REMARK    2  A    between atoms: C_7  and  C_8 
REMARK    3  A    between atoms: C_8  and  C_9 
REMARK       I    between atoms: C_9  and  N_10 
REMARK    4  A    between atoms: N_10  and  C_11 
REMARK    5  A    between atoms: C_11  and  C_12 
REMARK    6  A    between atoms: C_12  and  C_13 
REMARK    7  A    between atoms: C_21  and  C_22 
REMARK    8  A    between atoms: C_32  and  C_33 
REMARK    9  A    between atoms: C_33  and  O_34 
ROOT
HETATM    1  C   UNL     1      -5.239   4.226 -33.809  1.00  0.00     0.051 C 
HETATM    2  N   UNL     1      -4.392   3.211 -33.335  1.00  0.00    -0.228 NA
HETATM    3  C   UNL     1      -4.879   2.472 -32.392  1.00  0.00     0.170 C 
HETATM    4  N   UNL     1      -6.398   2.497 -32.009  1.00  0.00    -0.318 N 
HETATM    5  C   UNL     1      -6.480   2.609 -30.718  1.00  0.00     0.011 C 
HETATM    6  C   UNL     1      -7.131   2.784 -33.264  1.00  0.00     0.166 C 
HETATM    7  S   UNL     1      -3.964   1.643 -31.193  1.00  0.00    -0.086 SA
HETATM    8  C   UNL     1      -5.241   2.124 -29.967  1.00  0.00     0.135 C 
HETATM    9  C   UNL     1      -6.588   4.107 -33.711  1.00  0.00     0.069 C 
ENDROOT
BRANCH   5  10
HETATM   10  C   UNL     1      -7.570   3.435 -30.093  1.00  0.00     0.156 C 
BRANCH  10  11
HETATM   11  C   UNL     1      -7.180   4.759 -29.472  1.00  0.00     0.222 C 
HETATM   12  N   UNL     1      -6.042   5.308 -30.023  1.00  0.00    -0.361 N 
HETATM   13  H   UNL     1      -5.549   4.786 -30.747  1.00  0.00     0.162 HD
HETATM   14  O   UNL     1      -7.795   5.289 -28.549  1.00  0.00    -0.273 OA
BRANCH  12  15
HETATM   15  C   UNL     1      -5.268   6.340 -29.354  1.00  0.00     0.124 C 
BRANCH  15  16
HETATM   16  C   UNL     1      -4.174   6.992 -30.203  1.00  0.00     0.053 C 
BRANCH  16  17
HETATM   17  C   UNL     1      -2.764   6.940 -29.627  1.00  0.00     0.189 C 
HETATM   18  N   UNL     1      -1.930   5.742 -30.035  1.00  0.00    -0.071 N 
HETATM   19  H   UNL     1      -2.224   4.957 -29.425  1.00  0.00     0.279 HD
HETATM   20  C   UNL     1      -2.018   5.284 -31.467  1.00  0.00     0.270 C 
HETATM   21  C   UNL     1      -0.495   6.125 -29.684  1.00  0.00     0.235 C 
HETATM   22  C   UNL     1      -0.504   7.641 -29.518  1.00  0.00     0.030 C 
HETATM   23  C   UNL     1      -1.867   8.107 -30.004  1.00  0.00     0.035 C 
ENDBRANCH  16  17
ENDBRANCH  15  16
ENDBRANCH  12  15
ENDBRANCH  10  11
ENDBRANCH   5  10
BRANCH   6  24
HETATM   24  C   UNL     1      -8.609   2.414 -33.397  1.00  0.00    -0.024 C 
HETATM   25  C   UNL     1      -9.029   1.292 -34.163  1.00  0.00    -0.053 C 
HETATM   26  C   UNL     1      -8.103   0.334 -34.875  1.00  0.00     0.049 C 
HETATM   27  C   UNL     1     -10.400   0.974 -34.259  1.00  0.00     0.014 C 
HETATM   28  C   UNL     1     -11.370   1.675 -33.545  1.00  0.00    -0.061 C 
HETATM   29  C   UNL     1     -12.810   1.259 -33.609  1.00  0.00     0.048 C 
HETATM   30  C   UNL     1     -10.953   2.685 -32.687  1.00  0.00     0.007 C 
HETATM   31  C   UNL     1      -9.599   3.033 -32.602  1.00  0.00     0.011 C 
ENDBRANCH   6  24
BRANCH   9  32
HETATM   32  C   UNL     1      -7.478   5.268 -33.588  1.00  0.00     0.293 C 
HETATM   33  O   UNL     1      -8.297   5.495 -34.468  1.00  0.00    -0.259 OA
BRANCH  32  34
HETATM   34  O   UNL     1      -7.244   5.977 -32.472  1.00  0.00    -0.323 OA
HETATM   35  C   UNL     1      -8.151   7.065 -32.270  1.00  0.00     0.213 C 
ENDBRANCH  32  34
ENDBRANCH   9  32
BRANCH   1  36
HETATM   36  C   UNL     1      -4.495   5.489 -34.208  1.00  0.00     0.056 C 
HETATM   37  C   UNL     1      -3.300   5.198 -35.105  1.00  0.00     0.011 C 
ENDBRANCH   1  36
TORSDOF 9
ENDMDL
MODEL 9
REMARK VINA RESULT:      -7.2      2.783      5.252
REMARK  9 active torsions:
REMARK  status: ('A' for Active; 'I' for Inactive)
REMARK    1  A    between atoms: C_2  and  C_3 
REMARK    2  A    between atoms: C_7  and  C_8 
REMARK    3  A    between atoms: C_8  and  C_9 
REMARK       I    between atoms: C_9  and  N_10 
REMARK    4  A    between atoms: N_10  and  C_11 
REMARK    5  A    between atoms: C_11  and  C_12 
REMARK    6  A    between atoms: C_12  and  C_13 
REMARK    7  A    between atoms: C_21  and  C_22 
REMARK    8  A    between atoms: C_32  and  C_33 
REMARK    9  A    between atoms: C_33  and  O_34 
ROOT
HETATM    1  C   UNL     1      -7.705   2.432 -32.234  1.00  0.00     0.051 C 
HETATM    2  N   UNL     1      -7.029   1.478 -31.456  1.00  0.00    -0.228 NA
HETATM    3  C   UNL     1      -5.805   1.768 -31.155  1.00  0.00     0.170 C 
HETATM    4  N   UNL     1      -5.206   3.199 -31.374  1.00  0.00    -0.318 N 
HETATM    5  C   UNL     1      -4.066   3.064 -31.979  1.00  0.00     0.011 C 
HETATM    6  C   UNL     1      -6.328   4.146 -31.175  1.00  0.00     0.166 C 
HETATM    7  S   UNL     1      -4.556   0.631 -30.826  1.00  0.00    -0.086 SA
HETATM    8  C   UNL     1      -3.411   1.698 -31.784  1.00  0.00     0.135 C 
HETATM    9  C   UNL     1      -7.338   3.739 -32.204  1.00  0.00     0.069 C 
ENDROOT
BRANCH   5  10
HETATM   10  C   UNL     1      -3.631   4.062 -33.016  1.00  0.00     0.156 C 
BRANCH  10  11
HETATM   11  C   UNL     1      -2.183   4.502 -33.006  1.00  0.00     0.222 C 
HETATM   12  N   UNL     1      -1.643   4.576 -31.739  1.00  0.00    -0.361 N 
HETATM   13  H   UNL     1      -2.244   4.374 -30.940  1.00  0.00     0.162 HD
HETATM   14  O   UNL     1      -1.550   4.795 -34.017  1.00  0.00    -0.273 OA
BRANCH  12  15
HETATM   15  C   UNL     1      -0.435   5.328 -31.446  1.00  0.00     0.124 C 
BRANCH  15  16
HETATM   16  C   UNL     1      -0.658   6.777 -31.004  1.00  0.00     0.053 C 
BRANCH  16  17
HETATM   17  C   UNL     1      -1.466   6.967 -29.726  1.00  0.00     0.189 C 
HETATM   18  N   UNL     1      -0.884   6.334 -28.478  1.00  0.00    -0.071 N 
HETATM   19  H   UNL     1      -1.142   5.330 -28.510  1.00  0.00     0.279 HD
HETATM   20  C   UNL     1       0.604   6.432 -28.274  1.00  0.00     0.270 C 
HETATM   21  C   UNL     1      -1.626   6.995 -27.321  1.00  0.00     0.235 C 
HETATM   22  C   UNL     1      -2.255   8.257 -27.903  1.00  0.00     0.030 C 
HETATM   23  C   UNL     1      -1.669   8.410 -29.298  1.00  0.00     0.035 C 
ENDBRANCH  16  17
ENDBRANCH  15  16
ENDBRANCH  12  15
ENDBRANCH  10  11
ENDBRANCH   5  10
BRANCH   6  24
HETATM   24  C   UNL     1      -6.052   5.611 -30.829  1.00  0.00    -0.024 C 
HETATM   25  C   UNL     1      -6.531   6.194 -29.624  1.00  0.00    -0.053 C 
HETATM   26  C   UNL     1      -7.303   5.458 -28.554  1.00  0.00     0.049 C 
HETATM   27  C   UNL     1      -6.252   7.545 -29.331  1.00  0.00     0.014 C 
HETATM   28  C   UNL     1      -5.432   8.320 -30.149  1.00  0.00    -0.061 C 
HETATM   29  C   UNL     1      -5.092   9.730 -29.766  1.00  0.00     0.048 C 
HETATM   30  C   UNL     1      -4.848   7.717 -31.256  1.00  0.00     0.007 C 
HETATM   31  C   UNL     1      -5.138   6.385 -31.577  1.00  0.00     0.011 C 
ENDBRANCH   6  24
BRANCH   9  32
HETATM   32  C   UNL     1      -7.522   4.638 -33.349  1.00  0.00     0.293 C 
HETATM   33  O   UNL     1      -6.693   4.645 -34.249  1.00  0.00    -0.259 OA
BRANCH  32  34
HETATM   34  O   UNL     1      -8.628   5.391 -33.238  1.00  0.00    -0.323 OA
HETATM   35  C   UNL     1      -9.534   5.266 -34.340  1.00  0.00     0.213 C 
ENDBRANCH  32  34
ENDBRANCH   9  32
BRANCH   1  36
HETATM   36  C   UNL     1      -8.682   1.815 -33.220  1.00  0.00     0.056 C 
HETATM   37  C   UNL     1      -9.330   0.548 -32.679  1.00  0.00     0.011 C 
ENDBRANCH   1  36
TORSDOF 9
ENDMDL
MODEL 10
REMARK VINA RESULT:      -6.9      4.088      9.215
REMARK  9 active torsions:
REMARK  status: ('A' for Active; 'I' for Inactive)
REMARK    1  A    between atoms: C_2  and  C_3 
REMARK    2  A    between atoms: C_7  and  C_8 
REMARK    3  A    between atoms: C_8  and  C_9 
REMARK       I    between atoms: C_9  and  N_10 
REMARK    4  A    between atoms: N_10  and  C_11 
REMARK    5  A    between atoms: C_11  and  C_12 
REMARK    6  A    between atoms: C_12  and  C_13 
REMARK    7  A    between atoms: C_21  and  C_22 
REMARK    8  A    between atoms: C_32  and  C_33 
REMARK    9  A    between atoms: C_33  and  O_34 
ROOT
HETATM    1  C   UNL     1      -5.538   0.719 -33.165  1.00  0.00     0.051 C 
HETATM    2  N   UNL     1      -6.497   0.587 -34.181  1.00  0.00    -0.228 NA
HETATM    3  C   UNL     1      -7.537   1.349 -34.070  1.00  0.00     0.170 C 
HETATM    4  N   UNL     1      -7.596   2.542 -33.057  1.00  0.00    -0.318 N 
HETATM    5  C   UNL     1      -8.718   2.458 -32.410  1.00  0.00     0.011 C 
HETATM    6  C   UNL     1      -6.210   3.055 -32.949  1.00  0.00     0.166 C 
HETATM    7  S   UNL     1      -9.102   1.007 -34.697  1.00  0.00    -0.086 SA
HETATM    8  C   UNL     1      -9.810   1.683 -33.146  1.00  0.00     0.135 C 
HETATM    9  C   UNL     1      -5.420   1.877 -32.465  1.00  0.00     0.069 C 
ENDROOT
BRANCH   5  10
HETATM   10  C   UNL     1      -8.785   2.823 -30.953  1.00  0.00     0.156 C 
BRANCH  10  11
HETATM   11  C   UNL     1      -9.859   3.797 -30.520  1.00  0.00     0.222 C 
HETATM   12  N   UNL     1     -11.136   3.379 -30.833  1.00  0.00    -0.361 N 
HETATM   13  H   UNL     1     -11.251   2.504 -31.343  1.00  0.00     0.162 HD
HETATM   14  O   UNL     1      -9.627   4.871 -29.968  1.00  0.00    -0.273 OA
BRANCH  12  15
HETATM   15  C   UNL     1     -12.268   4.289 -30.877  1.00  0.00     0.124 C 
BRANCH  15  16
HETATM   16  C   UNL     1     -13.238   4.070 -32.041  1.00  0.00     0.053 C 
BRANCH  16  17
HETATM   17  C   UNL     1     -13.120   2.735 -32.765  1.00  0.00     0.189 C 
HETATM   18  N   UNL     1     -14.176   1.703 -32.423  1.00  0.00    -0.071 N 
HETATM   19  H   UNL     1     -13.880   1.263 -31.532  1.00  0.00     0.279 HD
HETATM   20  C   UNL     1     -15.595   2.182 -32.263  1.00  0.00     0.270 C 
HETATM   21  C   UNL     1     -14.086   0.665 -33.537  1.00  0.00     0.235 C 
HETATM   22  C   UNL     1     -13.328   1.345 -34.672  1.00  0.00     0.030 C 
HETATM   23  C   UNL     1     -13.214   2.809 -34.280  1.00  0.00     0.035 C 
ENDBRANCH  16  17
ENDBRANCH  15  16
ENDBRANCH  12  15
ENDBRANCH  10  11
ENDBRANCH   5  10
BRANCH   6  24
HETATM   24  C   UNL     1      -5.950   4.479 -32.454  1.00  0.00    -0.024 C 
HETATM   25  C   UNL     1      -4.704   5.128 -32.678  1.00  0.00    -0.053 C 
HETATM   26  C   UNL     1      -3.545   4.535 -33.444  1.00  0.00     0.049 C 
HETATM   27  C   UNL     1      -4.499   6.445 -32.216  1.00  0.00     0.014 C 
HETATM   28  C   UNL     1      -5.518   7.181 -31.616  1.00  0.00    -0.061 C 
HETATM   29  C   UNL     1      -5.288   8.606 -31.207  1.00  0.00     0.048 C 
HETATM   30  C   UNL     1      -6.778   6.602 -31.517  1.00  0.00     0.007 C 
HETATM   31  C   UNL     1      -6.991   5.285 -31.945  1.00  0.00     0.011 C 
ENDBRANCH   6  24
BRANCH   9  32
HETATM   32  C   UNL     1      -4.945   1.919 -31.077  1.00  0.00     0.293 C 
HETATM   33  O   UNL     1      -3.765   2.148 -30.851  1.00  0.00    -0.259 OA
BRANCH  32  34
HETATM   34  O   UNL     1      -5.923   1.663 -30.193  1.00  0.00    -0.323 OA
HETATM   35  C   UNL     1      -5.735   0.455 -29.448  1.00  0.00     0.213 C 
ENDBRANCH  32  34
ENDBRANCH   9  32
BRANCH   1  36
HETATM   36  C   UNL     1      -4.851  -0.591 -32.816  1.00  0.00     0.056 C 
HETATM   37  C   UNL     1      -3.357  -0.556 -33.107  1.00  0.00     0.011 C 
ENDBRANCH   1  36
TORSDOF 9
ENDMDL
