MODEL 1
REMARK VINA RESULT:      -9.4      0.000      0.000
REMARK  4 active torsions:
REMARK  status: ('A' for Active; 'I' for Inactive)
REMARK    1  A    between atoms: C_7  and  C_8 
REMARK    2  A    between atoms: N_9  and  N_10 
REMARK       I    between atoms: N_10  and  C_11 
REMARK    3  A    between atoms: C_11  and  C_12 
REMARK    4  A    between atoms: C_16  and  C_17 
ROOT
HETATM    1  N   UNL     1      -2.834   3.306 -31.262  1.00  0.00    -0.242 N 
HETATM    2  C   UNL     1      -2.087   4.384 -31.716  1.00  0.00     0.289 C 
HETATM    3  O   UNL     1      -1.774   4.564 -32.889  1.00  0.00    -0.264 OA
HETATM    4  H   UNL     1      -3.064   3.217 -30.282  1.00  0.00     0.192 HD
ENDROOT
BRANCH   1   5
HETATM    5  N   UNL     1      -3.256   2.348 -32.140  1.00  0.00    -0.183 NA
HETATM    6  C   UNL     1      -3.988   1.405 -31.642  1.00  0.00     0.153 C 
BRANCH   6   7
HETATM    7  C   UNL     1      -4.483   0.332 -32.485  1.00  0.00     0.018 A 
HETATM    8  C   UNL     1      -3.987  -0.963 -32.571  1.00  0.00     0.018 A 
HETATM    9  C   UNL     1      -2.854  -1.628 -31.870  1.00  0.00     0.069 C 
HETATM   10  N   UNL     1      -4.751  -1.643 -33.485  1.00  0.00    -0.358 N 
HETATM   11  H   UNL     1      -4.615  -2.610 -33.748  1.00  0.00     0.166 HD
HETATM   12  C   UNL     1      -5.732  -0.831 -33.999  1.00  0.00     0.043 A 
HETATM   13  C   UNL     1      -5.592   0.416 -33.392  1.00  0.00     0.004 A 
HETATM   14  C   UNL     1      -6.724  -1.110 -34.947  1.00  0.00     0.030 A 
HETATM   15  C   UNL     1      -6.494   1.440 -33.757  1.00  0.00     0.014 A 
HETATM   16  C   UNL     1      -7.491   1.180 -34.704  1.00  0.00     0.001 A 
HETATM   17  C   UNL     1      -7.603  -0.079 -35.289  1.00  0.00     0.002 A 
ENDBRANCH   6   7
ENDBRANCH   1   5
BRANCH   2  18
HETATM   18  C   UNL     1      -1.686   5.314 -30.688  1.00  0.00     0.121 A 
HETATM   19  N   UNL     1      -2.545   6.274 -30.234  1.00  0.00    -0.272 N 
HETATM   20  H   UNL     1      -3.499   6.431 -30.547  1.00  0.00     0.189 HD
HETATM   21  N   UNL     1      -2.031   7.067 -29.284  1.00  0.00    -0.174 NA
HETATM   22  C   UNL     1      -0.780   6.616 -29.098  1.00  0.00     0.089 A 
HETATM   23  C   UNL     1      -0.527   5.512 -29.964  1.00  0.00     0.071 A 
BRANCH  22  24
HETATM   24  C   UNL     1       0.124   7.242 -28.122  1.00  0.00    -0.006 A 
HETATM   25  C   UNL     1       0.107   6.833 -26.777  1.00  0.00     0.015 A 
HETATM   26  C   UNL     1       0.959   7.419 -25.835  1.00  0.00     0.024 A 
HETATM   27  C   UNL     1       1.839   8.422 -26.229  1.00  0.00     0.034 A 
HETATM   28 CL   UNL     1       2.887   9.146 -25.074  1.00  0.00    -0.084 Cl
HETATM   29  C   UNL     1       1.873   8.842 -27.556  1.00  0.00     0.024 A 
HETATM   30  C   UNL     1       1.021   8.254 -28.499  1.00  0.00     0.015 A 
ENDBRANCH  22  24
ENDBRANCH   2  18
TORSDOF 4
ENDMDL
MODEL 2
REMARK VINA RESULT:      -9.2      1.671      2.568
REMARK  4 active torsions:
REMARK  status: ('A' for Active; 'I' for Inactive)
REMARK    1  A    between atoms: C_7  and  C_8 
REMARK    2  A    between atoms: N_9  and  N_10 
REMARK       I    between atoms: N_10  and  C_11 
REMARK    3  A    between atoms: C_11  and  C_12 
REMARK    4  A    between atoms: C_16  and  C_17 
ROOT
HETATM    1  N   UNL     1      -2.544   4.032 -31.262  1.00  0.00    -0.242 N 
HETATM    2  C   UNL     1      -1.493   4.868 -31.610  1.00  0.00     0.289 C 
HETATM    3  O   UNL     1      -1.147   5.102 -32.765  1.00  0.00    -0.264 OA
HETATM    4  H   UNL     1      -2.782   3.884 -30.292  1.00  0.00     0.192 HD
ENDROOT
BRANCH   1   5
HETATM    5  N   UNL     1      -3.262   3.394 -32.234  1.00  0.00    -0.183 NA
HETATM    6  C   UNL     1      -4.415   2.931 -31.877  1.00  0.00     0.153 C 
BRANCH   6   7
HETATM    7  C   UNL     1      -5.256   2.229 -32.828  1.00  0.00     0.018 A 
HETATM    8  C   UNL     1      -6.237   2.779 -33.644  1.00  0.00     0.018 A 
HETATM    9  C   UNL     1      -6.714   4.181 -33.796  1.00  0.00     0.069 C 
HETATM   10  N   UNL     1      -6.783   1.761 -34.385  1.00  0.00    -0.358 N 
HETATM   11  H   UNL     1      -7.522   1.872 -35.067  1.00  0.00     0.166 HD
HETATM   12  C   UNL     1      -6.187   0.562 -34.078  1.00  0.00     0.043 A 
HETATM   13  C   UNL     1      -5.225   0.821 -33.104  1.00  0.00     0.004 A 
HETATM   14  C   UNL     1      -6.430  -0.718 -34.588  1.00  0.00     0.030 A 
HETATM   15  C   UNL     1      -4.464  -0.264 -32.613  1.00  0.00     0.014 A 
HETATM   16  C   UNL     1      -4.694  -1.552 -33.111  1.00  0.00     0.001 A 
HETATM   17  C   UNL     1      -5.663  -1.774 -34.086  1.00  0.00     0.002 A 
ENDBRANCH   6   7
ENDBRANCH   1   5
BRANCH   2  18
HETATM   18  C   UNL     1      -0.803   5.465 -30.493  1.00  0.00     0.121 A 
HETATM   19  N   UNL     1       0.029   4.725 -29.702  1.00  0.00    -0.272 N 
HETATM   20  H   UNL     1       0.243   3.736 -29.805  1.00  0.00     0.189 HD
HETATM   21  N   UNL     1       0.595   5.414 -28.701  1.00  0.00    -0.174 NA
HETATM   22  C   UNL     1       0.120   6.662 -28.831  1.00  0.00     0.089 A 
HETATM   23  C   UNL     1      -0.763   6.734 -29.949  1.00  0.00     0.071 A 
BRANCH  22  24
HETATM   24  C   UNL     1       0.509   7.732 -27.900  1.00  0.00    -0.006 A 
HETATM   25  C   UNL     1       1.601   7.554 -27.033  1.00  0.00     0.015 A 
HETATM   26  C   UNL     1       1.983   8.560 -26.140  1.00  0.00     0.024 A 
HETATM   27  C   UNL     1       1.276   9.757 -26.104  1.00  0.00     0.034 A 
HETATM   28 CL   UNL     1       1.740  10.997 -25.007  1.00  0.00    -0.084 Cl
HETATM   29  C   UNL     1       0.191   9.955 -26.954  1.00  0.00     0.024 A 
HETATM   30  C   UNL     1      -0.191   8.948 -27.849  1.00  0.00     0.015 A 
ENDBRANCH  22  24
ENDBRANCH   2  18
TORSDOF 4
ENDMDL
MODEL 3
REMARK VINA RESULT:      -9.0      1.785      2.768
REMARK  4 active torsions:
REMARK  status: ('A' for Active; 'I' for Inactive)
REMARK    1  A    between atoms: C_7  and  C_8 
REMARK    2  A    between atoms: N_9  and  N_10 
REMARK       I    between atoms: N_10  and  C_11 
REMARK    3  A    between atoms: C_11  and  C_12 
REMARK    4  A    between atoms: C_16  and  C_17 
ROOT
HETATM    1  N   UNL     1      -3.854   3.137 -32.061  1.00  0.00    -0.242 N 
HETATM    2  C   UNL     1      -3.327   4.253 -32.693  1.00  0.00     0.289 C 
HETATM    3  O   UNL     1      -3.617   4.604 -33.834  1.00  0.00    -0.264 OA
HETATM    4  H   UNL     1      -3.579   2.903 -31.118  1.00  0.00     0.192 HD
ENDROOT
BRANCH   1   5
HETATM    5  N   UNL     1      -4.746   2.335 -32.717  1.00  0.00    -0.183 NA
HETATM    6  C   UNL     1      -5.031   1.213 -32.141  1.00  0.00     0.153 C 
BRANCH   6   7
HETATM    7  C   UNL     1      -5.960   0.283 -32.755  1.00  0.00     0.018 A 
HETATM    8  C   UNL     1      -7.345   0.390 -32.800  1.00  0.00     0.018 A 
HETATM    9  C   UNL     1      -8.267   1.429 -32.265  1.00  0.00     0.069 C 
HETATM   10  N   UNL     1      -7.827  -0.703 -33.477  1.00  0.00    -0.358 N 
HETATM   11  H   UNL     1      -8.804  -0.886 -33.661  1.00  0.00     0.166 HD
HETATM   12  C   UNL     1      -6.797  -1.520 -33.875  1.00  0.00     0.043 A 
HETATM   13  C   UNL     1      -5.612  -0.931 -33.438  1.00  0.00     0.004 A 
HETATM   14  C   UNL     1      -6.831  -2.726 -34.585  1.00  0.00     0.030 A 
HETATM   15  C   UNL     1      -4.395  -1.587 -33.726  1.00  0.00     0.014 A 
HETATM   16  C   UNL     1      -4.410  -2.794 -34.433  1.00  0.00     0.001 A 
HETATM   17  C   UNL     1      -5.612  -3.354 -34.856  1.00  0.00     0.002 A 
ENDBRANCH   6   7
ENDBRANCH   1   5
BRANCH   2  18
HETATM   18  C   UNL     1      -2.384   5.004 -31.902  1.00  0.00     0.121 A 
HETATM   19  N   UNL     1      -1.039   4.870 -32.097  1.00  0.00    -0.272 N 
HETATM   20  H   UNL     1      -0.581   4.268 -32.777  1.00  0.00     0.189 HD
HETATM   21  N   UNL     1      -0.287   5.627 -31.285  1.00  0.00    -0.174 NA
HETATM   22  C   UNL     1      -1.166   6.291 -30.520  1.00  0.00     0.089 A 
HETATM   23  C   UNL     1      -2.498   5.926 -30.880  1.00  0.00     0.071 A 
BRANCH  22  24
HETATM   24  C   UNL     1      -0.724   7.233 -29.482  1.00  0.00    -0.006 A 
HETATM   25  C   UNL     1       0.642   7.352 -29.169  1.00  0.00     0.015 A 
HETATM   26  C   UNL     1       1.081   8.241 -28.183  1.00  0.00     0.024 A 
HETATM   27  C   UNL     1       0.157   9.024 -27.498  1.00  0.00     0.034 A 
HETATM   28 CL   UNL     1       0.691  10.118 -26.285  1.00  0.00    -0.084 Cl
HETATM   29  C   UNL     1      -1.201   8.924 -27.793  1.00  0.00     0.024 A 
HETATM   30  C   UNL     1      -1.639   8.033 -28.781  1.00  0.00     0.015 A 
ENDBRANCH  22  24
ENDBRANCH   2  18
TORSDOF 4
ENDMDL
MODEL 4
REMARK VINA RESULT:      -8.7      7.628     10.942
REMARK  4 active torsions:
REMARK  status: ('A' for Active; 'I' for Inactive)
REMARK    1  A    between atoms: C_7  and  C_8 
REMARK    2  A    between atoms: N_9  and  N_10 
REMARK       I    between atoms: N_10  and  C_11 
REMARK    3  A    between atoms: C_11  and  C_12 
REMARK    4  A    between atoms: C_16  and  C_17 
ROOT
HETATM    1  N   UNL     1      -8.845   0.821 -34.207  1.00  0.00    -0.242 N 
HETATM    2  C   UNL     1     -10.144   0.759 -33.726  1.00  0.00     0.289 C 
HETATM    3  O   UNL     1     -10.549  -0.085 -32.931  1.00  0.00    -0.264 OA
HETATM    4  H   UNL     1      -8.572   1.545 -34.858  1.00  0.00     0.192 HD
ENDROOT
BRANCH   1   5
HETATM    5  N   UNL     1      -7.923  -0.106 -33.811  1.00  0.00    -0.183 NA
HETATM    6  C   UNL     1      -6.742   0.012 -34.325  1.00  0.00     0.153 C 
BRANCH   6   7
HETATM    7  C   UNL     1      -5.689  -0.925 -33.979  1.00  0.00     0.018 A 
HETATM    8  C   UNL     1      -4.520  -0.650 -33.280  1.00  0.00     0.018 A 
HETATM    9  C   UNL     1      -4.002   0.618 -32.696  1.00  0.00     0.069 C 
HETATM   10  N   UNL     1      -3.812  -1.819 -33.173  1.00  0.00    -0.358 N 
HETATM   11  H   UNL     1      -2.917  -1.916 -32.711  1.00  0.00     0.166 HD
HETATM   12  C   UNL     1      -4.483  -2.852 -33.782  1.00  0.00     0.043 A 
HETATM   13  C   UNL     1      -5.665  -2.324 -34.298  1.00  0.00     0.004 A 
HETATM   14  C   UNL     1      -4.132  -4.200 -33.910  1.00  0.00     0.030 A 
HETATM   15  C   UNL     1      -6.542  -3.195 -34.982  1.00  0.00     0.014 A 
HETATM   16  C   UNL     1      -6.206  -4.547 -35.121  1.00  0.00     0.001 A 
HETATM   17  C   UNL     1      -5.017  -5.041 -34.591  1.00  0.00     0.002 A 
ENDBRANCH   6   7
ENDBRANCH   1   5
BRANCH   2  18
HETATM   18  C   UNL     1     -11.025   1.782 -34.236  1.00  0.00     0.121 A 
HETATM   19  N   UNL     1     -11.706   1.605 -35.406  1.00  0.00    -0.272 N 
HETATM   20  H   UNL     1     -11.673   0.787 -36.009  1.00  0.00     0.189 HD
HETATM   21  N   UNL     1     -12.481   2.641 -35.755  1.00  0.00    -0.174 NA
HETATM   22  C   UNL     1     -12.309   3.544 -34.777  1.00  0.00     0.089 A 
HETATM   23  C   UNL     1     -11.399   3.038 -33.802  1.00  0.00     0.071 A 
BRANCH  22  24
HETATM   24  C   UNL     1     -12.998   4.843 -34.801  1.00  0.00    -0.006 A 
HETATM   25  C   UNL     1     -13.592   5.351 -33.632  1.00  0.00     0.015 A 
HETATM   26  C   UNL     1     -14.253   6.583 -33.637  1.00  0.00     0.024 A 
HETATM   27  C   UNL     1     -14.329   7.322 -34.813  1.00  0.00     0.034 A 
HETATM   28 CL   UNL     1     -15.142   8.837 -34.825  1.00  0.00    -0.084 Cl
HETATM   29  C   UNL     1     -13.747   6.838 -35.983  1.00  0.00     0.024 A 
HETATM   30  C   UNL     1     -13.084   5.605 -35.976  1.00  0.00     0.015 A 
ENDBRANCH  22  24
ENDBRANCH   2  18
TORSDOF 4
ENDMDL
MODEL 5
REMARK VINA RESULT:      -8.7      4.053     10.812
REMARK  4 active torsions:
REMARK  status: ('A' for Active; 'I' for Inactive)
REMARK    1  A    between atoms: C_7  and  C_8 
REMARK    2  A    between atoms: N_9  and  N_10 
REMARK       I    between atoms: N_10  and  C_11 
REMARK    3  A    between atoms: C_11  and  C_12 
REMARK    4  A    between atoms: C_16  and  C_17 
ROOT
HETATM    1  N   UNL     1      -3.273   5.342 -30.745  1.00  0.00    -0.242 N 
HETATM    2  C   UNL     1      -2.753   4.306 -31.507  1.00  0.00     0.289 C 
HETATM    3  O   UNL     1      -1.575   4.215 -31.841  1.00  0.00    -0.264 OA
HETATM    4  H   UNL     1      -4.253   5.357 -30.499  1.00  0.00     0.192 HD
ENDROOT
BRANCH   1   5
HETATM    5  N   UNL     1      -2.462   6.359 -30.328  1.00  0.00    -0.183 NA
HETATM    6  C   UNL     1      -2.844   6.992 -29.267  1.00  0.00     0.153 C 
BRANCH   6   7
HETATM    7  C   UNL     1      -2.060   8.095 -28.743  1.00  0.00     0.018 A 
HETATM    8  C   UNL     1      -2.399   9.443 -28.754  1.00  0.00     0.018 A 
HETATM    9  C   UNL     1      -3.602  10.148 -29.276  1.00  0.00     0.069 C 
HETATM   10  N   UNL     1      -1.376  10.135 -28.156  1.00  0.00    -0.358 N 
HETATM   11  H   UNL     1      -1.354  11.138 -28.025  1.00  0.00     0.166 HD
HETATM   12  C   UNL     1      -0.380   9.280 -27.754  1.00  0.00     0.043 A 
HETATM   13  C   UNL     1      -0.777   7.992 -28.108  1.00  0.00     0.004 A 
HETATM   14  C   UNL     1       0.832   9.552 -27.109  1.00  0.00     0.030 A 
HETATM   15  C   UNL     1       0.088   6.918 -27.800  1.00  0.00     0.014 A 
HETATM   16  C   UNL     1       1.304   7.172 -27.156  1.00  0.00     0.001 A 
HETATM   17  C   UNL     1       1.669   8.472 -26.815  1.00  0.00     0.002 A 
ENDBRANCH   6   7
ENDBRANCH   1   5
BRANCH   2  18
HETATM   18  C   UNL     1      -3.716   3.306 -31.900  1.00  0.00     0.121 A 
HETATM   19  N   UNL     1      -5.052   3.495 -31.692  1.00  0.00    -0.272 N 
HETATM   20  H   UNL     1      -5.491   4.308 -31.268  1.00  0.00     0.189 HD
HETATM   21  N   UNL     1      -5.823   2.479 -32.104  1.00  0.00    -0.174 NA
HETATM   22  C   UNL     1      -4.965   1.577 -32.605  1.00  0.00     0.089 A 
HETATM   23  C   UNL     1      -3.628   2.063 -32.495  1.00  0.00     0.071 A 
BRANCH  22  24
HETATM   24  C   UNL     1      -5.432   0.298 -33.161  1.00  0.00    -0.006 A 
HETATM   25  C   UNL     1      -4.513  -0.724 -33.456  1.00  0.00     0.015 A 
HETATM   26  C   UNL     1      -4.939  -1.945 -33.987  1.00  0.00     0.024 A 
HETATM   27  C   UNL     1      -6.292  -2.159 -34.229  1.00  0.00     0.034 A 
HETATM   28 CL   UNL     1      -6.822  -3.658 -34.882  1.00  0.00    -0.084 Cl
HETATM   29  C   UNL     1      -7.221  -1.160 -33.943  1.00  0.00     0.024 A 
HETATM   30  C   UNL     1      -6.793   0.062 -33.411  1.00  0.00     0.015 A 
ENDBRANCH  22  24
ENDBRANCH   2  18
TORSDOF 4
ENDMDL
MODEL 6
REMARK VINA RESULT:      -8.6      4.272     10.792
REMARK  4 active torsions:
REMARK  status: ('A' for Active; 'I' for Inactive)
REMARK    1  A    between atoms: C_7  and  C_8 
REMARK    2  A    between atoms: N_9  and  N_10 
REMARK       I    between atoms: N_10  and  C_11 
REMARK    3  A    between atoms: C_11  and  C_12 
REMARK    4  A    between atoms: C_16  and  C_17 
ROOT
HETATM    1  N   UNL     1      -4.013   4.722 -31.341  1.00  0.00    -0.242 N 
HETATM    2  C   UNL     1      -4.929   3.783 -30.891  1.00  0.00     0.289 C 
HETATM    3  O   UNL     1      -5.446   3.798 -29.776  1.00  0.00    -0.264 OA
HETATM    4  H   UNL     1      -3.627   4.657 -32.272  1.00  0.00     0.192 HD
ENDROOT
BRANCH   1   5
HETATM    5  N   UNL     1      -3.617   5.740 -30.520  1.00  0.00    -0.183 NA
HETATM    6  C   UNL     1      -2.532   6.355 -30.861  1.00  0.00     0.153 C 
BRANCH   6   7
HETATM    7  C   UNL     1      -2.017   7.447 -30.056  1.00  0.00     0.018 A 
HETATM    8  C   UNL     1      -2.480   8.756 -30.026  1.00  0.00     0.018 A 
HETATM    9  C   UNL     1      -3.587   9.422 -30.767  1.00  0.00     0.069 C 
HETATM   10  N   UNL     1      -1.711   9.452 -29.128  1.00  0.00    -0.358 N 
HETATM   11  H   UNL     1      -1.825  10.432 -28.903  1.00  0.00     0.166 HD
HETATM   12  C   UNL     1      -0.759   8.635 -28.569  1.00  0.00     0.043 A 
HETATM   13  C   UNL     1      -0.923   7.370 -29.130  1.00  0.00     0.004 A 
HETATM   14  C   UNL     1       0.226   8.924 -27.617  1.00  0.00     0.030 A 
HETATM   15  C   UNL     1      -0.052   6.338 -28.715  1.00  0.00     0.014 A 
HETATM   16  C   UNL     1       0.939   6.610 -27.764  1.00  0.00     0.001 A 
HETATM   17  C   UNL     1       1.074   7.885 -27.223  1.00  0.00     0.002 A 
ENDBRANCH   6   7
ENDBRANCH   1   5
BRANCH   2  18
HETATM   18  C   UNL     1      -5.249   2.749 -31.844  1.00  0.00     0.121 A 
HETATM   19  N   UNL     1      -5.887   3.044 -33.015  1.00  0.00    -0.272 N 
HETATM   20  H   UNL     1      -6.187   3.964 -33.327  1.00  0.00     0.189 HD
HETATM   21  N   UNL     1      -6.122   1.981 -33.797  1.00  0.00    -0.174 NA
HETATM   22  C   UNL     1      -5.621   0.937 -33.119  1.00  0.00     0.089 A 
HETATM   23  C   UNL     1      -5.062   1.381 -31.884  1.00  0.00     0.071 A 
BRANCH  22  24
HETATM   24  C   UNL     1      -5.692  -0.431 -33.653  1.00  0.00    -0.006 A 
HETATM   25  C   UNL     1      -6.924  -0.966 -34.068  1.00  0.00     0.015 A 
HETATM   26  C   UNL     1      -7.010  -2.266 -34.577  1.00  0.00     0.024 A 
HETATM   27  C   UNL     1      -5.863  -3.047 -34.676  1.00  0.00     0.034 A 
HETATM   28 CL   UNL     1      -5.964  -4.646 -35.299  1.00  0.00    -0.084 Cl
HETATM   29  C   UNL     1      -4.632  -2.537 -34.271  1.00  0.00     0.024 A 
HETATM   30  C   UNL     1      -4.547  -1.235 -33.763  1.00  0.00     0.015 A 
ENDBRANCH  22  24
ENDBRANCH   2  18
TORSDOF 4
ENDMDL
MODEL 7
REMARK VINA RESULT:      -8.1      4.351     10.796
REMARK  4 active torsions:
REMARK  status: ('A' for Active; 'I' for Inactive)
REMARK    1  A    between atoms: C_7  and  C_8 
REMARK    2  A    between atoms: N_9  and  N_10 
REMARK       I    between atoms: N_10  and  C_11 
REMARK    3  A    between atoms: C_11  and  C_12 
REMARK    4  A    between atoms: C_16  and  C_17 
ROOT
HETATM    1  N   UNL     1      -3.697   5.032 -30.718  1.00  0.00    -0.242 N 
HETATM    2  C   UNL     1      -3.033   3.991 -31.350  1.00  0.00     0.289 C 
HETATM    3  O   UNL     1      -1.812   3.920 -31.469  1.00  0.00    -0.264 OA
HETATM    4  H   UNL     1      -4.705   5.030 -30.649  1.00  0.00     0.192 HD
ENDROOT
BRANCH   1   5
HETATM    5  N   UNL     1      -2.991   6.076 -30.193  1.00  0.00    -0.183 NA
HETATM    6  C   UNL     1      -3.639   6.851 -29.386  1.00  0.00     0.153 C 
BRANCH   6   7
HETATM    7  C   UNL     1      -2.987   7.996 -28.777  1.00  0.00     0.018 A 
HETATM    8  C   UNL     1      -2.502   9.126 -29.425  1.00  0.00     0.018 A 
HETATM    9  C   UNL     1      -2.495   9.504 -30.865  1.00  0.00     0.069 C 
HETATM   10  N   UNL     1      -1.965   9.955 -28.473  1.00  0.00    -0.358 N 
HETATM   11  H   UNL     1      -1.539  10.853 -28.660  1.00  0.00     0.166 HD
HETATM   12  C   UNL     1      -2.085   9.401 -27.221  1.00  0.00     0.043 A 
HETATM   13  C   UNL     1      -2.722   8.170 -27.378  1.00  0.00     0.004 A 
HETATM   14  C   UNL     1      -1.681   9.896 -25.977  1.00  0.00     0.030 A 
HETATM   15  C   UNL     1      -2.964   7.394 -26.223  1.00  0.00     0.014 A 
HETATM   16  C   UNL     1      -2.565   7.873 -24.970  1.00  0.00     0.001 A 
HETATM   17  C   UNL     1      -1.933   9.108 -24.851  1.00  0.00     0.002 A 
ENDBRANCH   6   7
ENDBRANCH   1   5
BRANCH   2  18
HETATM   18  C   UNL     1      -3.892   2.960 -31.879  1.00  0.00     0.121 A 
HETATM   19  N   UNL     1      -5.249   3.112 -31.889  1.00  0.00    -0.272 N 
HETATM   20  H   UNL     1      -5.772   3.915 -31.549  1.00  0.00     0.189 HD
HETATM   21  N   UNL     1      -5.916   2.071 -32.406  1.00  0.00    -0.174 NA
HETATM   22  C   UNL     1      -4.965   1.191 -32.754  1.00  0.00     0.089 A 
HETATM   23  C   UNL     1      -3.676   1.716 -32.438  1.00  0.00     0.071 A 
BRANCH  22  24
HETATM   24  C   UNL     1      -5.302  -0.105 -33.361  1.00  0.00    -0.006 A 
HETATM   25  C   UNL     1      -6.548  -0.292 -33.985  1.00  0.00     0.015 A 
HETATM   26  C   UNL     1      -6.887  -1.518 -34.566  1.00  0.00     0.024 A 
HETATM   27  C   UNL     1      -5.982  -2.573 -34.528  1.00  0.00     0.034 A 
HETATM   28 CL   UNL     1      -6.394  -4.084 -35.240  1.00  0.00    -0.084 Cl
HETATM   29  C   UNL     1      -4.742  -2.411 -33.916  1.00  0.00     0.024 A 
HETATM   30  C   UNL     1      -4.403  -1.182 -33.336  1.00  0.00     0.015 A 
ENDBRANCH  22  24
ENDBRANCH   2  18
TORSDOF 4
ENDMDL
MODEL 8
REMARK VINA RESULT:      -8.0      1.310      2.472
REMARK  4 active torsions:
REMARK  status: ('A' for Active; 'I' for Inactive)
REMARK    1  A    between atoms: C_7  and  C_8 
REMARK    2  A    between atoms: N_9  and  N_10 
REMARK       I    between atoms: N_10  and  C_11 
REMARK    3  A    between atoms: C_11  and  C_12 
REMARK    4  A    between atoms: C_16  and  C_17 
ROOT
HETATM    1  N   UNL     1      -3.905   4.254 -31.576  1.00  0.00    -0.242 N 
HETATM    2  C   UNL     1      -2.970   5.214 -31.935  1.00  0.00     0.289 C 
HETATM    3  O   UNL     1      -2.590   5.414 -33.086  1.00  0.00    -0.264 OA
HETATM    4  H   UNL     1      -4.179   4.141 -30.610  1.00  0.00     0.192 HD
ENDROOT
BRANCH   1   5
HETATM    5  N   UNL     1      -4.455   3.444 -32.529  1.00  0.00    -0.183 NA
HETATM    6  C   UNL     1      -5.265   2.532 -32.099  1.00  0.00     0.153 C 
BRANCH   6   7
HETATM    7  C   UNL     1      -5.899   1.612 -33.026  1.00  0.00     0.018 A 
HETATM    8  C   UNL     1      -7.034   1.845 -33.793  1.00  0.00     0.018 A 
HETATM    9  C   UNL     1      -7.913   3.042 -33.905  1.00  0.00     0.069 C 
HETATM   10  N   UNL     1      -7.284   0.713 -34.525  1.00  0.00    -0.358 N 
HETATM   11  H   UNL     1      -8.051   0.599 -35.174  1.00  0.00     0.166 HD
HETATM   12  C   UNL     1      -6.345  -0.255 -34.260  1.00  0.00     0.043 A 
HETATM   13  C   UNL     1      -5.462   0.278 -33.322  1.00  0.00     0.004 A 
HETATM   14  C   UNL     1      -6.217  -1.548 -34.778  1.00  0.00     0.030 A 
HETATM   15  C   UNL     1      -4.392  -0.532 -32.879  1.00  0.00     0.014 A 
HETATM   16  C   UNL     1      -4.250  -1.829 -33.386  1.00  0.00     0.001 A 
HETATM   17  C   UNL     1      -5.150  -2.328 -34.323  1.00  0.00     0.002 A 
ENDBRANCH   6   7
ENDBRANCH   1   5
BRANCH   2  18
HETATM   18  C   UNL     1      -2.450   5.990 -30.836  1.00  0.00     0.121 A 
HETATM   19  N   UNL     1      -3.257   6.834 -30.127  1.00  0.00    -0.272 N 
HETATM   20  H   UNL     1      -4.248   6.998 -30.283  1.00  0.00     0.189 HD
HETATM   21  N   UNL     1      -2.634   7.491 -29.139  1.00  0.00    -0.174 NA
HETATM   22  C   UNL     1      -1.361   7.068 -29.193  1.00  0.00     0.089 A 
HETATM   23  C   UNL     1      -1.207   6.121 -30.248  1.00  0.00     0.071 A 
BRANCH  22  24
HETATM   24  C   UNL     1      -0.345   7.572 -28.258  1.00  0.00    -0.006 A 
HETATM   25  C   UNL     1      -0.256   8.948 -27.982  1.00  0.00     0.015 A 
HETATM   26  C   UNL     1       0.707   9.445 -27.098  1.00  0.00     0.024 A 
HETATM   27  C   UNL     1       1.593   8.570 -26.478  1.00  0.00     0.034 A 
HETATM   28 CL   UNL     1       2.779   9.175 -25.391  1.00  0.00    -0.084 Cl
HETATM   29  C   UNL     1       1.522   7.203 -26.736  1.00  0.00     0.024 A 
HETATM   30  C   UNL     1       0.558   6.706 -27.621  1.00  0.00     0.015 A 
ENDBRANCH  22  24
ENDBRANCH   2  18
TORSDOF 4
ENDMDL
MODEL 9
REMARK VINA RESULT:      -8.0      7.369     10.786
REMARK  4 active torsions:
REMARK  status: ('A' for Active; 'I' for Inactive)
REMARK    1  A    between atoms: C_7  and  C_8 
REMARK    2  A    between atoms: N_9  and  N_10 
REMARK       I    between atoms: N_10  and  C_11 
REMARK    3  A    between atoms: C_11  and  C_12 
REMARK    4  A    between atoms: C_16  and  C_17 
ROOT
HETATM    1  N   UNL     1      -9.420   2.120 -32.583  1.00  0.00    -0.242 N 
HETATM    2  C   UNL     1     -10.519   2.076 -33.429  1.00  0.00     0.289 C 
HETATM    3  O   UNL     1     -10.498   1.614 -34.567  1.00  0.00    -0.264 OA
HETATM    4  H   UNL     1      -9.503   2.509 -31.654  1.00  0.00     0.192 HD
ENDROOT
BRANCH   1   5
HETATM    5  N   UNL     1      -8.211   1.646 -33.005  1.00  0.00    -0.183 NA
HETATM    6  C   UNL     1      -7.786   0.574 -32.419  1.00  0.00     0.153 C 
BRANCH   6   7
HETATM    7  C   UNL     1      -6.509  -0.011 -32.785  1.00  0.00     0.018 A 
HETATM    8  C   UNL     1      -5.245   0.480 -32.482  1.00  0.00     0.018 A 
HETATM    9  C   UNL     1      -4.818   1.691 -31.729  1.00  0.00     0.069 C 
HETATM   10  N   UNL     1      -4.322  -0.382 -33.018  1.00  0.00    -0.358 N 
HETATM   11  H   UNL     1      -3.319  -0.272 -32.951  1.00  0.00     0.166 HD
HETATM   12  C   UNL     1      -4.945  -1.422 -33.663  1.00  0.00     0.043 A 
HETATM   13  C   UNL     1      -6.319  -1.219 -33.537  1.00  0.00     0.004 A 
HETATM   14  C   UNL     1      -4.397  -2.516 -34.342  1.00  0.00     0.030 A 
HETATM   15  C   UNL     1      -7.189  -2.164 -34.124  1.00  0.00     0.014 A 
HETATM   16  C   UNL     1      -6.658  -3.264 -34.808  1.00  0.00     0.001 A 
HETATM   17  C   UNL     1      -5.281  -3.436 -34.913  1.00  0.00     0.002 A 
ENDBRANCH   6   7
ENDBRANCH   1   5
BRANCH   2  18
HETATM   18  C   UNL     1     -11.731   2.625 -32.873  1.00  0.00     0.121 A 
HETATM   19  N   UNL     1     -12.932   2.000 -33.048  1.00  0.00    -0.272 N 
HETATM   20  H   UNL     1     -13.097   1.134 -33.555  1.00  0.00     0.189 HD
HETATM   21  N   UNL     1     -13.969   2.630 -32.479  1.00  0.00    -0.174 NA
HETATM   22  C   UNL     1     -13.437   3.718 -31.902  1.00  0.00     0.089 A 
HETATM   23  C   UNL     1     -12.029   3.749 -32.128  1.00  0.00     0.071 A 
BRANCH  22  24
HETATM   24  C   UNL     1     -14.269   4.684 -31.170  1.00  0.00    -0.006 A 
HETATM   25  C   UNL     1     -13.759   5.344 -30.038  1.00  0.00     0.015 A 
HETATM   26  C   UNL     1     -14.537   6.263 -29.328  1.00  0.00     0.024 A 
HETATM   27  C   UNL     1     -15.837   6.534 -29.743  1.00  0.00     0.034 A 
HETATM   28 CL   UNL     1     -16.798   7.663 -28.873  1.00  0.00    -0.084 Cl
HETATM   29  C   UNL     1     -16.363   5.893 -30.862  1.00  0.00     0.024 A 
HETATM   30  C   UNL     1     -15.582   4.973 -31.573  1.00  0.00     0.015 A 
ENDBRANCH  22  24
ENDBRANCH   2  18
TORSDOF 4
ENDMDL
MODEL 10
REMARK VINA RESULT:      -7.9      4.565     10.456
REMARK  4 active torsions:
REMARK  status: ('A' for Active; 'I' for Inactive)
REMARK    1  A    between atoms: C_7  and  C_8 
REMARK    2  A    between atoms: N_9  and  N_10 
REMARK       I    between atoms: N_10  and  C_11 
REMARK    3  A    between atoms: C_11  and  C_12 
REMARK    4  A    between atoms: C_16  and  C_17 
ROOT
HETATM    1  N   UNL     1      -4.211   4.295 -31.431  1.00  0.00    -0.242 N 
HETATM    2  C   UNL     1      -5.372   4.298 -32.191  1.00  0.00     0.289 C 
HETATM    3  O   UNL     1      -6.116   5.267 -32.315  1.00  0.00    -0.264 OA
HETATM    4  H   UNL     1      -3.638   3.465 -31.373  1.00  0.00     0.192 HD
ENDROOT
BRANCH   1   5
HETATM    5  N   UNL     1      -3.840   5.416 -30.745  1.00  0.00    -0.183 NA
HETATM    6  C   UNL     1      -2.630   5.829 -30.943  1.00  0.00     0.153 C 
BRANCH   6   7
HETATM    7  C   UNL     1      -2.130   7.006 -30.258  1.00  0.00     0.018 A 
HETATM    8  C   UNL     1      -0.991   7.094 -29.467  1.00  0.00     0.018 A 
HETATM    9  C   UNL     1       0.023   6.070 -29.090  1.00  0.00     0.069 C 
HETATM   10  N   UNL     1      -0.892   8.387 -29.019  1.00  0.00    -0.358 N 
HETATM   11  H   UNL     1      -0.155   8.738 -28.422  1.00  0.00     0.166 HD
HETATM   12  C   UNL     1      -1.932   9.147 -29.494  1.00  0.00     0.043 A 
HETATM   13  C   UNL     1      -2.728   8.310 -30.275  1.00  0.00     0.004 A 
HETATM   14  C   UNL     1      -2.222  10.501 -29.291  1.00  0.00     0.030 A 
HETATM   15  C   UNL     1      -3.878   8.861 -30.884  1.00  0.00     0.014 A 
HETATM   16  C   UNL     1      -4.184  10.213 -30.690  1.00  0.00     0.001 A 
HETATM   17  C   UNL     1      -3.365  11.020 -29.905  1.00  0.00     0.002 A 
ENDBRANCH   6   7
ENDBRANCH   1   5
BRANCH   2  18
HETATM   18  C   UNL     1      -5.663   3.048 -32.850  1.00  0.00     0.121 A 
HETATM   19  N   UNL     1      -6.607   2.976 -33.835  1.00  0.00    -0.272 N 
HETATM   20  H   UNL     1      -7.172   3.743 -34.191  1.00  0.00     0.189 HD
HETATM   21  N   UNL     1      -6.772   1.750 -34.350  1.00  0.00    -0.174 NA
HETATM   22  C   UNL     1      -5.904   0.975 -33.682  1.00  0.00     0.089 A 
HETATM   23  C   UNL     1      -5.186   1.758 -32.730  1.00  0.00     0.071 A 
BRANCH  22  24
HETATM   24  C   UNL     1      -5.786  -0.464 -33.961  1.00  0.00    -0.006 A 
HETATM   25  C   UNL     1      -6.870  -1.169 -34.512  1.00  0.00     0.015 A 
HETATM   26  C   UNL     1      -6.777  -2.538 -34.780  1.00  0.00     0.024 A 
HETATM   27  C   UNL     1      -5.597  -3.218 -34.500  1.00  0.00     0.034 A 
HETATM   28 CL   UNL     1      -5.477  -4.902 -34.828  1.00  0.00    -0.084 Cl
HETATM   29  C   UNL     1      -4.510  -2.540 -33.955  1.00  0.00     0.024 A 
HETATM   30  C   UNL     1      -4.604  -1.168 -33.687  1.00  0.00     0.015 A 
ENDBRANCH  22  24
ENDBRANCH   2  18
TORSDOF 4
ENDMDL
