MODEL 1
REMARK VINA RESULT:      -8.7      0.000      0.000
REMARK  5 active torsions:
REMARK  status: ('A' for Active; 'I' for Inactive)
REMARK    1  A    between atoms: C_4  and  C_5 
REMARK    2  A    between atoms: C_8  and  C_9 
REMARK    3  A    between atoms: C_9  and  N_10 
REMARK       I    between atoms: N_10  and  C_11 
REMARK    4  A    between atoms: C_11  and  C_12 
REMARK    5  A    between atoms: C_16  and  C_17 
ROOT
HETATM    1  N   UNL     1      -5.856   3.006 -32.699  1.00  0.00    -0.348 N 
HETATM    2  C   UNL     1      -4.735   2.644 -32.000  1.00  0.00     0.271 C 
HETATM    3  O   UNL     1      -4.692   1.609 -31.336  1.00  0.00    -0.266 OA
HETATM    4  H   UNL     1      -5.818   3.787 -33.341  1.00  0.00     0.163 HD
ENDROOT
BRANCH   1   5
HETATM    5  C   UNL     1      -7.084   2.241 -32.647  1.00  0.00     0.201 C 
BRANCH   5   6
HETATM    6  C   UNL     1      -7.036   1.123 -33.628  1.00  0.00     0.122 A 
HETATM    7  N   UNL     1      -6.396  -0.058 -33.341  1.00  0.00    -0.341 N 
HETATM    8  C   UNL     1      -6.546  -0.909 -34.408  1.00  0.00     0.061 A 
HETATM    9  H   UNL     1      -5.899  -0.246 -32.479  1.00  0.00     0.167 HD
HETATM   10  C   UNL     1      -7.299  -0.177 -35.307  1.00  0.00     0.149 A 
HETATM   11  N   UNL     1      -7.586   1.076 -34.823  1.00  0.00    -0.243 NA
BRANCH   8  12
HETATM   12  C   UNL     1      -6.009  -2.265 -34.454  1.00  0.00    -0.008 A 
HETATM   13  C   UNL     1      -6.822  -3.336 -34.844  1.00  0.00     0.014 A 
HETATM   14  C   UNL     1      -6.317  -4.639 -34.880  1.00  0.00     0.001 A 
HETATM   15  C   UNL     1      -4.990  -4.882 -34.533  1.00  0.00     0.000 A 
HETATM   16  C   UNL     1      -4.168  -3.825 -34.148  1.00  0.00     0.001 A 
HETATM   17  C   UNL     1      -4.675  -2.524 -34.107  1.00  0.00     0.014 A 
ENDBRANCH   8  12
ENDBRANCH   5   6
ENDBRANCH   1   5
BRANCH   2  18
HETATM   18  C   UNL     1      -3.606   3.524 -32.104  1.00  0.00     0.141 A 
HETATM   19  N   UNL     1      -2.632   3.529 -31.140  1.00  0.00    -0.271 N 
HETATM   20  H   UNL     1      -2.599   2.946 -30.307  1.00  0.00     0.189 HD
HETATM   21  N   UNL     1      -1.643   4.410 -31.350  1.00  0.00    -0.177 NA
HETATM   22  C   UNL     1      -1.997   5.007 -32.492  1.00  0.00     0.083 A 
HETATM   23  C   UNL     1      -3.208   4.488 -33.010  1.00  0.00     0.094 A 
HETATM   24 CL   UNL     1      -3.987   4.985 -34.437  1.00  0.00    -0.079 Cl
BRANCH  22  25
HETATM   25  C   UNL     1      -1.175   6.122 -33.133  1.00  0.00     0.041 A 
HETATM   26  C   UNL     1      -1.611   7.559 -32.912  1.00  0.00     0.011 A 
HETATM   27  C   UNL     1      -0.385   7.053 -32.234  1.00  0.00     0.011 A 
ENDBRANCH  22  25
ENDBRANCH   2  18
TORSDOF 5
ENDMDL
MODEL 2
REMARK VINA RESULT:      -8.5      1.646      1.912
REMARK  5 active torsions:
REMARK  status: ('A' for Active; 'I' for Inactive)
REMARK    1  A    between atoms: C_4  and  C_5 
REMARK    2  A    between atoms: C_8  and  C_9 
REMARK    3  A    between atoms: C_9  and  N_10 
REMARK       I    between atoms: N_10  and  C_11 
REMARK    4  A    between atoms: C_11  and  C_12 
REMARK    5  A    between atoms: C_16  and  C_17 
ROOT
HETATM    1  N   UNL     1      -5.122   3.556 -33.268  1.00  0.00    -0.348 N 
HETATM    2  C   UNL     1      -4.315   4.568 -33.718  1.00  0.00     0.271 C 
HETATM    3  O   UNL     1      -4.618   5.252 -34.693  1.00  0.00    -0.266 OA
HETATM    4  H   UNL     1      -4.916   3.101 -32.388  1.00  0.00     0.163 HD
ENDROOT
BRANCH   1   5
HETATM    5  C   UNL     1      -6.342   3.176 -33.947  1.00  0.00     0.201 C 
BRANCH   5   6
HETATM    6  C   UNL     1      -6.707   1.774 -33.606  1.00  0.00     0.122 A 
HETATM    7  N   UNL     1      -6.080   0.703 -34.194  1.00  0.00    -0.341 N 
HETATM    8  C   UNL     1      -6.594  -0.454 -33.663  1.00  0.00     0.061 A 
HETATM    9  H   UNL     1      -5.361   0.780 -34.904  1.00  0.00     0.167 HD
HETATM   10  C   UNL     1      -7.527  -0.006 -32.747  1.00  0.00     0.149 A 
HETATM   11  N   UNL     1      -7.599   1.366 -32.727  1.00  0.00    -0.243 NA
BRANCH   8  12
HETATM   12  C   UNL     1      -6.153  -1.792 -34.041  1.00  0.00    -0.008 A 
HETATM   13  C   UNL     1      -7.074  -2.731 -34.524  1.00  0.00     0.014 A 
HETATM   14  C   UNL     1      -6.661  -4.018 -34.879  1.00  0.00     0.001 A 
HETATM   15  C   UNL     1      -5.320  -4.377 -34.760  1.00  0.00     0.000 A 
HETATM   16  C   UNL     1      -4.393  -3.453 -34.286  1.00  0.00     0.001 A 
HETATM   17  C   UNL     1      -4.807  -2.168 -33.927  1.00  0.00     0.014 A 
ENDBRANCH   8  12
ENDBRANCH   5   6
ENDBRANCH   1   5
BRANCH   2  18
HETATM   18  C   UNL     1      -3.110   4.800 -32.974  1.00  0.00     0.141 A 
HETATM   19  N   UNL     1      -2.710   3.923 -32.000  1.00  0.00    -0.271 N 
HETATM   20  H   UNL     1      -3.183   3.068 -31.721  1.00  0.00     0.189 HD
HETATM   21  N   UNL     1      -1.576   4.267 -31.370  1.00  0.00    -0.177 NA
HETATM   22  C   UNL     1      -1.235   5.420 -31.955  1.00  0.00     0.083 A 
HETATM   23  C   UNL     1      -2.151   5.795 -32.967  1.00  0.00     0.094 A 
HETATM   24 CL   UNL     1      -2.067   7.191 -33.933  1.00  0.00    -0.079 Cl
BRANCH  22  25
HETATM   25  C   UNL     1       0.000   6.220 -31.549  1.00  0.00     0.041 A 
HETATM   26  C   UNL     1      -0.080   7.091 -30.309  1.00  0.00     0.011 A 
HETATM   27  C   UNL     1       0.727   5.840 -30.273  1.00  0.00     0.011 A 
ENDBRANCH  22  25
ENDBRANCH   2  18
TORSDOF 5
ENDMDL
MODEL 3
REMARK VINA RESULT:      -8.5      2.805      3.943
REMARK  5 active torsions:
REMARK  status: ('A' for Active; 'I' for Inactive)
REMARK    1  A    between atoms: C_4  and  C_5 
REMARK    2  A    between atoms: C_8  and  C_9 
REMARK    3  A    between atoms: C_9  and  N_10 
REMARK       I    between atoms: N_10  and  C_11 
REMARK    4  A    between atoms: C_11  and  C_12 
REMARK    5  A    between atoms: C_16  and  C_17 
ROOT
HETATM    1  N   UNL     1      -3.217   4.545 -31.041  1.00  0.00    -0.348 N 
HETATM    2  C   UNL     1      -2.021   4.957 -31.567  1.00  0.00     0.271 C 
HETATM    3  O   UNL     1      -1.779   4.874 -32.769  1.00  0.00    -0.266 OA
HETATM    4  H   UNL     1      -3.439   4.750 -30.075  1.00  0.00     0.163 HD
ENDROOT
BRANCH   1   5
HETATM    5  C   UNL     1      -4.244   3.918 -31.845  1.00  0.00     0.201 C 
BRANCH   5   6
HETATM    6  C   UNL     1      -4.022   2.449 -31.911  1.00  0.00     0.122 A 
HETATM    7  N   UNL     1      -4.782   1.642 -32.723  1.00  0.00    -0.341 N 
HETATM    8  C   UNL     1      -4.331   0.350 -32.606  1.00  0.00     0.061 A 
HETATM    9  H   UNL     1      -5.546   1.969 -33.302  1.00  0.00     0.167 HD
HETATM   10  C   UNL     1      -3.285   0.450 -31.707  1.00  0.00     0.149 A 
HETATM   11  N   UNL     1      -3.109   1.743 -31.276  1.00  0.00    -0.243 NA
BRANCH   8  12
HETATM   12  C   UNL     1      -4.893  -0.781 -33.336  1.00  0.00    -0.008 A 
HETATM   13  C   UNL     1      -6.198  -0.720 -33.841  1.00  0.00     0.014 A 
HETATM   14  C   UNL     1      -6.746  -1.803 -34.534  1.00  0.00     0.001 A 
HETATM   15  C   UNL     1      -5.991  -2.957 -34.733  1.00  0.00     0.000 A 
HETATM   16  C   UNL     1      -4.690  -3.029 -34.241  1.00  0.00     0.001 A 
HETATM   17  C   UNL     1      -4.144  -1.947 -33.545  1.00  0.00     0.014 A 
ENDBRANCH   8  12
ENDBRANCH   5   6
ENDBRANCH   1   5
BRANCH   2  18
HETATM   18  C   UNL     1      -1.076   5.515 -30.641  1.00  0.00     0.141 A 
HETATM   19  N   UNL     1      -0.197   4.706 -29.968  1.00  0.00    -0.271 N 
HETATM   20  H   UNL     1      -0.118   3.696 -30.049  1.00  0.00     0.189 HD
HETATM   21  N   UNL     1       0.619   5.352 -29.122  1.00  0.00    -0.177 NA
HETATM   22  C   UNL     1       0.247   6.630 -29.247  1.00  0.00     0.083 A 
HETATM   23  C   UNL     1      -0.800   6.790 -30.186  1.00  0.00     0.094 A 
HETATM   24 CL   UNL     1      -1.548   8.253 -30.620  1.00  0.00    -0.079 Cl
BRANCH  22  25
HETATM   25  C   UNL     1       0.889   7.761 -28.448  1.00  0.00     0.041 A 
HETATM   26  C   UNL     1       0.155   8.291 -27.230  1.00  0.00     0.011 A 
HETATM   27  C   UNL     1       1.384   7.471 -27.044  1.00  0.00     0.011 A 
ENDBRANCH  22  25
ENDBRANCH   2  18
TORSDOF 5
ENDMDL
MODEL 4
REMARK VINA RESULT:      -8.3      2.131      8.189
REMARK  5 active torsions:
REMARK  status: ('A' for Active; 'I' for Inactive)
REMARK    1  A    between atoms: C_4  and  C_5 
REMARK    2  A    between atoms: C_8  and  C_9 
REMARK    3  A    between atoms: C_9  and  N_10 
REMARK       I    between atoms: N_10  and  C_11 
REMARK    4  A    between atoms: C_11  and  C_12 
REMARK    5  A    between atoms: C_16  and  C_17 
ROOT
HETATM    1  N   UNL     1      -6.124   2.361 -34.107  1.00  0.00    -0.348 N 
HETATM    2  C   UNL     1      -5.721   1.471 -33.147  1.00  0.00     0.271 C 
HETATM    3  O   UNL     1      -5.562   1.810 -31.975  1.00  0.00    -0.266 OA
HETATM    4  H   UNL     1      -6.376   2.026 -35.028  1.00  0.00     0.163 HD
ENDROOT
BRANCH   1   5
HETATM    5  C   UNL     1      -6.320   3.767 -33.829  1.00  0.00     0.201 C 
BRANCH   5   6
HETATM    6  C   UNL     1      -5.034   4.503 -33.961  1.00  0.00     0.122 A 
HETATM    7  N   UNL     1      -4.161   4.621 -32.907  1.00  0.00    -0.341 N 
HETATM    8  C   UNL     1      -3.053   5.314 -33.329  1.00  0.00     0.061 A 
HETATM    9  H   UNL     1      -4.331   4.253 -31.979  1.00  0.00     0.167 HD
HETATM   10  C   UNL     1      -3.320   5.577 -34.659  1.00  0.00     0.149 A 
HETATM   11  N   UNL     1      -4.545   5.085 -35.037  1.00  0.00    -0.243 NA
BRANCH   8  12
HETATM   12  C   UNL     1      -1.907   5.617 -32.479  1.00  0.00    -0.008 A 
HETATM   13  C   UNL     1      -1.570   4.771 -31.415  1.00  0.00     0.014 A 
HETATM   14  C   UNL     1      -0.479   5.061 -30.591  1.00  0.00     0.001 A 
HETATM   15  C   UNL     1       0.291   6.197 -30.828  1.00  0.00     0.000 A 
HETATM   16  C   UNL     1      -0.029   7.044 -31.886  1.00  0.00     0.001 A 
HETATM   17  C   UNL     1      -1.122   6.757 -32.706  1.00  0.00     0.014 A 
ENDBRANCH   8  12
ENDBRANCH   5   6
ENDBRANCH   1   5
BRANCH   2  18
HETATM   18  C   UNL     1      -5.517   0.117 -33.577  1.00  0.00     0.141 A 
HETATM   19  N   UNL     1      -4.421  -0.592 -33.157  1.00  0.00    -0.271 N 
HETATM   20  H   UNL     1      -3.688  -0.265 -32.534  1.00  0.00     0.189 HD
HETATM   21  N   UNL     1      -4.342  -1.839 -33.647  1.00  0.00    -0.177 NA
HETATM   22  C   UNL     1      -5.426  -1.937 -34.422  1.00  0.00     0.083 A 
HETATM   23  C   UNL     1      -6.199  -0.750 -34.409  1.00  0.00     0.094 A 
HETATM   24 CL   UNL     1      -7.641  -0.479 -35.266  1.00  0.00    -0.079 Cl
BRANCH  22  25
HETATM   25  C   UNL     1      -5.760  -3.192 -35.223  1.00  0.00     0.041 A 
HETATM   26  C   UNL     1      -5.482  -4.545 -34.594  1.00  0.00     0.011 A 
HETATM   27  C   UNL     1      -6.890  -4.083 -34.744  1.00  0.00     0.011 A 
ENDBRANCH  22  25
ENDBRANCH   2  18
TORSDOF 5
ENDMDL
MODEL 5
REMARK VINA RESULT:      -8.3      2.177      3.015
REMARK  5 active torsions:
REMARK  status: ('A' for Active; 'I' for Inactive)
REMARK    1  A    between atoms: C_4  and  C_5 
REMARK    2  A    between atoms: C_8  and  C_9 
REMARK    3  A    between atoms: C_9  and  N_10 
REMARK       I    between atoms: N_10  and  C_11 
REMARK    4  A    between atoms: C_11  and  C_12 
REMARK    5  A    between atoms: C_16  and  C_17 
ROOT
HETATM    1  N   UNL     1      -5.094   5.075 -33.394  1.00  0.00    -0.348 N 
HETATM    2  C   UNL     1      -4.061   5.352 -34.251  1.00  0.00     0.271 C 
HETATM    3  O   UNL     1      -4.171   5.204 -35.467  1.00  0.00    -0.266 OA
HETATM    4  H   UNL     1      -5.021   5.333 -32.418  1.00  0.00     0.163 HD
ENDROOT
BRANCH   1   5
HETATM    5  C   UNL     1      -6.353   4.524 -33.848  1.00  0.00     0.201 C 
BRANCH   5   6
HETATM    6  C   UNL     1      -6.538   3.149 -33.312  1.00  0.00     0.122 A 
HETATM    7  N   UNL     1      -6.121   2.042 -34.010  1.00  0.00    -0.341 N 
HETATM    8  C   UNL     1      -6.387   0.923 -33.261  1.00  0.00     0.061 A 
HETATM    9  H   UNL     1      -5.694   2.071 -34.928  1.00  0.00     0.167 HD
HETATM   10  C   UNL     1      -6.960   1.430 -32.109  1.00  0.00     0.149 A 
HETATM   11  N   UNL     1      -7.059   2.800 -32.154  1.00  0.00    -0.243 NA
BRANCH   8  12
HETATM   12  C   UNL     1      -6.066  -0.437 -33.680  1.00  0.00    -0.008 A 
HETATM   13  C   UNL     1      -4.754  -0.918 -33.579  1.00  0.00     0.014 A 
HETATM   14  C   UNL     1      -4.437  -2.216 -33.988  1.00  0.00     0.001 A 
HETATM   15  C   UNL     1      -5.432  -3.049 -34.496  1.00  0.00     0.000 A 
HETATM   16  C   UNL     1      -6.741  -2.586 -34.597  1.00  0.00     0.001 A 
HETATM   17  C   UNL     1      -7.056  -1.286 -34.192  1.00  0.00     0.014 A 
ENDBRANCH   8  12
ENDBRANCH   5   6
ENDBRANCH   1   5
BRANCH   2  18
HETATM   18  C   UNL     1      -2.853   5.846 -33.654  1.00  0.00     0.141 A 
HETATM   19  N   UNL     1      -2.242   6.971 -34.143  1.00  0.00    -0.271 N 
HETATM   20  H   UNL     1      -2.557   7.544 -34.921  1.00  0.00     0.189 HD
HETATM   21  N   UNL     1      -1.112   7.314 -33.506  1.00  0.00    -0.177 NA
HETATM   22  C   UNL     1      -0.982   6.366 -32.573  1.00  0.00     0.083 A 
HETATM   23  C   UNL     1      -2.043   5.430 -32.615  1.00  0.00     0.094 A 
HETATM   24 CL   UNL     1      -2.236   4.080 -31.599  1.00  0.00    -0.079 Cl
BRANCH  22  25
HETATM   25  C   UNL     1       0.191   6.320 -31.597  1.00  0.00     0.041 A 
HETATM   26  C   UNL     1       0.100   7.136 -30.321  1.00  0.00     0.011 A 
HETATM   27  C   UNL     1      -0.009   5.652 -30.250  1.00  0.00     0.011 A 
ENDBRANCH  22  25
ENDBRANCH   2  18
TORSDOF 5
ENDMDL
MODEL 6
REMARK VINA RESULT:      -8.1      1.916      2.237
REMARK  5 active torsions:
REMARK  status: ('A' for Active; 'I' for Inactive)
REMARK    1  A    between atoms: C_4  and  C_5 
REMARK    2  A    between atoms: C_8  and  C_9 
REMARK    3  A    between atoms: C_9  and  N_10 
REMARK       I    between atoms: N_10  and  C_11 
REMARK    4  A    between atoms: C_11  and  C_12 
REMARK    5  A    between atoms: C_16  and  C_17 
ROOT
HETATM    1  N   UNL     1      -5.432   3.173 -30.205  1.00  0.00    -0.348 N 
HETATM    2  C   UNL     1      -5.216   4.260 -31.011  1.00  0.00     0.271 C 
HETATM    3  O   UNL     1      -6.145   4.868 -31.541  1.00  0.00    -0.266 OA
HETATM    4  H   UNL     1      -4.665   2.778 -29.677  1.00  0.00     0.163 HD
ENDROOT
BRANCH   1   5
HETATM    5  C   UNL     1      -6.752   2.624 -29.979  1.00  0.00     0.201 C 
BRANCH   5   6
HETATM    6  C   UNL     1      -7.130   1.716 -31.095  1.00  0.00     0.122 A 
HETATM    7  N   UNL     1      -6.268   0.755 -31.565  1.00  0.00    -0.341 N 
HETATM    8  C   UNL     1      -6.894   0.051 -32.563  1.00  0.00     0.061 A 
HETATM    9  H   UNL     1      -5.327   0.611 -31.218  1.00  0.00     0.167 HD
HETATM   10  C   UNL     1      -8.144   0.637 -32.640  1.00  0.00     0.149 A 
HETATM   11  N   UNL     1      -8.276   1.668 -31.742  1.00  0.00    -0.243 NA
BRANCH   8  12
HETATM   12  C   UNL     1      -6.285  -1.060 -33.286  1.00  0.00    -0.008 A 
HETATM   13  C   UNL     1      -7.071  -1.901 -34.084  1.00  0.00     0.014 A 
HETATM   14  C   UNL     1      -6.496  -2.974 -34.771  1.00  0.00     0.001 A 
HETATM   15  C   UNL     1      -5.127  -3.211 -34.672  1.00  0.00     0.000 A 
HETATM   16  C   UNL     1      -4.333  -2.379 -33.887  1.00  0.00     0.001 A 
HETATM   17  C   UNL     1      -4.909  -1.310 -33.196  1.00  0.00     0.014 A 
ENDBRANCH   8  12
ENDBRANCH   5   6
ENDBRANCH   1   5
BRANCH   2  18
HETATM   18  C   UNL     1      -3.850   4.663 -31.185  1.00  0.00     0.141 A 
HETATM   19  N   UNL     1      -2.848   3.730 -31.247  1.00  0.00    -0.271 N 
HETATM   20  H   UNL     1      -2.954   2.720 -31.188  1.00  0.00     0.189 HD
HETATM   21  N   UNL     1      -1.617   4.241 -31.393  1.00  0.00    -0.177 NA
HETATM   22  C   UNL     1      -1.830   5.561 -31.418  1.00  0.00     0.083 A 
HETATM   23  C   UNL     1      -3.204   5.880 -31.300  1.00  0.00     0.094 A 
HETATM   24 CL   UNL     1      -3.878   7.440 -31.286  1.00  0.00    -0.079 Cl
BRANCH  22  25
HETATM   25  C   UNL     1      -0.701   6.580 -31.550  1.00  0.00     0.041 A 
HETATM   26  C   UNL     1      -0.125   7.185 -30.283  1.00  0.00     0.011 A 
HETATM   27  C   UNL     1       0.682   6.201 -31.057  1.00  0.00     0.011 A 
ENDBRANCH  22  25
ENDBRANCH   2  18
TORSDOF 5
ENDMDL
MODEL 7
REMARK VINA RESULT:      -7.9      2.205      8.327
REMARK  5 active torsions:
REMARK  status: ('A' for Active; 'I' for Inactive)
REMARK    1  A    between atoms: C_4  and  C_5 
REMARK    2  A    between atoms: C_8  and  C_9 
REMARK    3  A    between atoms: C_9  and  N_10 
REMARK       I    between atoms: N_10  and  C_11 
REMARK    4  A    between atoms: C_11  and  C_12 
REMARK    5  A    between atoms: C_16  and  C_17 
ROOT
HETATM    1  N   UNL     1      -5.354   0.703 -31.111  1.00  0.00    -0.348 N 
HETATM    2  C   UNL     1      -4.190   0.063 -31.451  1.00  0.00     0.271 C 
HETATM    3  O   UNL     1      -3.101   0.424 -31.010  1.00  0.00    -0.266 OA
HETATM    4  H   UNL     1      -6.244   0.303 -31.379  1.00  0.00     0.163 HD
ENDROOT
BRANCH   1   5
HETATM    5  C   UNL     1      -5.375   1.884 -30.275  1.00  0.00     0.201 C 
BRANCH   5   6
HETATM    6  C   UNL     1      -4.838   3.053 -31.022  1.00  0.00     0.122 A 
HETATM    7  N   UNL     1      -3.600   3.579 -30.742  1.00  0.00    -0.341 N 
HETATM    8  C   UNL     1      -3.359   4.619 -31.606  1.00  0.00     0.061 A 
HETATM    9  H   UNL     1      -2.986   3.241 -30.011  1.00  0.00     0.167 HD
HETATM   10  C   UNL     1      -4.496   4.661 -32.391  1.00  0.00     0.149 A 
HETATM   11  N   UNL     1      -5.405   3.702 -32.018  1.00  0.00    -0.243 NA
BRANCH   8  12
HETATM   12  C   UNL     1      -2.131   5.407 -31.613  1.00  0.00    -0.008 A 
HETATM   13  C   UNL     1      -0.957   4.894 -31.047  1.00  0.00     0.014 A 
HETATM   14  C   UNL     1       0.220   5.648 -31.041  1.00  0.00     0.001 A 
HETATM   15  C   UNL     1       0.236   6.920 -31.608  1.00  0.00     0.000 A 
HETATM   16  C   UNL     1      -0.923   7.441 -32.179  1.00  0.00     0.001 A 
HETATM   17  C   UNL     1      -2.101   6.689 -32.180  1.00  0.00     0.014 A 
ENDBRANCH   8  12
ENDBRANCH   5   6
ENDBRANCH   1   5
BRANCH   2  18
HETATM   18  C   UNL     1      -4.316  -1.066 -32.329  1.00  0.00     0.141 A 
HETATM   19  N   UNL     1      -3.530  -2.175 -32.157  1.00  0.00    -0.271 N 
HETATM   20  H   UNL     1      -2.827  -2.316 -31.436  1.00  0.00     0.189 HD
HETATM   21  N   UNL     1      -3.736  -3.150 -33.056  1.00  0.00    -0.177 NA
HETATM   22  C   UNL     1      -4.688  -2.645 -33.847  1.00  0.00     0.083 A 
HETATM   23  C   UNL     1      -5.092  -1.352 -33.435  1.00  0.00     0.094 A 
HETATM   24 CL   UNL     1      -6.270  -0.381 -34.181  1.00  0.00    -0.079 Cl
BRANCH  22  25
HETATM   25  C   UNL     1      -5.247  -3.396 -35.053  1.00  0.00     0.041 A 
HETATM   26  C   UNL     1      -5.604  -4.862 -34.887  1.00  0.00     0.011 A 
HETATM   27  C   UNL     1      -6.692  -3.854 -35.019  1.00  0.00     0.011 A 
ENDBRANCH  22  25
ENDBRANCH   2  18
TORSDOF 5
ENDMDL
MODEL 8
REMARK VINA RESULT:      -7.8      3.374      6.345
REMARK  5 active torsions:
REMARK  status: ('A' for Active; 'I' for Inactive)
REMARK    1  A    between atoms: C_4  and  C_5 
REMARK    2  A    between atoms: C_8  and  C_9 
REMARK    3  A    between atoms: C_9  and  N_10 
REMARK       I    between atoms: N_10  and  C_11 
REMARK    4  A    between atoms: C_11  and  C_12 
REMARK    5  A    between atoms: C_16  and  C_17 
ROOT
HETATM    1  N   UNL     1      -6.751   2.266 -32.789  1.00  0.00    -0.348 N 
HETATM    2  C   UNL     1      -7.364   3.289 -33.464  1.00  0.00     0.271 C 
HETATM    3  O   UNL     1      -6.762   4.318 -33.766  1.00  0.00    -0.266 OA
HETATM    4  H   UNL     1      -7.230   1.382 -32.674  1.00  0.00     0.163 HD
ENDROOT
BRANCH   1   5
HETATM    5  C   UNL     1      -5.384   2.353 -32.323  1.00  0.00     0.201 C 
BRANCH   5   6
HETATM    6  C   UNL     1      -4.668   1.075 -32.585  1.00  0.00     0.122 A 
HETATM    7  N   UNL     1      -5.322  -0.027 -33.080  1.00  0.00    -0.341 N 
HETATM    8  C   UNL     1      -4.410  -1.039 -33.253  1.00  0.00     0.061 A 
HETATM    9  H   UNL     1      -6.316  -0.065 -33.273  1.00  0.00     0.167 HD
HETATM   10  C   UNL     1      -3.215  -0.472 -32.850  1.00  0.00     0.149 A 
HETATM   11  N   UNL     1      -3.385   0.824 -32.430  1.00  0.00    -0.243 NA
BRANCH   8  12
HETATM   12  C   UNL     1      -4.743  -2.358 -33.778  1.00  0.00    -0.008 A 
HETATM   13  C   UNL     1      -5.910  -2.548 -34.529  1.00  0.00     0.014 A 
HETATM   14  C   UNL     1      -6.240  -3.812 -35.027  1.00  0.00     0.001 A 
HETATM   15  C   UNL     1      -5.402  -4.898 -34.783  1.00  0.00     0.000 A 
HETATM   16  C   UNL     1      -4.236  -4.722 -34.043  1.00  0.00     0.001 A 
HETATM   17  C   UNL     1      -3.908  -3.460 -33.541  1.00  0.00     0.014 A 
ENDBRANCH   8  12
ENDBRANCH   5   6
ENDBRANCH   1   5
BRANCH   2  18
HETATM   18  C   UNL     1      -8.740   3.085 -33.820  1.00  0.00     0.141 A 
HETATM   19  N   UNL     1      -9.652   4.100 -33.694  1.00  0.00    -0.271 N 
HETATM   20  H   UNL     1      -9.469   5.044 -33.366  1.00  0.00     0.189 HD
HETATM   21  N   UNL     1     -10.905   3.770 -34.044  1.00  0.00    -0.177 NA
HETATM   22  C   UNL     1     -10.799   2.487 -34.403  1.00  0.00     0.083 A 
HETATM   23  C   UNL     1      -9.471   2.011 -34.290  1.00  0.00     0.094 A 
HETATM   24 CL   UNL     1      -8.932   0.439 -34.647  1.00  0.00    -0.079 Cl
BRANCH  22  25
HETATM   25  C   UNL     1     -11.993   1.656 -34.866  1.00  0.00     0.041 A 
HETATM   26  C   UNL     1     -12.784   0.887 -33.824  1.00  0.00     0.011 A 
HETATM   27  C   UNL     1     -13.387   2.093 -34.457  1.00  0.00     0.011 A 
ENDBRANCH  22  25
ENDBRANCH   2  18
TORSDOF 5
ENDMDL
MODEL 9
REMARK VINA RESULT:      -7.6      3.950      7.401
REMARK  5 active torsions:
REMARK  status: ('A' for Active; 'I' for Inactive)
REMARK    1  A    between atoms: C_4  and  C_5 
REMARK    2  A    between atoms: C_8  and  C_9 
REMARK    3  A    between atoms: C_9  and  N_10 
REMARK       I    between atoms: N_10  and  C_11 
REMARK    4  A    between atoms: C_11  and  C_12 
REMARK    5  A    between atoms: C_16  and  C_17 
ROOT
HETATM    1  N   UNL     1      -6.301   0.843 -31.264  1.00  0.00    -0.348 N 
HETATM    2  C   UNL     1      -5.437   0.826 -32.328  1.00  0.00     0.271 C 
HETATM    3  O   UNL     1      -4.838   1.837 -32.691  1.00  0.00    -0.266 OA
HETATM    4  H   UNL     1      -6.674  -0.027 -30.906  1.00  0.00     0.163 HD
ENDROOT
BRANCH   1   5
HETATM    5  C   UNL     1      -6.623   2.057 -30.545  1.00  0.00     0.201 C 
BRANCH   5   6
HETATM    6  C   UNL     1      -7.964   2.557 -30.952  1.00  0.00     0.122 A 
HETATM    7  N   UNL     1      -8.524   2.212 -32.158  1.00  0.00    -0.341 N 
HETATM    8  C   UNL     1      -9.768   2.787 -32.246  1.00  0.00     0.061 A 
HETATM    9  H   UNL     1      -8.074   1.630 -32.854  1.00  0.00     0.167 HD
HETATM   10  C   UNL     1      -9.900   3.463 -31.047  1.00  0.00     0.149 A 
HETATM   11  N   UNL     1      -8.781   3.326 -30.263  1.00  0.00    -0.243 NA
BRANCH   8  12
HETATM   12  C   UNL     1     -10.665   2.625 -33.384  1.00  0.00    -0.008 A 
HETATM   13  C   UNL     1     -10.891   3.691 -34.265  1.00  0.00     0.014 A 
HETATM   14  C   UNL     1     -11.756   3.545 -35.353  1.00  0.00     0.001 A 
HETATM   15  C   UNL     1     -12.400   2.330 -35.574  1.00  0.00     0.000 A 
HETATM   16  C   UNL     1     -12.181   1.261 -34.710  1.00  0.00     0.001 A 
HETATM   17  C   UNL     1     -11.319   1.408 -33.620  1.00  0.00     0.014 A 
ENDBRANCH   8  12
ENDBRANCH   5   6
ENDBRANCH   1   5
BRANCH   2  18
HETATM   18  C   UNL     1      -5.252  -0.439 -32.979  1.00  0.00     0.141 A 
HETATM   19  N   UNL     1      -4.202  -1.252 -32.640  1.00  0.00    -0.271 N 
HETATM   20  H   UNL     1      -3.493  -1.066 -31.936  1.00  0.00     0.189 HD
HETATM   21  N   UNL     1      -4.135  -2.397 -33.337  1.00  0.00    -0.177 NA
HETATM   22  C   UNL     1      -5.180  -2.317 -34.166  1.00  0.00     0.083 A 
HETATM   23  C   UNL     1      -5.916  -1.121 -33.981  1.00  0.00     0.094 A 
HETATM   24 CL   UNL     1      -7.303  -0.650 -34.842  1.00  0.00    -0.079 Cl
BRANCH  22  25
HETATM   25  C   UNL     1      -5.509  -3.400 -35.190  1.00  0.00     0.041 A 
HETATM   26  C   UNL     1      -5.470  -4.850 -34.743  1.00  0.00     0.011 A 
HETATM   27  C   UNL     1      -6.784  -4.203 -35.015  1.00  0.00     0.011 A 
ENDBRANCH  22  25
ENDBRANCH   2  18
TORSDOF 5
ENDMDL
MODEL 10
REMARK VINA RESULT:      -7.4      2.018      2.209
REMARK  5 active torsions:
REMARK  status: ('A' for Active; 'I' for Inactive)
REMARK    1  A    between atoms: C_4  and  C_5 
REMARK    2  A    between atoms: C_8  and  C_9 
REMARK    3  A    between atoms: C_9  and  N_10 
REMARK       I    between atoms: N_10  and  C_11 
REMARK    4  A    between atoms: C_11  and  C_12 
REMARK    5  A    between atoms: C_16  and  C_17 
ROOT
HETATM    1  N   UNL     1      -5.000   2.958 -30.970  1.00  0.00    -0.348 N 
HETATM    2  C   UNL     1      -3.705   3.320 -31.236  1.00  0.00     0.271 C 
HETATM    3  O   UNL     1      -2.810   2.485 -31.349  1.00  0.00    -0.266 OA
HETATM    4  H   UNL     1      -5.735   3.651 -31.017  1.00  0.00     0.163 HD
ENDROOT
BRANCH   1   5
HETATM    5  C   UNL     1      -5.389   1.584 -30.732  1.00  0.00     0.201 C 
BRANCH   5   6
HETATM    6  C   UNL     1      -5.633   0.887 -32.024  1.00  0.00     0.122 A 
HETATM    7  N   UNL     1      -5.407  -0.460 -32.168  1.00  0.00    -0.341 N 
HETATM    8  C   UNL     1      -5.752  -0.829 -33.445  1.00  0.00     0.061 A 
HETATM    9  H   UNL     1      -5.043  -1.061 -31.439  1.00  0.00     0.167 HD
HETATM   10  C   UNL     1      -6.189   0.350 -34.019  1.00  0.00     0.149 A 
HETATM   11  N   UNL     1      -6.102   1.403 -33.141  1.00  0.00    -0.243 NA
BRANCH   8  12
HETATM   12  C   UNL     1      -5.659  -2.193 -33.955  1.00  0.00    -0.008 A 
HETATM   13  C   UNL     1      -6.773  -2.807 -34.541  1.00  0.00     0.014 A 
HETATM   14  C   UNL     1      -6.693  -4.117 -35.022  1.00  0.00     0.001 A 
HETATM   15  C   UNL     1      -5.496  -4.823 -34.928  1.00  0.00     0.000 A 
HETATM   16  C   UNL     1      -4.379  -4.222 -34.353  1.00  0.00     0.001 A 
HETATM   17  C   UNL     1      -4.460  -2.915 -33.867  1.00  0.00     0.014 A 
ENDBRANCH   8  12
ENDBRANCH   5   6
ENDBRANCH   1   5
BRANCH   2  18
HETATM   18  C   UNL     1      -3.456   4.724 -31.399  1.00  0.00     0.141 A 
HETATM   19  N   UNL     1      -4.409   5.544 -31.947  1.00  0.00    -0.271 N 
HETATM   20  H   UNL     1      -5.334   5.269 -32.268  1.00  0.00     0.189 HD
HETATM   21  N   UNL     1      -4.042   6.829 -32.058  1.00  0.00    -0.177 NA
HETATM   22  C   UNL     1      -2.797   6.840 -31.571  1.00  0.00     0.083 A 
HETATM   23  C   UNL     1      -2.385   5.556 -31.138  1.00  0.00     0.094 A 
HETATM   24 CL   UNL     1      -0.876   5.158 -30.465  1.00  0.00    -0.079 Cl
BRANCH  22  25
HETATM   25  C   UNL     1      -1.943   8.103 -31.511  1.00  0.00     0.041 A 
HETATM   26  C   UNL     1      -2.556   9.362 -30.926  1.00  0.00     0.011 A 
HETATM   27  C   UNL     1      -1.515   8.628 -30.154  1.00  0.00     0.011 A 
ENDBRANCH  22  25
ENDBRANCH   2  18
TORSDOF 5
ENDMDL
