MODEL 1
REMARK VINA RESULT:      -9.1      0.000      0.000
REMARK  4 active torsions:
REMARK  status: ('A' for Active; 'I' for Inactive)
REMARK    1  A    between atoms: C_2  and  C_3 
REMARK    2  A    between atoms: C_4  and  C_5 
REMARK       I    between atoms: C_5  and  N_6 
REMARK    3  A    between atoms: N_6  and  C_7 
REMARK    4  A    between atoms: C_14  and  C_15 
REMARK       I    between atoms: C_15  and  N_16 
ROOT
HETATM    1  C   UNL     1      -9.183   2.468 -33.468  1.00  0.00     0.035 A 
HETATM    2  C   UNL     1     -10.250   1.556 -33.394  1.00  0.00     0.046 A 
HETATM    3  C   UNL     1     -11.438   1.808 -34.113  1.00  0.00     0.030 A 
HETATM    4  C   UNL     1     -11.527   2.969 -34.870  1.00  0.00     0.063 A 
HETATM    5  N   UNL     1     -12.770   2.936 -35.438  1.00  0.00    -0.277 N 
HETATM    6  H   UNL     1     -13.179   3.628 -36.056  1.00  0.00     0.189 HD
HETATM    7  N   UNL     1     -13.496   1.849 -35.124  1.00  0.00    -0.168 NA
HETATM    8  C   UNL     1     -12.685   1.145 -34.305  1.00  0.00     0.156 A 
HETATM    9  C   UNL     1     -10.492   3.901 -34.956  1.00  0.00     0.034 A 
HETATM   10  C   UNL     1      -9.319   3.624 -34.240  1.00  0.00     0.032 A 
ENDROOT
BRANCH   1  11
HETATM   11  N   UNL     1      -8.022   2.149 -32.735  1.00  0.00    -0.327 N 
HETATM   12  C   UNL     1      -6.737   2.022 -33.218  1.00  0.00     0.227 C 
HETATM   13  O   UNL     1      -6.375   2.083 -34.384  1.00  0.00    -0.273 OA
HETATM   14  H   UNL     1      -8.156   1.946 -31.753  1.00  0.00     0.169 HD
BRANCH  12  15
HETATM   15  C   UNL     1      -5.725   1.672 -32.183  1.00  0.00     0.087 A 
HETATM   16  C   UNL     1      -5.196   0.256 -32.016  1.00  0.00     0.032 A 
HETATM   17  C   UNL     1      -4.284   1.367 -32.488  1.00  0.00     0.025 A 
BRANCH  16  18
HETATM   18  C   UNL     1      -5.491  -0.882 -32.968  1.00  0.00    -0.053 A 
HETATM   19  C   UNL     1      -4.448  -1.669 -33.493  1.00  0.00     0.009 A 
HETATM   20  C   UNL     1      -4.699  -2.742 -34.354  1.00  0.00     0.024 A 
HETATM   21  C   UNL     1      -6.009  -3.053 -34.702  1.00  0.00     0.034 A 
HETATM   22  C   UNL     1      -7.063  -2.309 -34.187  1.00  0.00     0.024 A 
HETATM   23 CL   UNL     1      -6.324  -4.369 -35.765  1.00  0.00    -0.084 Cl
HETATM   24  C   UNL     1      -6.803  -1.244 -33.318  1.00  0.00     0.009 A 
ENDBRANCH  16  18
ENDBRANCH  12  15
ENDBRANCH   1  11
BRANCH   8  25
HETATM   25  C   UNL     1     -13.105  -0.141 -33.731  1.00  0.00     0.270 C 
HETATM   26  N   UNL     1     -14.428  -0.432 -33.922  1.00  0.00    -0.365 N 
HETATM   27  H   UNL     1     -15.001   0.231 -34.431  1.00  0.00     0.159 HD
HETATM   28  H   UNL     1     -14.809  -1.297 -33.572  1.00  0.00     0.159 HD
HETATM   29  O   UNL     1     -12.360  -0.909 -33.131  1.00  0.00    -0.266 OA
ENDBRANCH   8  25
TORSDOF 4
ENDMDL
MODEL 2
REMARK VINA RESULT:      -8.8      5.153      7.544
REMARK  4 active torsions:
REMARK  status: ('A' for Active; 'I' for Inactive)
REMARK    1  A    between atoms: C_2  and  C_3 
REMARK    2  A    between atoms: C_4  and  C_5 
REMARK       I    between atoms: C_5  and  N_6 
REMARK    3  A    between atoms: N_6  and  C_7 
REMARK    4  A    between atoms: C_14  and  C_15 
REMARK       I    between atoms: C_15  and  N_16 
ROOT
HETATM    1  C   UNL     1      -4.673   3.414 -32.632  1.00  0.00     0.035 A 
HETATM    2  C   UNL     1      -5.693   2.761 -33.345  1.00  0.00     0.046 A 
HETATM    3  C   UNL     1      -6.645   1.985 -32.651  1.00  0.00     0.030 A 
HETATM    4  C   UNL     1      -6.539   1.874 -31.271  1.00  0.00     0.063 A 
HETATM    5  N   UNL     1      -7.581   1.074 -30.891  1.00  0.00    -0.277 N 
HETATM    6  H   UNL     1      -7.813   0.778 -29.950  1.00  0.00     0.189 HD
HETATM    7  N   UNL     1      -8.363   0.661 -31.904  1.00  0.00    -0.168 NA
HETATM    8  C   UNL     1      -7.794   1.215 -32.997  1.00  0.00     0.156 A 
HETATM    9  C   UNL     1      -5.532   2.498 -30.534  1.00  0.00     0.034 A 
HETATM   10  C   UNL     1      -4.603   3.271 -31.245  1.00  0.00     0.032 A 
ENDROOT
BRANCH   1  11
HETATM   11  N   UNL     1      -3.762   4.183 -33.386  1.00  0.00    -0.327 N 
HETATM   12  C   UNL     1      -3.799   5.543 -33.608  1.00  0.00     0.227 C 
HETATM   13  O   UNL     1      -4.672   6.327 -33.261  1.00  0.00    -0.273 OA
HETATM   14  H   UNL     1      -3.025   3.670 -33.853  1.00  0.00     0.169 HD
BRANCH  12  15
HETATM   15  C   UNL     1      -2.687   6.057 -34.455  1.00  0.00     0.087 A 
HETATM   16  C   UNL     1      -1.387   6.569 -33.857  1.00  0.00     0.032 A 
HETATM   17  C   UNL     1      -1.404   5.311 -34.697  1.00  0.00     0.025 A 
BRANCH  16  18
HETATM   18  C   UNL     1      -1.014   6.451 -32.395  1.00  0.00    -0.053 A 
HETATM   19  C   UNL     1      -0.430   5.271 -31.895  1.00  0.00     0.009 A 
HETATM   20  C   UNL     1      -0.055   5.149 -30.554  1.00  0.00     0.024 A 
HETATM   21  C   UNL     1      -0.253   6.215 -29.683  1.00  0.00     0.034 A 
HETATM   22  C   UNL     1      -0.810   7.401 -30.148  1.00  0.00     0.024 A 
HETATM   23 CL   UNL     1       0.201   6.069 -28.031  1.00  0.00    -0.084 Cl
HETATM   24  C   UNL     1      -1.173   7.517 -31.494  1.00  0.00     0.009 A 
ENDBRANCH  16  18
ENDBRANCH  12  15
ENDBRANCH   1  11
BRANCH   8  25
HETATM   25  C   UNL     1      -8.357   1.012 -34.340  1.00  0.00     0.270 C 
HETATM   26  N   UNL     1      -9.454   1.785 -34.608  1.00  0.00    -0.365 N 
HETATM   27  H   UNL     1      -9.784   2.422 -33.892  1.00  0.00     0.159 HD
HETATM   28  H   UNL     1      -9.905   1.723 -35.507  1.00  0.00     0.159 HD
HETATM   29  O   UNL     1      -7.905   0.230 -35.169  1.00  0.00    -0.266 OA
ENDBRANCH   8  25
TORSDOF 4
ENDMDL
MODEL 3
REMARK VINA RESULT:      -8.7      5.722      8.164
REMARK  4 active torsions:
REMARK  status: ('A' for Active; 'I' for Inactive)
REMARK    1  A    between atoms: C_2  and  C_3 
REMARK    2  A    between atoms: C_4  and  C_5 
REMARK       I    between atoms: C_5  and  N_6 
REMARK    3  A    between atoms: N_6  and  C_7 
REMARK    4  A    between atoms: C_14  and  C_15 
REMARK       I    between atoms: C_15  and  N_16 
ROOT
HETATM    1  C   UNL     1      -4.275   3.425 -32.115  1.00  0.00     0.035 A 
HETATM    2  C   UNL     1      -4.651   2.131 -32.514  1.00  0.00     0.046 A 
HETATM    3  C   UNL     1      -5.442   1.337 -31.657  1.00  0.00     0.030 A 
HETATM    4  C   UNL     1      -5.819   1.854 -30.425  1.00  0.00     0.063 A 
HETATM    5  N   UNL     1      -6.563   0.872 -29.832  1.00  0.00    -0.277 N 
HETATM    6  H   UNL     1      -7.001   0.903 -28.919  1.00  0.00     0.189 HD
HETATM    7  N   UNL     1      -6.711  -0.238 -30.576  1.00  0.00    -0.168 NA
HETATM    8  C   UNL     1      -6.022   0.035 -31.706  1.00  0.00     0.156 A 
HETATM    9  C   UNL     1      -5.452   3.129 -29.992  1.00  0.00     0.034 A 
HETATM   10  C   UNL     1      -4.674   3.903 -30.864  1.00  0.00     0.032 A 
ENDROOT
BRANCH   1  11
HETATM   11  N   UNL     1      -3.494   4.170 -33.023  1.00  0.00    -0.327 N 
HETATM   12  C   UNL     1      -3.811   5.382 -33.599  1.00  0.00     0.227 C 
HETATM   13  O   UNL     1      -4.860   6.001 -33.494  1.00  0.00    -0.273 OA
HETATM   14  H   UNL     1      -2.626   3.743 -33.320  1.00  0.00     0.169 HD
BRANCH  12  15
HETATM   15  C   UNL     1      -2.771   5.911 -34.525  1.00  0.00     0.087 A 
HETATM   16  C   UNL     1      -1.468   6.508 -34.020  1.00  0.00     0.032 A 
HETATM   17  C   UNL     1      -1.467   5.216 -34.807  1.00  0.00     0.025 A 
BRANCH  16  18
HETATM   18  C   UNL     1      -1.014   6.470 -32.577  1.00  0.00    -0.053 A 
HETATM   19  C   UNL     1      -0.294   5.367 -32.079  1.00  0.00     0.009 A 
HETATM   20  C   UNL     1       0.157   5.321 -30.756  1.00  0.00     0.024 A 
HETATM   21  C   UNL     1      -0.101   6.389 -29.903  1.00  0.00     0.034 A 
HETATM   22  C   UNL     1      -0.792   7.501 -30.368  1.00  0.00     0.024 A 
HETATM   23 CL   UNL     1       0.447   6.336 -28.273  1.00  0.00    -0.084 Cl
HETATM   24  C   UNL     1      -1.230   7.542 -31.696  1.00  0.00     0.009 A 
ENDBRANCH  16  18
ENDBRANCH  12  15
ENDBRANCH   1  11
BRANCH   8  25
HETATM   25  C   UNL     1      -5.937  -0.935 -32.806  1.00  0.00     0.270 C 
HETATM   26  N   UNL     1      -4.690  -1.470 -32.984  1.00  0.00    -0.365 N 
HETATM   27  H   UNL     1      -3.944  -1.175 -32.364  1.00  0.00     0.159 HD
HETATM   28  H   UNL     1      -4.534  -2.152 -33.708  1.00  0.00     0.159 HD
HETATM   29  O   UNL     1      -6.881  -1.261 -33.517  1.00  0.00    -0.266 OA
ENDBRANCH   8  25
TORSDOF 4
ENDMDL
MODEL 4
REMARK VINA RESULT:      -8.4      4.403      7.700
REMARK  4 active torsions:
REMARK  status: ('A' for Active; 'I' for Inactive)
REMARK    1  A    between atoms: C_2  and  C_3 
REMARK    2  A    between atoms: C_4  and  C_5 
REMARK       I    between atoms: C_5  and  N_6 
REMARK    3  A    between atoms: N_6  and  C_7 
REMARK    4  A    between atoms: C_14  and  C_15 
REMARK       I    between atoms: C_15  and  N_16 
ROOT
HETATM    1  C   UNL     1      -4.688   4.037 -32.871  1.00  0.00     0.035 A 
HETATM    2  C   UNL     1      -3.442   4.412 -32.340  1.00  0.00     0.046 A 
HETATM    3  C   UNL     1      -2.560   5.198 -33.112  1.00  0.00     0.030 A 
HETATM    4  C   UNL     1      -2.944   5.570 -34.393  1.00  0.00     0.063 A 
HETATM    5  N   UNL     1      -1.903   6.309 -34.883  1.00  0.00    -0.277 N 
HETATM    6  H   UNL     1      -1.838   6.743 -35.796  1.00  0.00     0.189 HD
HETATM    7  N   UNL     1      -0.877   6.459 -34.027  1.00  0.00    -0.168 NA
HETATM    8  C   UNL     1      -1.269   5.776 -32.929  1.00  0.00     0.156 A 
HETATM    9  C   UNL     1      -4.167   5.204 -34.956  1.00  0.00     0.034 A 
HETATM   10  C   UNL     1      -5.030   4.431 -34.166  1.00  0.00     0.032 A 
ENDROOT
BRANCH   1  11
HETATM   11  N   UNL     1      -5.525   3.262 -32.042  1.00  0.00    -0.327 N 
HETATM   12  C   UNL     1      -6.776   2.768 -32.346  1.00  0.00     0.227 C 
HETATM   13  O   UNL     1      -7.428   2.974 -33.360  1.00  0.00    -0.273 OA
HETATM   14  H   UNL     1      -5.188   3.090 -31.104  1.00  0.00     0.169 HD
BRANCH  12  15
HETATM   15  C   UNL     1      -7.408   1.984 -31.249  1.00  0.00     0.087 A 
HETATM   16  C   UNL     1      -7.409   0.464 -31.238  1.00  0.00     0.032 A 
HETATM   17  C   UNL     1      -6.635   1.240 -30.195  1.00  0.00     0.025 A 
BRANCH  16  18
HETATM   18  C   UNL     1      -6.635  -0.397 -32.213  1.00  0.00    -0.053 A 
HETATM   19  C   UNL     1      -5.291  -0.735 -31.964  1.00  0.00     0.009 A 
HETATM   20  C   UNL     1      -4.564  -1.550 -32.838  1.00  0.00     0.024 A 
HETATM   21  C   UNL     1      -5.176  -2.049 -33.983  1.00  0.00     0.034 A 
HETATM   22  C   UNL     1      -6.507  -1.749 -34.249  1.00  0.00     0.024 A 
HETATM   23 CL   UNL     1      -4.286  -3.047 -35.064  1.00  0.00    -0.084 Cl
HETATM   24  C   UNL     1      -7.228  -0.943 -33.364  1.00  0.00     0.009 A 
ENDBRANCH  16  18
ENDBRANCH  12  15
ENDBRANCH   1  11
BRANCH   8  25
HETATM   25  C   UNL     1      -0.420   5.694 -31.733  1.00  0.00     0.270 C 
HETATM   26  N   UNL     1       0.155   6.883 -31.374  1.00  0.00    -0.365 N 
HETATM   27  H   UNL     1      -0.043   7.705 -31.933  1.00  0.00     0.159 HD
HETATM   28  H   UNL     1       0.748   6.929 -30.561  1.00  0.00     0.159 HD
HETATM   29  O   UNL     1      -0.225   4.668 -31.090  1.00  0.00    -0.266 OA
ENDBRANCH   8  25
TORSDOF 4
ENDMDL
MODEL 5
REMARK VINA RESULT:      -8.4      4.835      8.421
REMARK  4 active torsions:
REMARK  status: ('A' for Active; 'I' for Inactive)
REMARK    1  A    between atoms: C_2  and  C_3 
REMARK    2  A    between atoms: C_4  and  C_5 
REMARK       I    between atoms: C_5  and  N_6 
REMARK    3  A    between atoms: N_6  and  C_7 
REMARK    4  A    between atoms: C_14  and  C_15 
REMARK       I    between atoms: C_15  and  N_16 
ROOT
HETATM    1  C   UNL     1      -3.588   3.404 -32.641  1.00  0.00     0.035 A 
HETATM    2  C   UNL     1      -2.413   3.959 -32.106  1.00  0.00     0.046 A 
HETATM    3  C   UNL     1      -2.080   5.300 -32.390  1.00  0.00     0.030 A 
HETATM    4  C   UNL     1      -2.922   6.039 -33.211  1.00  0.00     0.063 A 
HETATM    5  N   UNL     1      -2.347   7.275 -33.302  1.00  0.00    -0.277 N 
HETATM    6  H   UNL     1      -2.690   8.073 -33.824  1.00  0.00     0.189 HD
HETATM    7  N   UNL     1      -1.206   7.411 -32.603  1.00  0.00    -0.168 NA
HETATM    8  C   UNL     1      -1.029   6.197 -32.036  1.00  0.00     0.156 A 
HETATM    9  C   UNL     1      -4.089   5.515 -33.770  1.00  0.00     0.034 A 
HETATM   10  C   UNL     1      -4.403   4.183 -33.465  1.00  0.00     0.032 A 
ENDROOT
BRANCH   1  11
HETATM   11  N   UNL     1      -3.867   2.062 -32.308  1.00  0.00    -0.327 N 
HETATM   12  C   UNL     1      -4.660   1.605 -31.276  1.00  0.00     0.227 C 
HETATM   13  O   UNL     1      -5.204   2.273 -30.409  1.00  0.00    -0.273 OA
HETATM   14  H   UNL     1      -3.395   1.358 -32.860  1.00  0.00     0.169 HD
BRANCH  12  15
HETATM   15  C   UNL     1      -4.753   0.122 -31.186  1.00  0.00     0.087 A 
HETATM   16  C   UNL     1      -5.995  -0.638 -31.622  1.00  0.00     0.032 A 
HETATM   17  C   UNL     1      -4.694  -0.797 -32.376  1.00  0.00     0.025 A 
BRANCH  16  18
HETATM   18  C   UNL     1      -7.170  -0.012 -32.341  1.00  0.00    -0.053 A 
HETATM   19  C   UNL     1      -7.252  -0.042 -33.747  1.00  0.00     0.009 A 
HETATM   20  C   UNL     1      -8.340   0.507 -34.431  1.00  0.00     0.024 A 
HETATM   21  C   UNL     1      -9.377   1.097 -33.716  1.00  0.00     0.034 A 
HETATM   22  C   UNL     1      -9.337   1.127 -32.327  1.00  0.00     0.024 A 
HETATM   23 CL   UNL     1     -10.716   1.779 -34.553  1.00  0.00    -0.084 Cl
HETATM   24  C   UNL     1      -8.249   0.565 -31.651  1.00  0.00     0.009 A 
ENDBRANCH  16  18
ENDBRANCH  12  15
ENDBRANCH   1  11
BRANCH   8  25
HETATM   25  C   UNL     1       0.122   5.917 -31.167  1.00  0.00     0.270 C 
HETATM   26  N   UNL     1       0.474   6.960 -30.353  1.00  0.00    -0.365 N 
HETATM   27  H   UNL     1      -0.068   7.815 -30.401  1.00  0.00     0.159 HD
HETATM   28  H   UNL     1       1.246   6.861 -29.714  1.00  0.00     0.159 HD
HETATM   29  O   UNL     1       0.734   4.854 -31.147  1.00  0.00    -0.266 OA
ENDBRANCH   8  25
TORSDOF 4
ENDMDL
MODEL 6
REMARK VINA RESULT:      -8.3      3.759      7.401
REMARK  4 active torsions:
REMARK  status: ('A' for Active; 'I' for Inactive)
REMARK    1  A    between atoms: C_2  and  C_3 
REMARK    2  A    between atoms: C_4  and  C_5 
REMARK       I    between atoms: C_5  and  N_6 
REMARK    3  A    between atoms: N_6  and  C_7 
REMARK    4  A    between atoms: C_14  and  C_15 
REMARK       I    between atoms: C_15  and  N_16 
ROOT
HETATM    1  C   UNL     1      -6.676   0.258 -32.975  1.00  0.00     0.035 A 
HETATM    2  C   UNL     1      -5.599  -0.506 -32.494  1.00  0.00     0.046 A 
HETATM    3  C   UNL     1      -5.119  -1.594 -33.254  1.00  0.00     0.030 A 
HETATM    4  C   UNL     1      -5.738  -1.893 -34.460  1.00  0.00     0.063 A 
HETATM    5  N   UNL     1      -5.066  -2.975 -34.955  1.00  0.00    -0.277 N 
HETATM    6  H   UNL     1      -5.250  -3.465 -35.823  1.00  0.00     0.189 HD
HETATM    7  N   UNL     1      -4.055  -3.403 -34.180  1.00  0.00    -0.168 NA
HETATM    8  C   UNL     1      -4.077  -2.559 -33.124  1.00  0.00     0.156 A 
HETATM    9  C   UNL     1      -6.818  -1.163 -34.960  1.00  0.00     0.034 A 
HETATM   10  C   UNL     1      -7.271  -0.081 -34.192  1.00  0.00     0.032 A 
ENDROOT
BRANCH   1  11
HETATM   11  N   UNL     1      -7.098   1.338 -32.172  1.00  0.00    -0.327 N 
HETATM   12  C   UNL     1      -6.697   2.654 -32.264  1.00  0.00     0.227 C 
HETATM   13  O   UNL     1      -5.843   3.119 -33.005  1.00  0.00    -0.273 OA
HETATM   14  H   UNL     1      -7.730   1.111 -31.416  1.00  0.00     0.169 HD
BRANCH  12  15
HETATM   15  C   UNL     1      -7.328   3.558 -31.263  1.00  0.00     0.087 A 
HETATM   16  C   UNL     1      -8.651   4.259 -31.526  1.00  0.00     0.032 A 
HETATM   17  C   UNL     1      -8.544   3.197 -30.454  1.00  0.00     0.025 A 
BRANCH  16  18
HETATM   18  C   UNL     1      -9.538   3.986 -32.721  1.00  0.00    -0.053 A 
HETATM   19  C   UNL     1     -10.473   2.933 -32.697  1.00  0.00     0.009 A 
HETATM   20  C   UNL     1     -11.321   2.679 -33.779  1.00  0.00     0.024 A 
HETATM   21  C   UNL     1     -11.251   3.481 -34.912  1.00  0.00     0.034 A 
HETATM   22  C   UNL     1     -10.352   4.540 -34.962  1.00  0.00     0.024 A 
HETATM   23 CL   UNL     1     -12.288   3.170 -36.250  1.00  0.00    -0.084 Cl
HETATM   24  C   UNL     1      -9.516   4.794 -33.870  1.00  0.00     0.009 A 
ENDBRANCH  16  18
ENDBRANCH  12  15
ENDBRANCH   1  11
BRANCH   8  25
HETATM   25  C   UNL     1      -3.109  -2.680 -32.025  1.00  0.00     0.270 C 
HETATM   26  N   UNL     1      -2.518  -1.498 -31.670  1.00  0.00    -0.365 N 
HETATM   27  H   UNL     1      -2.784  -0.655 -32.165  1.00  0.00     0.159 HD
HETATM   28  H   UNL     1      -1.846  -1.478 -30.919  1.00  0.00     0.159 HD
HETATM   29  O   UNL     1      -2.835  -3.731 -31.456  1.00  0.00    -0.266 OA
ENDBRANCH   8  25
TORSDOF 4
ENDMDL
MODEL 7
REMARK VINA RESULT:      -8.2      4.476      7.392
REMARK  4 active torsions:
REMARK  status: ('A' for Active; 'I' for Inactive)
REMARK    1  A    between atoms: C_2  and  C_3 
REMARK    2  A    between atoms: C_4  and  C_5 
REMARK       I    between atoms: C_5  and  N_6 
REMARK    3  A    between atoms: N_6  and  C_7 
REMARK    4  A    between atoms: C_14  and  C_15 
REMARK       I    between atoms: C_15  and  N_16 
ROOT
HETATM    1  C   UNL     1      -6.643   0.891 -33.564  1.00  0.00     0.035 A 
HETATM    2  C   UNL     1      -5.564   0.230 -32.953  1.00  0.00     0.046 A 
HETATM    3  C   UNL     1      -5.168  -1.041 -33.419  1.00  0.00     0.030 A 
HETATM    4  C   UNL     1      -5.871  -1.617 -34.469  1.00  0.00     0.063 A 
HETATM    5  N   UNL     1      -5.267  -2.823 -34.692  1.00  0.00    -0.277 N 
HETATM    6  H   UNL     1      -5.520  -3.515 -35.388  1.00  0.00     0.189 HD
HETATM    7  N   UNL     1      -4.224  -3.080 -33.883  1.00  0.00    -0.168 NA
HETATM    8  C   UNL     1      -4.153  -1.987 -33.091  1.00  0.00     0.156 A 
HETATM    9  C   UNL     1      -6.955  -0.994 -35.089  1.00  0.00     0.034 A 
HETATM   10  C   UNL     1      -7.324   0.272 -34.614  1.00  0.00     0.032 A 
ENDROOT
BRANCH   1  11
HETATM   11  N   UNL     1      -6.979   2.164 -33.057  1.00  0.00    -0.327 N 
HETATM   12  C   UNL     1      -6.636   2.692 -31.831  1.00  0.00     0.227 C 
HETATM   13  O   UNL     1      -6.044   2.129 -30.921  1.00  0.00    -0.273 OA
HETATM   14  H   UNL     1      -7.577   2.733 -33.641  1.00  0.00     0.169 HD
BRANCH  12  15
HETATM   15  C   UNL     1      -7.150   4.069 -31.591  1.00  0.00     0.087 A 
HETATM   16  C   UNL     1      -6.351   5.307 -31.967  1.00  0.00     0.032 A 
HETATM   17  C   UNL     1      -7.645   4.982 -32.679  1.00  0.00     0.025 A 
BRANCH  16  18
HETATM   18  C   UNL     1      -5.066   5.283 -32.766  1.00  0.00    -0.053 A 
HETATM   19  C   UNL     1      -3.816   5.302 -32.119  1.00  0.00     0.009 A 
HETATM   20  C   UNL     1      -2.617   5.255 -32.836  1.00  0.00     0.024 A 
HETATM   21  C   UNL     1      -2.647   5.183 -34.224  1.00  0.00     0.034 A 
HETATM   22  C   UNL     1      -3.864   5.145 -34.894  1.00  0.00     0.024 A 
HETATM   23 CL   UNL     1      -1.175   5.131 -35.113  1.00  0.00    -0.084 Cl
HETATM   24  C   UNL     1      -5.058   5.181 -34.168  1.00  0.00     0.009 A 
ENDBRANCH  16  18
ENDBRANCH  12  15
ENDBRANCH   1  11
BRANCH   8  25
HETATM   25  C   UNL     1      -3.122  -1.860 -32.051  1.00  0.00     0.270 C 
HETATM   26  N   UNL     1      -2.731  -3.052 -31.505  1.00  0.00    -0.365 N 
HETATM   27  H   UNL     1      -3.157  -3.905 -31.847  1.00  0.00     0.159 HD
HETATM   28  H   UNL     1      -2.021  -3.068 -30.789  1.00  0.00     0.159 HD
HETATM   29  O   UNL     1      -2.635  -0.796 -31.685  1.00  0.00    -0.266 OA
ENDBRANCH   8  25
TORSDOF 4
ENDMDL
MODEL 8
REMARK VINA RESULT:      -8.1      4.770      8.016
REMARK  4 active torsions:
REMARK  status: ('A' for Active; 'I' for Inactive)
REMARK    1  A    between atoms: C_2  and  C_3 
REMARK    2  A    between atoms: C_4  and  C_5 
REMARK       I    between atoms: C_5  and  N_6 
REMARK    3  A    between atoms: N_6  and  C_7 
REMARK    4  A    between atoms: C_14  and  C_15 
REMARK       I    between atoms: C_15  and  N_16 
ROOT
HETATM    1  C   UNL     1      -5.381   5.191 -33.207  1.00  0.00     0.035 A 
HETATM    2  C   UNL     1      -4.613   6.142 -32.512  1.00  0.00     0.046 A 
HETATM    3  C   UNL     1      -3.400   6.602 -33.066  1.00  0.00     0.030 A 
HETATM    4  C   UNL     1      -2.984   6.086 -34.287  1.00  0.00     0.063 A 
HETATM    5  N   UNL     1      -1.799   6.709 -34.559  1.00  0.00    -0.277 N 
HETATM    6  H   UNL     1      -1.209   6.575 -35.373  1.00  0.00     0.189 HD
HETATM    7  N   UNL     1      -1.408   7.594 -33.625  1.00  0.00    -0.168 NA
HETATM    8  C   UNL     1      -2.388   7.536 -32.696  1.00  0.00     0.156 A 
HETATM    9  C   UNL     1      -3.715   5.132 -34.997  1.00  0.00     0.034 A 
HETATM   10  C   UNL     1      -4.922   4.698 -34.431  1.00  0.00     0.032 A 
ENDROOT
BRANCH   1  11
HETATM   11  N   UNL     1      -6.588   4.784 -32.603  1.00  0.00    -0.327 N 
HETATM   12  C   UNL     1      -7.832   4.702 -33.193  1.00  0.00     0.227 C 
HETATM   13  O   UNL     1      -8.138   5.043 -34.326  1.00  0.00    -0.273 OA
HETATM   14  H   UNL     1      -6.543   4.573 -31.615  1.00  0.00     0.169 HD
BRANCH  12  15
HETATM   15  C   UNL     1      -8.913   4.237 -32.280  1.00  0.00     0.087 A 
HETATM   16  C   UNL     1      -9.314   2.774 -32.182  1.00  0.00     0.032 A 
HETATM   17  C   UNL     1      -8.668   3.475 -31.007  1.00  0.00     0.025 A 
BRANCH  16  18
HETATM   18  C   UNL     1      -8.565   1.638 -32.841  1.00  0.00    -0.053 A 
HETATM   19  C   UNL     1      -8.776   1.328 -34.199  1.00  0.00     0.009 A 
HETATM   20  C   UNL     1      -8.076   0.299 -34.836  1.00  0.00     0.024 A 
HETATM   21  C   UNL     1      -7.141  -0.442 -34.122  1.00  0.00     0.034 A 
HETATM   22  C   UNL     1      -6.894  -0.151 -32.785  1.00  0.00     0.024 A 
HETATM   23 CL   UNL     1      -6.281  -1.713 -34.898  1.00  0.00    -0.084 Cl
HETATM   24  C   UNL     1      -7.592   0.887 -32.160  1.00  0.00     0.009 A 
ENDBRANCH  16  18
ENDBRANCH  12  15
ENDBRANCH   1  11
BRANCH   8  25
HETATM   25  C   UNL     1      -2.350   8.371 -31.487  1.00  0.00     0.270 C 
HETATM   26  N   UNL     1      -1.874   7.726 -30.378  1.00  0.00    -0.365 N 
HETATM   27  H   UNL     1      -1.588   6.757 -30.467  1.00  0.00     0.159 HD
HETATM   28  H   UNL     1      -1.801   8.218 -29.503  1.00  0.00     0.159 HD
HETATM   29  O   UNL     1      -2.702   9.545 -31.444  1.00  0.00    -0.266 OA
ENDBRANCH   8  25
TORSDOF 4
ENDMDL
MODEL 9
REMARK VINA RESULT:      -7.8      4.497      8.022
REMARK  4 active torsions:
REMARK  status: ('A' for Active; 'I' for Inactive)
REMARK    1  A    between atoms: C_2  and  C_3 
REMARK    2  A    between atoms: C_4  and  C_5 
REMARK       I    between atoms: C_5  and  N_6 
REMARK    3  A    between atoms: N_6  and  C_7 
REMARK    4  A    between atoms: C_14  and  C_15 
REMARK       I    between atoms: C_15  and  N_16 
ROOT
HETATM    1  C   UNL     1      -4.523   4.066 -31.976  1.00  0.00     0.035 A 
HETATM    2  C   UNL     1      -4.120   5.047 -31.054  1.00  0.00     0.046 A 
HETATM    3  C   UNL     1      -2.816   5.582 -31.125  1.00  0.00     0.030 A 
HETATM    4  C   UNL     1      -1.953   5.109 -32.105  1.00  0.00     0.063 A 
HETATM    5  N   UNL     1      -0.788   5.801 -31.925  1.00  0.00    -0.277 N 
HETATM    6  H   UNL     1       0.066   5.712 -32.464  1.00  0.00     0.189 HD
HETATM    7  N   UNL     1      -0.819   6.691 -30.918  1.00  0.00    -0.168 NA
HETATM    8  C   UNL     1      -2.067   6.565 -30.415  1.00  0.00     0.156 A 
HETATM    9  C   UNL     1      -2.316   4.127 -33.028  1.00  0.00     0.034 A 
HETATM   10  C   UNL     1      -3.619   3.618 -32.942  1.00  0.00     0.032 A 
ENDROOT
BRANCH   1  11
HETATM   11  N   UNL     1      -5.843   3.583 -31.856  1.00  0.00    -0.327 N 
HETATM   12  C   UNL     1      -6.823   3.580 -32.825  1.00  0.00     0.227 C 
HETATM   13  O   UNL     1      -6.758   4.066 -33.946  1.00  0.00    -0.273 OA
HETATM   14  H   UNL     1      -6.112   3.245 -30.941  1.00  0.00     0.169 HD
BRANCH  12  15
HETATM   15  C   UNL     1      -8.121   3.000 -32.382  1.00  0.00     0.087 A 
HETATM   16  C   UNL     1      -8.470   1.537 -32.605  1.00  0.00     0.032 A 
HETATM   17  C   UNL     1      -8.269   2.075 -31.205  1.00  0.00     0.025 A 
BRANCH  16  18
HETATM   18  C   UNL     1      -7.501   0.497 -33.121  1.00  0.00    -0.053 A 
HETATM   19  C   UNL     1      -6.535  -0.072 -32.268  1.00  0.00     0.009 A 
HETATM   20  C   UNL     1      -5.646  -1.054 -32.717  1.00  0.00     0.024 A 
HETATM   21  C   UNL     1      -5.710  -1.490 -34.035  1.00  0.00     0.034 A 
HETATM   22  C   UNL     1      -6.663  -0.963 -34.899  1.00  0.00     0.024 A 
HETATM   23 CL   UNL     1      -4.615  -2.693 -34.594  1.00  0.00    -0.084 Cl
HETATM   24  C   UNL     1      -7.555   0.010 -34.438  1.00  0.00     0.009 A 
ENDBRANCH  16  18
ENDBRANCH  12  15
ENDBRANCH   1  11
BRANCH   8  25
HETATM   25  C   UNL     1      -2.523   7.382 -29.281  1.00  0.00     0.270 C 
HETATM   26  N   UNL     1      -2.604   6.699 -28.098  1.00  0.00    -0.365 N 
HETATM   27  H   UNL     1      -2.348   5.719 -28.086  1.00  0.00     0.159 HD
HETATM   28  H   UNL     1      -2.898   7.177 -27.261  1.00  0.00     0.159 HD
HETATM   29  O   UNL     1      -2.810   8.572 -29.356  1.00  0.00    -0.266 OA
ENDBRANCH   8  25
TORSDOF 4
ENDMDL
MODEL 10
REMARK VINA RESULT:      -7.8     15.281     16.329
REMARK  4 active torsions:
REMARK  status: ('A' for Active; 'I' for Inactive)
REMARK    1  A    between atoms: C_2  and  C_3 
REMARK    2  A    between atoms: C_4  and  C_5 
REMARK       I    between atoms: C_5  and  N_6 
REMARK    3  A    between atoms: N_6  and  C_7 
REMARK    4  A    between atoms: C_14  and  C_15 
REMARK       I    between atoms: C_15  and  N_16 
ROOT
HETATM    1  C   UNL     1      -4.614 -13.056 -39.929  1.00  0.00     0.035 A 
HETATM    2  C   UNL     1      -5.142 -13.374 -38.666  1.00  0.00     0.046 A 
HETATM    3  C   UNL     1      -6.539 -13.370 -38.470  1.00  0.00     0.030 A 
HETATM    4  C   UNL     1      -7.362 -13.032 -39.536  1.00  0.00     0.063 A 
HETATM    5  N   UNL     1      -8.637 -13.113 -39.050  1.00  0.00    -0.277 N 
HETATM    6  H   UNL     1      -9.497 -12.932 -39.554  1.00  0.00     0.189 HD
HETATM    7  N   UNL     1      -8.717 -13.484 -37.760  1.00  0.00    -0.168 NA
HETATM    8  C   UNL     1      -7.427 -13.644 -37.389  1.00  0.00     0.156 A 
HETATM    9  C   UNL     1      -6.871 -12.698 -40.799  1.00  0.00     0.034 A 
HETATM   10  C   UNL     1      -5.480 -12.719 -40.971  1.00  0.00     0.032 A 
ENDROOT
BRANCH   1  11
HETATM   11  N   UNL     1      -3.210 -13.091 -40.058  1.00  0.00    -0.327 N 
HETATM   12  C   UNL     1      -2.424 -14.189 -40.337  1.00  0.00     0.227 C 
HETATM   13  O   UNL     1      -2.787 -15.352 -40.445  1.00  0.00    -0.273 OA
HETATM   14  H   UNL     1      -2.724 -12.222 -39.881  1.00  0.00     0.169 HD
BRANCH  12  15
HETATM   15  C   UNL     1      -0.965 -13.897 -40.406  1.00  0.00     0.087 A 
HETATM   16  C   UNL     1      -0.061 -14.007 -39.189  1.00  0.00     0.032 A 
HETATM   17  C   UNL     1       0.106 -14.952 -40.358  1.00  0.00     0.025 A 
BRANCH  16  18
HETATM   18  C   UNL     1      -0.489 -14.581 -37.856  1.00  0.00    -0.053 A 
HETATM   19  C   UNL     1       0.057 -15.791 -37.386  1.00  0.00     0.009 A 
HETATM   20  C   UNL     1      -0.305 -16.328 -36.147  1.00  0.00     0.024 A 
HETATM   21  C   UNL     1      -1.223 -15.656 -35.347  1.00  0.00     0.034 A 
HETATM   22  C   UNL     1      -1.767 -14.450 -35.773  1.00  0.00     0.024 A 
HETATM   23 CL   UNL     1      -1.676 -16.314 -33.823  1.00  0.00    -0.084 Cl
HETATM   24  C   UNL     1      -1.391 -13.916 -37.009  1.00  0.00     0.009 A 
ENDBRANCH  16  18
ENDBRANCH  12  15
ENDBRANCH   1  11
BRANCH   8  25
HETATM   25  C   UNL     1      -7.068 -14.061 -36.027  1.00  0.00     0.270 C 
HETATM   26  N   UNL     1      -7.103 -13.049 -35.106  1.00  0.00    -0.365 N 
HETATM   27  H   UNL     1      -7.372 -12.122 -35.415  1.00  0.00     0.159 HD
HETATM   28  H   UNL     1      -6.881 -13.239 -34.142  1.00  0.00     0.159 HD
HETATM   29  O   UNL     1      -6.760 -15.205 -35.710  1.00  0.00    -0.266 OA
ENDBRANCH   8  25
TORSDOF 4
ENDMDL
