MODEL 1
REMARK VINA RESULT:      -7.7      0.000      0.000
REMARK  7 active torsions:
REMARK  status: ('A' for Active; 'I' for Inactive)
REMARK    1  A    between atoms: O_2  and  C_3 
REMARK    2  A    between atoms: C_4  and  C_5 
REMARK    3  A    between atoms: C_6  and  C_7 
REMARK       I    between atoms: C_7  and  N_8 
REMARK    4  A    between atoms: N_8  and  C_9 
REMARK    5  A    between atoms: C_9  and  C_10 
REMARK    6  A    between atoms: C_10  and  N_11 
REMARK    7  A    between atoms: C_10  and  C_18 
ROOT
HETATM    1  C   UNL     1      -4.179   1.752 -31.399  1.00  0.00     0.241 C 
HETATM    2  N   UNL     1      -4.926   0.972 -32.235  1.00  0.00    -0.355 N 
HETATM    3  O   UNL     1      -2.976   1.590 -31.231  1.00  0.00    -0.269 OA
HETATM    4  H   UNL     1      -5.930   1.147 -32.255  1.00  0.00     0.162 HD
ENDROOT
BRANCH   2   5
HETATM    5  C   UNL     1      -4.424  -0.235 -32.885  1.00  0.00     0.163 C 
BRANCH   5   6
HETATM    6  C   UNL     1      -5.332  -0.808 -34.021  1.00  0.00     0.262 C 
BRANCH   6   7
HETATM    7  N   UNL     1      -5.381  -2.341 -34.001  1.00  0.00    -0.059 N 
HETATM    8  H   UNL     1      -5.826  -2.572 -33.090  1.00  0.00     0.280 HD
HETATM    9  C   UNL     1      -6.278  -2.974 -35.036  1.00  0.00     0.236 C 
HETATM   10  C   UNL     1      -6.419  -4.462 -34.739  1.00  0.00     0.028 C 
HETATM   11  C   UNL     1      -5.060  -5.151 -34.681  1.00  0.00     0.003 C 
HETATM   12  C   UNL     1      -4.130  -4.454 -33.694  1.00  0.00     0.028 C 
HETATM   13  C   UNL     1      -4.012  -2.963 -33.980  1.00  0.00     0.236 C 
ENDBRANCH   6   7
BRANCH   6  14
HETATM   14  C   UNL     1      -6.683  -0.165 -34.006  1.00  0.00     0.085 A 
HETATM   15  O   UNL     1      -7.386  -0.238 -32.837  1.00  0.00    -0.325 OA
HETATM   16  C   UNL     1      -8.565   0.403 -33.039  1.00  0.00     0.142 A 
HETATM   17  C   UNL     1      -8.632   0.888 -34.323  1.00  0.00     0.027 A 
HETATM   18  C   UNL     1      -7.415   0.524 -34.951  1.00  0.00     0.037 A 
ENDBRANCH   6  14
ENDBRANCH   5   6
ENDBRANCH   2   5
BRANCH   1  19
HETATM   19  C   UNL     1      -4.935   2.799 -30.689  1.00  0.00     0.075 C 
HETATM   20  C   UNL     1      -5.096   4.046 -31.157  1.00  0.00     0.020 C 
BRANCH  20  21
HETATM   21  C   UNL     1      -4.504   4.564 -32.400  1.00  0.00    -0.001 A 
HETATM   22  C   UNL     1      -5.119   4.361 -33.651  1.00  0.00     0.078 A 
HETATM   23  C   UNL     1      -4.516   4.878 -34.803  1.00  0.00     0.039 A 
HETATM   24  C   UNL     1      -3.313   5.585 -34.715  1.00  0.00     0.022 A 
HETATM   25  C   UNL     1      -2.707   5.772 -33.475  1.00  0.00     0.012 A 
HETATM   26  C   UNL     1      -3.297   5.271 -32.318  1.00  0.00     0.033 A 
HETATM   27 BR   UNL     1      -1.059   6.690 -33.362  1.00  0.00    -0.051 Br
BRANCH  22  28
HETATM   28  O   UNL     1      -6.260   3.600 -33.655  1.00  0.00    -0.355 OA
HETATM   29  C   UNL     1      -7.489   4.299 -33.830  1.00  0.00     0.210 C 
ENDBRANCH  22  28
ENDBRANCH  20  21
ENDBRANCH   1  19
TORSDOF 7
ENDMDL
MODEL 2
REMARK VINA RESULT:      -7.5      2.978      6.966
REMARK  7 active torsions:
REMARK  status: ('A' for Active; 'I' for Inactive)
REMARK    1  A    between atoms: O_2  and  C_3 
REMARK    2  A    between atoms: C_4  and  C_5 
REMARK    3  A    between atoms: C_6  and  C_7 
REMARK       I    between atoms: C_7  and  N_8 
REMARK    4  A    between atoms: N_8  and  C_9 
REMARK    5  A    between atoms: C_9  and  C_10 
REMARK    6  A    between atoms: C_10  and  N_11 
REMARK    7  A    between atoms: C_10  and  C_18 
ROOT
HETATM    1  C   UNL     1      -5.225   1.791 -30.584  1.00  0.00     0.241 C 
HETATM    2  N   UNL     1      -4.004   1.801 -31.197  1.00  0.00    -0.355 N 
HETATM    3  O   UNL     1      -5.894   2.803 -30.410  1.00  0.00    -0.269 OA
HETATM    4  H   UNL     1      -3.499   0.916 -31.234  1.00  0.00     0.162 HD
ENDROOT
BRANCH   2   5
HETATM    5  C   UNL     1      -3.287   3.019 -31.559  1.00  0.00     0.163 C 
BRANCH   5   6
HETATM    6  C   UNL     1      -3.685   3.644 -32.935  1.00  0.00     0.262 C 
BRANCH   6   7
HETATM    7  N   UNL     1      -5.107   4.219 -32.917  1.00  0.00    -0.059 N 
HETATM    8  H   UNL     1      -5.479   3.954 -31.983  1.00  0.00     0.280 HD
HETATM    9  C   UNL     1      -5.197   5.725 -32.950  1.00  0.00     0.236 C 
HETATM   10  C   UNL     1      -6.634   6.150 -32.678  1.00  0.00     0.028 C 
HETATM   11  C   UNL     1      -7.603   5.511 -33.667  1.00  0.00     0.003 C 
HETATM   12  C   UNL     1      -7.447   3.994 -33.689  1.00  0.00     0.028 C 
HETATM   13  C   UNL     1      -6.004   3.574 -33.937  1.00  0.00     0.236 C 
ENDBRANCH   6   7
BRANCH   6  14
HETATM   14  C   UNL     1      -2.651   4.617 -33.404  1.00  0.00     0.085 A 
HETATM   15  O   UNL     1      -1.936   5.268 -32.439  1.00  0.00    -0.325 OA
HETATM   16  C   UNL     1      -1.062   6.090 -33.073  1.00  0.00     0.142 A 
HETATM   17  C   UNL     1      -1.203   5.978 -34.435  1.00  0.00     0.027 A 
HETATM   18  C   UNL     1      -2.228   5.025 -34.653  1.00  0.00     0.037 A 
ENDBRANCH   6  14
ENDBRANCH   5   6
ENDBRANCH   2   5
BRANCH   1  19
HETATM   19  C   UNL     1      -5.674   0.466 -30.120  1.00  0.00     0.075 C 
HETATM   20  C   UNL     1      -6.376  -0.389 -30.879  1.00  0.00     0.020 C 
BRANCH  20  21
HETATM   21  C   UNL     1      -6.844  -0.114 -32.245  1.00  0.00    -0.001 A 
HETATM   22  C   UNL     1      -6.010  -0.304 -33.364  1.00  0.00     0.078 A 
HETATM   23  C   UNL     1      -6.505  -0.031 -34.644  1.00  0.00     0.039 A 
HETATM   24  C   UNL     1      -7.816   0.430 -34.811  1.00  0.00     0.022 A 
HETATM   25  C   UNL     1      -8.630   0.624 -33.698  1.00  0.00     0.012 A 
HETATM   26  C   UNL     1      -8.155   0.351 -32.419  1.00  0.00     0.033 A 
HETATM   27 BR   UNL     1     -10.385   1.288 -33.922  1.00  0.00    -0.051 Br
BRANCH  22  28
HETATM   28  O   UNL     1      -4.720  -0.693 -33.106  1.00  0.00    -0.355 OA
HETATM   29  C   UNL     1      -4.306  -1.933 -33.673  1.00  0.00     0.210 C 
ENDBRANCH  22  28
ENDBRANCH  20  21
ENDBRANCH   1  19
TORSDOF 7
ENDMDL
MODEL 3
REMARK VINA RESULT:      -7.4      3.205      6.401
REMARK  7 active torsions:
REMARK  status: ('A' for Active; 'I' for Inactive)
REMARK    1  A    between atoms: O_2  and  C_3 
REMARK    2  A    between atoms: C_4  and  C_5 
REMARK    3  A    between atoms: C_6  and  C_7 
REMARK       I    between atoms: C_7  and  N_8 
REMARK    4  A    between atoms: N_8  and  C_9 
REMARK    5  A    between atoms: C_9  and  C_10 
REMARK    6  A    between atoms: C_10  and  N_11 
REMARK    7  A    between atoms: C_10  and  C_18 
ROOT
HETATM    1  C   UNL     1      -6.727   1.867 -30.472  1.00  0.00     0.241 C 
HETATM    2  N   UNL     1      -6.099   3.032 -30.812  1.00  0.00    -0.355 N 
HETATM    3  O   UNL     1      -6.127   0.878 -30.067  1.00  0.00    -0.269 OA
HETATM    4  H   UNL     1      -6.681   3.773 -31.200  1.00  0.00     0.162 HD
ENDROOT
BRANCH   2   5
HETATM    5  C   UNL     1      -4.649   3.179 -30.895  1.00  0.00     0.163 C 
BRANCH   5   6
HETATM    6  C   UNL     1      -4.010   2.731 -32.249  1.00  0.00     0.262 C 
BRANCH   6   7
HETATM    7  N   UNL     1      -2.852   3.646 -32.669  1.00  0.00    -0.059 N 
HETATM    8  H   UNL     1      -2.118   2.992 -33.007  1.00  0.00     0.280 HD
HETATM    9  C   UNL     1      -3.132   4.546 -33.847  1.00  0.00     0.236 C 
HETATM   10  C   UNL     1      -1.834   5.202 -34.300  1.00  0.00     0.028 C 
HETATM   11  C   UNL     1      -1.167   5.965 -33.161  1.00  0.00     0.003 C 
HETATM   12  C   UNL     1      -0.964   5.070 -31.943  1.00  0.00     0.028 C 
HETATM   13  C   UNL     1      -2.259   4.397 -31.510  1.00  0.00     0.236 C 
ENDBRANCH   6   7
BRANCH   6  14
HETATM   14  C   UNL     1      -3.647   1.280 -32.219  1.00  0.00     0.085 A 
HETATM   15  O   UNL     1      -2.845   0.868 -31.193  1.00  0.00    -0.325 OA
HETATM   16  C   UNL     1      -2.645  -0.465 -31.352  1.00  0.00     0.142 A 
HETATM   17  C   UNL     1      -3.306  -0.918 -32.468  1.00  0.00     0.027 A 
HETATM   18  C   UNL     1      -3.957   0.208 -33.030  1.00  0.00     0.037 A 
ENDBRANCH   6  14
ENDBRANCH   5   6
ENDBRANCH   2   5
BRANCH   1  19
HETATM   19  C   UNL     1      -8.190   1.877 -30.651  1.00  0.00     0.075 C 
HETATM   20  C   UNL     1      -8.805   1.445 -31.763  1.00  0.00     0.020 C 
BRANCH  20  21
HETATM   21  C   UNL     1      -8.122   0.959 -32.970  1.00  0.00    -0.001 A 
HETATM   22  C   UNL     1      -7.741   1.835 -34.006  1.00  0.00     0.078 A 
HETATM   23  C   UNL     1      -7.090   1.323 -35.133  1.00  0.00     0.039 A 
HETATM   24  C   UNL     1      -6.823  -0.047 -35.233  1.00  0.00     0.022 A 
HETATM   25  C   UNL     1      -7.212  -0.906 -34.210  1.00  0.00     0.012 A 
HETATM   26  C   UNL     1      -7.854  -0.411 -33.078  1.00  0.00     0.033 A 
HETATM   27 BR   UNL     1      -6.890  -2.762 -34.366  1.00  0.00    -0.051 Br
BRANCH  22  28
HETATM   28  O   UNL     1      -8.101   3.150 -33.857  1.00  0.00    -0.355 OA
HETATM   29  C   UNL     1      -7.047   4.108 -33.924  1.00  0.00     0.210 C 
ENDBRANCH  22  28
ENDBRANCH  20  21
ENDBRANCH   1  19
TORSDOF 7
ENDMDL
MODEL 4
REMARK VINA RESULT:      -7.4      3.174      7.421
REMARK  7 active torsions:
REMARK  status: ('A' for Active; 'I' for Inactive)
REMARK    1  A    between atoms: O_2  and  C_3 
REMARK    2  A    between atoms: C_4  and  C_5 
REMARK    3  A    between atoms: C_6  and  C_7 
REMARK       I    between atoms: C_7  and  N_8 
REMARK    4  A    between atoms: N_8  and  C_9 
REMARK    5  A    between atoms: C_9  and  C_10 
REMARK    6  A    between atoms: C_10  and  N_11 
REMARK    7  A    between atoms: C_10  and  C_18 
ROOT
HETATM    1  C   UNL     1      -4.499   1.031 -30.574  1.00  0.00     0.241 C 
HETATM    2  N   UNL     1      -4.293   2.378 -30.678  1.00  0.00    -0.355 N 
HETATM    3  O   UNL     1      -3.670   0.199 -30.924  1.00  0.00    -0.269 OA
HETATM    4  H   UNL     1      -5.071   2.985 -30.421  1.00  0.00     0.162 HD
ENDROOT
BRANCH   2   5
HETATM    5  C   UNL     1      -3.151   2.974 -31.364  1.00  0.00     0.163 C 
BRANCH   5   6
HETATM    6  C   UNL     1      -3.243   4.517 -31.595  1.00  0.00     0.262 C 
BRANCH   6   7
HETATM    7  N   UNL     1      -2.205   5.286 -30.769  1.00  0.00    -0.059 N 
HETATM    8  H   UNL     1      -2.427   5.040 -29.783  1.00  0.00     0.280 HD
HETATM    9  C   UNL     1      -0.773   4.849 -30.957  1.00  0.00     0.236 C 
HETATM   10  C   UNL     1       0.102   5.519 -29.905  1.00  0.00     0.028 C 
HETATM   11  C   UNL     1      -0.029   7.038 -29.954  1.00  0.00     0.003 C 
HETATM   12  C   UNL     1      -1.488   7.468 -29.848  1.00  0.00     0.028 C 
HETATM   13  C   UNL     1      -2.363   6.777 -30.885  1.00  0.00     0.236 C 
ENDBRANCH   6   7
BRANCH   6  14
HETATM   14  C   UNL     1      -3.210   4.846 -33.054  1.00  0.00     0.085 A 
HETATM   15  O   UNL     1      -2.025   4.646 -33.703  1.00  0.00    -0.325 OA
HETATM   16  C   UNL     1      -2.214   4.999 -35.000  1.00  0.00     0.142 A 
HETATM   17  C   UNL     1      -3.506   5.424 -35.196  1.00  0.00     0.027 A 
HETATM   18  C   UNL     1      -4.154   5.324 -33.940  1.00  0.00     0.037 A 
ENDBRANCH   6  14
ENDBRANCH   5   6
ENDBRANCH   2   5
BRANCH   1  19
HETATM   19  C   UNL     1      -5.812   0.646 -30.028  1.00  0.00     0.075 C 
HETATM   20  C   UNL     1      -6.830   0.204 -30.782  1.00  0.00     0.020 C 
BRANCH  20  21
HETATM   21  C   UNL     1      -6.808   0.095 -32.248  1.00  0.00    -0.001 A 
HETATM   22  C   UNL     1      -7.256   1.145 -33.073  1.00  0.00     0.078 A 
HETATM   23  C   UNL     1      -7.211   0.993 -34.463  1.00  0.00     0.039 A 
HETATM   24  C   UNL     1      -6.729  -0.193 -35.029  1.00  0.00     0.022 A 
HETATM   25  C   UNL     1      -6.297  -1.229 -34.205  1.00  0.00     0.012 A 
HETATM   26  C   UNL     1      -6.329  -1.090 -32.820  1.00  0.00     0.033 A 
HETATM   27 BR   UNL     1      -5.687  -2.846 -34.969  1.00  0.00    -0.051 Br
BRANCH  22  28
HETATM   28  O   UNL     1      -7.776   2.244 -32.437  1.00  0.00    -0.355 OA
HETATM   29  C   UNL     1      -7.151   3.494 -32.717  1.00  0.00     0.210 C 
ENDBRANCH  22  28
ENDBRANCH  20  21
ENDBRANCH   1  19
TORSDOF 7
ENDMDL
MODEL 5
REMARK VINA RESULT:      -7.2      3.136      7.552
REMARK  7 active torsions:
REMARK  status: ('A' for Active; 'I' for Inactive)
REMARK    1  A    between atoms: O_2  and  C_3 
REMARK    2  A    between atoms: C_4  and  C_5 
REMARK    3  A    between atoms: C_6  and  C_7 
REMARK       I    between atoms: C_7  and  N_8 
REMARK    4  A    between atoms: N_8  and  C_9 
REMARK    5  A    between atoms: C_9  and  C_10 
REMARK    6  A    between atoms: C_10  and  N_11 
REMARK    7  A    between atoms: C_10  and  C_18 
ROOT
HETATM    1  C   UNL     1      -3.851   1.430 -31.255  1.00  0.00     0.241 C 
HETATM    2  N   UNL     1      -3.905   2.701 -31.752  1.00  0.00    -0.355 N 
HETATM    3  O   UNL     1      -2.918   0.666 -31.475  1.00  0.00    -0.269 OA
HETATM    4  H   UNL     1      -4.755   3.234 -31.566  1.00  0.00     0.162 HD
ENDROOT
BRANCH   2   5
HETATM    5  C   UNL     1      -2.958   3.234 -32.727  1.00  0.00     0.163 C 
BRANCH   5   6
HETATM    6  C   UNL     1      -2.832   4.791 -32.751  1.00  0.00     0.262 C 
BRANCH   6   7
HETATM    7  N   UNL     1      -4.116   5.481 -32.276  1.00  0.00    -0.059 N 
HETATM    8  H   UNL     1      -4.538   4.806 -31.607  1.00  0.00     0.280 HD
HETATM    9  C   UNL     1      -3.915   6.740 -31.470  1.00  0.00     0.236 C 
HETATM   10  C   UNL     1      -5.245   7.170 -30.863  1.00  0.00     0.028 C 
HETATM   11  C   UNL     1      -6.313   7.358 -31.936  1.00  0.00     0.003 C 
HETATM   12  C   UNL     1      -6.451   6.109 -32.800  1.00  0.00     0.028 C 
HETATM   13  C   UNL     1      -5.115   5.670 -33.384  1.00  0.00     0.236 C 
ENDBRANCH   6   7
BRANCH   6  14
HETATM   14  C   UNL     1      -1.604   5.243 -32.025  1.00  0.00     0.085 A 
HETATM   15  O   UNL     1      -1.234   4.514 -30.931  1.00  0.00    -0.325 OA
HETATM   16  C   UNL     1      -0.109   5.086 -30.431  1.00  0.00     0.142 A 
HETATM   17  C   UNL     1       0.251   6.175 -31.188  1.00  0.00     0.027 A 
HETATM   18  C   UNL     1      -0.713   6.278 -32.221  1.00  0.00     0.037 A 
ENDBRANCH   6  14
ENDBRANCH   5   6
ENDBRANCH   2   5
BRANCH   1  19
HETATM   19  C   UNL     1      -5.017   1.030 -30.448  1.00  0.00     0.075 C 
HETATM   20  C   UNL     1      -6.115   0.454 -30.962  1.00  0.00     0.020 C 
BRANCH  20  21
HETATM   21  C   UNL     1      -6.339   0.193 -32.391  1.00  0.00    -0.001 A 
HETATM   22  C   UNL     1      -6.775   1.206 -33.267  1.00  0.00     0.078 A 
HETATM   23  C   UNL     1      -6.970   0.906 -34.620  1.00  0.00     0.039 A 
HETATM   24  C   UNL     1      -6.739  -0.389 -35.097  1.00  0.00     0.022 A 
HETATM   25  C   UNL     1      -6.317  -1.386 -34.222  1.00  0.00     0.012 A 
HETATM   26  C   UNL     1      -6.112  -1.102 -32.875  1.00  0.00     0.033 A 
HETATM   27 BR   UNL     1      -6.047  -3.144 -34.859  1.00  0.00    -0.051 Br
BRANCH  22  28
HETATM   28  O   UNL     1      -7.043   2.428 -32.704  1.00  0.00    -0.355 OA
HETATM   29  C   UNL     1      -8.386   2.894 -32.811  1.00  0.00     0.210 C 
ENDBRANCH  22  28
ENDBRANCH  20  21
ENDBRANCH   1  19
TORSDOF 7
ENDMDL
MODEL 6
REMARK VINA RESULT:      -7.1      2.937      6.963
REMARK  7 active torsions:
REMARK  status: ('A' for Active; 'I' for Inactive)
REMARK    1  A    between atoms: O_2  and  C_3 
REMARK    2  A    between atoms: C_4  and  C_5 
REMARK    3  A    between atoms: C_6  and  C_7 
REMARK       I    between atoms: C_7  and  N_8 
REMARK    4  A    between atoms: N_8  and  C_9 
REMARK    5  A    between atoms: C_9  and  C_10 
REMARK    6  A    between atoms: C_10  and  N_11 
REMARK    7  A    between atoms: C_10  and  C_18 
ROOT
HETATM    1  C   UNL     1      -4.584   1.329 -30.879  1.00  0.00     0.241 C 
HETATM    2  N   UNL     1      -4.927   2.588 -31.285  1.00  0.00    -0.355 N 
HETATM    3  O   UNL     1      -3.481   0.837 -31.085  1.00  0.00    -0.269 OA
HETATM    4  H   UNL     1      -5.890   2.879 -31.122  1.00  0.00     0.162 HD
ENDROOT
BRANCH   2   5
HETATM    5  C   UNL     1      -4.092   3.418 -32.148  1.00  0.00     0.163 C 
BRANCH   5   6
HETATM    6  C   UNL     1      -4.429   4.944 -32.134  1.00  0.00     0.262 C 
BRANCH   6   7
HETATM    7  N   UNL     1      -3.359   5.776 -32.851  1.00  0.00    -0.059 N 
HETATM    8  H   UNL     1      -3.888   6.310 -33.570  1.00  0.00     0.280 HD
HETATM    9  C   UNL     1      -2.687   6.833 -32.009  1.00  0.00     0.236 C 
HETATM   10  C   UNL     1      -1.844   7.731 -32.905  1.00  0.00     0.028 C 
HETATM   11  C   UNL     1      -0.826   6.925 -33.706  1.00  0.00     0.003 C 
HETATM   12  C   UNL     1      -1.504   5.805 -34.489  1.00  0.00     0.028 C 
HETATM   13  C   UNL     1      -2.365   4.926 -33.593  1.00  0.00     0.236 C 
ENDBRANCH   6   7
BRANCH   6  14
HETATM   14  C   UNL     1      -5.817   5.194 -32.633  1.00  0.00     0.085 A 
HETATM   15  O   UNL     1      -6.307   4.313 -33.554  1.00  0.00    -0.325 OA
HETATM   16  C   UNL     1      -7.565   4.717 -33.864  1.00  0.00     0.142 A 
HETATM   17  C   UNL     1      -7.893   5.847 -33.155  1.00  0.00     0.027 A 
HETATM   18  C   UNL     1      -6.765   6.157 -32.356  1.00  0.00     0.037 A 
ENDBRANCH   6  14
ENDBRANCH   5   6
ENDBRANCH   2   5
BRANCH   1  19
HETATM   19  C   UNL     1      -5.655   0.589 -30.188  1.00  0.00     0.075 C 
HETATM   20  C   UNL     1      -6.579  -0.147 -30.824  1.00  0.00     0.020 C 
BRANCH  20  21
HETATM   21  C   UNL     1      -6.696  -0.276 -32.284  1.00  0.00    -0.001 A 
HETATM   22  C   UNL     1      -7.383   0.680 -33.057  1.00  0.00     0.078 A 
HETATM   23  C   UNL     1      -7.462   0.512 -34.444  1.00  0.00     0.039 A 
HETATM   24  C   UNL     1      -6.868  -0.596 -35.057  1.00  0.00     0.022 A 
HETATM   25  C   UNL     1      -6.198  -1.541 -34.284  1.00  0.00     0.012 A 
HETATM   26  C   UNL     1      -6.105  -1.385 -32.904  1.00  0.00     0.033 A 
HETATM   27 BR   UNL     1      -5.434  -3.060 -35.108  1.00  0.00    -0.051 Br
BRANCH  22  28
HETATM   28  O   UNL     1      -7.994   1.697 -32.370  1.00  0.00    -0.355 OA
HETATM   29  C   UNL     1      -9.417   1.745 -32.439  1.00  0.00     0.210 C 
ENDBRANCH  22  28
ENDBRANCH  20  21
ENDBRANCH   1  19
TORSDOF 7
ENDMDL
MODEL 7
REMARK VINA RESULT:      -7.1      3.055      7.355
REMARK  7 active torsions:
REMARK  status: ('A' for Active; 'I' for Inactive)
REMARK    1  A    between atoms: O_2  and  C_3 
REMARK    2  A    between atoms: C_4  and  C_5 
REMARK    3  A    between atoms: C_6  and  C_7 
REMARK       I    between atoms: C_7  and  N_8 
REMARK    4  A    between atoms: N_8  and  C_9 
REMARK    5  A    between atoms: C_9  and  C_10 
REMARK    6  A    between atoms: C_10  and  N_11 
REMARK    7  A    between atoms: C_10  and  C_18 
ROOT
HETATM    1  C   UNL     1      -4.711   1.622 -31.447  1.00  0.00     0.241 C 
HETATM    2  N   UNL     1      -5.485   2.646 -30.980  1.00  0.00    -0.355 N 
HETATM    3  O   UNL     1      -3.848   1.773 -32.304  1.00  0.00    -0.269 OA
HETATM    4  H   UNL     1      -6.219   2.404 -30.315  1.00  0.00     0.162 HD
ENDROOT
BRANCH   2   5
HETATM    5  C   UNL     1      -5.494   3.987 -31.558  1.00  0.00     0.163 C 
BRANCH   5   6
HETATM    6  C   UNL     1      -4.258   4.874 -31.201  1.00  0.00     0.262 C 
BRANCH   6   7
HETATM    7  N   UNL     1      -3.418   5.216 -32.438  1.00  0.00    -0.059 N 
HETATM    8  H   UNL     1      -3.350   6.253 -32.424  1.00  0.00     0.280 HD
HETATM    9  C   UNL     1      -1.987   4.740 -32.401  1.00  0.00     0.236 C 
HETATM   10  C   UNL     1      -1.220   5.357 -33.563  1.00  0.00     0.028 C 
HETATM   11  C   UNL     1      -1.880   5.039 -34.901  1.00  0.00     0.003 C 
HETATM   12  C   UNL     1      -3.349   5.447 -34.901  1.00  0.00     0.028 C 
HETATM   13  C   UNL     1      -4.106   4.847 -33.724  1.00  0.00     0.236 C 
ENDBRANCH   6   7
BRANCH   6  14
HETATM   14  C   UNL     1      -4.669   6.074 -30.406  1.00  0.00     0.085 A 
HETATM   15  O   UNL     1      -3.678   6.945 -30.052  1.00  0.00    -0.325 OA
HETATM   16  C   UNL     1      -4.261   7.949 -29.350  1.00  0.00     0.142 A 
HETATM   17  C   UNL     1      -5.615   7.738 -29.246  1.00  0.00     0.027 A 
HETATM   18  C   UNL     1      -5.882   6.526 -29.930  1.00  0.00     0.037 A 
ENDBRANCH   6  14
ENDBRANCH   5   6
ENDBRANCH   2   5
BRANCH   1  19
HETATM   19  C   UNL     1      -5.007   0.304 -30.859  1.00  0.00     0.075 C 
HETATM   20  C   UNL     1      -5.797  -0.610 -31.443  1.00  0.00     0.020 C 
BRANCH  20  21
HETATM   21  C   UNL     1      -6.519  -0.416 -32.709  1.00  0.00    -0.001 A 
HETATM   22  C   UNL     1      -5.959  -0.795 -33.944  1.00  0.00     0.078 A 
HETATM   23  C   UNL     1      -6.690  -0.592 -35.120  1.00  0.00     0.039 A 
HETATM   24  C   UNL     1      -7.962  -0.013 -35.070  1.00  0.00     0.022 A 
HETATM   25  C   UNL     1      -8.504   0.368 -33.845  1.00  0.00     0.012 A 
HETATM   26  C   UNL     1      -7.793   0.166 -32.666  1.00  0.00     0.033 A 
HETATM   27 BR   UNL     1     -10.204   1.190 -33.783  1.00  0.00    -0.051 Br
BRANCH  22  28
HETATM   28  O   UNL     1      -4.681  -1.292 -33.910  1.00  0.00    -0.355 OA
HETATM   29  C   UNL     1      -4.519  -2.654 -34.299  1.00  0.00     0.210 C 
ENDBRANCH  22  28
ENDBRANCH  20  21
ENDBRANCH   1  19
TORSDOF 7
ENDMDL
MODEL 8
REMARK VINA RESULT:      -6.9      2.390      3.466
REMARK  7 active torsions:
REMARK  status: ('A' for Active; 'I' for Inactive)
REMARK    1  A    between atoms: O_2  and  C_3 
REMARK    2  A    between atoms: C_4  and  C_5 
REMARK    3  A    between atoms: C_6  and  C_7 
REMARK       I    between atoms: C_7  and  N_8 
REMARK    4  A    between atoms: N_8  and  C_9 
REMARK    5  A    between atoms: C_9  and  C_10 
REMARK    6  A    between atoms: C_10  and  N_11 
REMARK    7  A    between atoms: C_10  and  C_18 
ROOT
HETATM    1  C   UNL     1      -4.748   4.309 -31.737  1.00  0.00     0.241 C 
HETATM    2  N   UNL     1      -4.603   3.400 -32.747  1.00  0.00    -0.355 N 
HETATM    3  O   UNL     1      -4.854   3.988 -30.559  1.00  0.00    -0.269 OA
HETATM    4  H   UNL     1      -4.589   3.767 -33.698  1.00  0.00     0.162 HD
ENDROOT
BRANCH   2   5
HETATM    5  C   UNL     1      -4.726   1.958 -32.566  1.00  0.00     0.163 C 
BRANCH   5   6
HETATM    6  C   UNL     1      -5.954   1.299 -33.273  1.00  0.00     0.262 C 
BRANCH   6   7
HETATM    7  N   UNL     1      -5.758  -0.208 -33.481  1.00  0.00    -0.059 N 
HETATM    8  H   UNL     1      -6.215  -0.643 -32.654  1.00  0.00     0.280 HD
HETATM    9  C   UNL     1      -6.479  -0.797 -34.669  1.00  0.00     0.236 C 
HETATM   10  C   UNL     1      -6.398  -2.317 -34.605  1.00  0.00     0.028 C 
HETATM   11  C   UNL     1      -4.952  -2.797 -34.535  1.00  0.00     0.003 C 
HETATM   12  C   UNL     1      -4.207  -2.133 -33.382  1.00  0.00     0.028 C 
HETATM   13  C   UNL     1      -4.311  -0.615 -33.437  1.00  0.00     0.236 C 
ENDBRANCH   6   7
BRANCH   6  14
HETATM   14  C   UNL     1      -7.229   1.646 -32.572  1.00  0.00     0.085 A 
HETATM   15  O   UNL     1      -7.708   2.912 -32.759  1.00  0.00    -0.325 OA
HETATM   16  C   UNL     1      -8.859   3.013 -32.047  1.00  0.00     0.142 A 
HETATM   17  C   UNL     1      -9.129   1.829 -31.403  1.00  0.00     0.027 A 
HETATM   18  C   UNL     1      -8.077   0.942 -31.742  1.00  0.00     0.037 A 
ENDBRANCH   6  14
ENDBRANCH   5   6
ENDBRANCH   2   5
BRANCH   1  19
HETATM   19  C   UNL     1      -4.792   5.716 -32.171  1.00  0.00     0.075 C 
HETATM   20  C   UNL     1      -3.735   6.541 -32.129  1.00  0.00     0.020 C 
BRANCH  20  21
HETATM   21  C   UNL     1      -2.411   6.188 -31.597  1.00  0.00    -0.001 A 
HETATM   22  C   UNL     1      -1.497   5.419 -32.343  1.00  0.00     0.078 A 
HETATM   23  C   UNL     1      -0.247   5.112 -31.793  1.00  0.00     0.039 A 
HETATM   24  C   UNL     1       0.090   5.562 -30.512  1.00  0.00     0.022 A 
HETATM   25  C   UNL     1      -0.823   6.314 -29.778  1.00  0.00     0.012 A 
HETATM   26  C   UNL     1      -2.068   6.633 -30.314  1.00  0.00     0.033 A 
HETATM   27 BR   UNL     1      -0.383   6.884 -28.031  1.00  0.00    -0.051 Br
BRANCH  22  28
HETATM   28  O   UNL     1      -1.933   4.961 -33.561  1.00  0.00    -0.355 OA
HETATM   29  C   UNL     1      -1.252   5.463 -34.708  1.00  0.00     0.210 C 
ENDBRANCH  22  28
ENDBRANCH  20  21
ENDBRANCH   1  19
TORSDOF 7
ENDMDL
MODEL 9
REMARK VINA RESULT:      -6.8      2.851      7.617
REMARK  7 active torsions:
REMARK  status: ('A' for Active; 'I' for Inactive)
REMARK    1  A    between atoms: O_2  and  C_3 
REMARK    2  A    between atoms: C_4  and  C_5 
REMARK    3  A    between atoms: C_6  and  C_7 
REMARK       I    between atoms: C_7  and  N_8 
REMARK    4  A    between atoms: N_8  and  C_9 
REMARK    5  A    between atoms: C_9  and  C_10 
REMARK    6  A    between atoms: C_10  and  N_11 
REMARK    7  A    between atoms: C_10  and  C_18 
ROOT
HETATM    1  C   UNL     1      -3.581   0.935 -31.991  1.00  0.00     0.241 C 
HETATM    2  N   UNL     1      -3.563   2.285 -31.781  1.00  0.00    -0.355 N 
HETATM    3  O   UNL     1      -3.006   0.396 -32.929  1.00  0.00    -0.269 OA
HETATM    4  H   UNL     1      -4.128   2.640 -31.010  1.00  0.00     0.162 HD
ENDROOT
BRANCH   2   5
HETATM    5  C   UNL     1      -3.008   3.247 -32.728  1.00  0.00     0.163 C 
BRANCH   5   6
HETATM    6  C   UNL     1      -3.112   4.744 -32.296  1.00  0.00     0.262 C 
BRANCH   6   7
HETATM    7  N   UNL     1      -4.275   4.985 -31.325  1.00  0.00    -0.059 N 
HETATM    8  H   UNL     1      -4.318   4.116 -30.755  1.00  0.00     0.280 HD
HETATM    9  C   UNL     1      -4.064   6.091 -30.321  1.00  0.00     0.236 C 
HETATM   10  C   UNL     1      -5.177   6.048 -29.282  1.00  0.00     0.028 C 
HETATM   11  C   UNL     1      -6.553   6.141 -29.933  1.00  0.00     0.003 C 
HETATM   12  C   UNL     1      -6.728   5.071 -31.006  1.00  0.00     0.028 C 
HETATM   13  C   UNL     1      -5.599   5.102 -32.028  1.00  0.00     0.236 C 
ENDBRANCH   6   7
BRANCH   6  14
HETATM   14  C   UNL     1      -1.798   5.251 -31.792  1.00  0.00     0.085 A 
HETATM   15  O   UNL     1      -1.110   4.437 -30.938  1.00  0.00    -0.325 OA
HETATM   16  C   UNL     1       0.040   5.079 -30.611  1.00  0.00     0.142 A 
HETATM   17  C   UNL     1       0.104   6.298 -31.243  1.00  0.00     0.027 A 
HETATM   18  C   UNL     1      -1.082   6.412 -32.010  1.00  0.00     0.037 A 
ENDBRANCH   6  14
ENDBRANCH   5   6
ENDBRANCH   2   5
BRANCH   1  19
HETATM   19  C   UNL     1      -4.371   0.167 -31.012  1.00  0.00     0.075 C 
HETATM   20  C   UNL     1      -5.561  -0.388 -31.288  1.00  0.00     0.020 C 
BRANCH  20  21
HETATM   21  C   UNL     1      -6.271  -0.265 -32.569  1.00  0.00    -0.001 A 
HETATM   22  C   UNL     1      -6.026  -1.150 -33.637  1.00  0.00     0.078 A 
HETATM   23  C   UNL     1      -6.731  -0.993 -34.835  1.00  0.00     0.039 A 
HETATM   24  C   UNL     1      -7.669   0.036 -34.973  1.00  0.00     0.022 A 
HETATM   25  C   UNL     1      -7.899   0.912 -33.915  1.00  0.00     0.012 A 
HETATM   26  C   UNL     1      -7.210   0.765 -32.715  1.00  0.00     0.033 A 
HETATM   27 BR   UNL     1      -9.134   2.328 -34.118  1.00  0.00    -0.051 Br
BRANCH  22  28
HETATM   28  O   UNL     1      -5.043  -2.087 -33.441  1.00  0.00    -0.355 OA
HETATM   29  C   UNL     1      -4.687  -2.879 -34.572  1.00  0.00     0.210 C 
ENDBRANCH  22  28
ENDBRANCH  20  21
ENDBRANCH   1  19
TORSDOF 7
ENDMDL
MODEL 10
REMARK VINA RESULT:      -6.8      2.607      5.109
REMARK  7 active torsions:
REMARK  status: ('A' for Active; 'I' for Inactive)
REMARK    1  A    between atoms: O_2  and  C_3 
REMARK    2  A    between atoms: C_4  and  C_5 
REMARK    3  A    between atoms: C_6  and  C_7 
REMARK       I    between atoms: C_7  and  N_8 
REMARK    4  A    between atoms: N_8  and  C_9 
REMARK    5  A    between atoms: C_9  and  C_10 
REMARK    6  A    between atoms: C_10  and  N_11 
REMARK    7  A    between atoms: C_10  and  C_18 
ROOT
HETATM    1  C   UNL     1      -7.154   4.841 -31.515  1.00  0.00     0.241 C 
HETATM    2  N   UNL     1      -7.527   3.624 -32.012  1.00  0.00    -0.355 N 
HETATM    3  O   UNL     1      -7.327   5.892 -32.122  1.00  0.00    -0.269 OA
HETATM    4  H   UNL     1      -7.279   2.804 -31.458  1.00  0.00     0.162 HD
ENDROOT
BRANCH   2   5
HETATM    5  C   UNL     1      -8.011   3.415 -33.372  1.00  0.00     0.163 C 
BRANCH   5   6
HETATM    6  C   UNL     1      -8.775   2.073 -33.609  1.00  0.00     0.262 C 
BRANCH   6   7
HETATM    7  N   UNL     1     -10.016   2.265 -34.490  1.00  0.00    -0.059 N 
HETATM    8  H   UNL     1      -9.735   1.886 -35.417  1.00  0.00     0.280 HD
HETATM    9  C   UNL     1     -11.223   1.450 -34.095  1.00  0.00     0.236 C 
HETATM   10  C   UNL     1     -12.280   1.552 -35.188  1.00  0.00     0.028 C 
HETATM   11  C   UNL     1     -12.654   3.003 -35.470  1.00  0.00     0.003 C 
HETATM   12  C   UNL     1     -11.419   3.839 -35.786  1.00  0.00     0.028 C 
HETATM   13  C   UNL     1     -10.356   3.714 -34.703  1.00  0.00     0.236 C 
ENDBRANCH   6   7
BRANCH   6  14
HETATM   14  C   UNL     1      -7.850   1.006 -34.103  1.00  0.00     0.085 A 
HETATM   15  O   UNL     1      -6.643   0.899 -33.473  1.00  0.00    -0.325 OA
HETATM   16  C   UNL     1      -5.971  -0.120 -34.067  1.00  0.00     0.142 A 
HETATM   17  C   UNL     1      -6.728  -0.671 -35.073  1.00  0.00     0.027 A 
HETATM   18  C   UNL     1      -7.945   0.054 -35.098  1.00  0.00     0.037 A 
ENDBRANCH   6  14
ENDBRANCH   5   6
ENDBRANCH   2   5
BRANCH   1  19
HETATM   19  C   UNL     1      -6.501   4.798 -30.195  1.00  0.00     0.075 C 
HETATM   20  C   UNL     1      -5.171   4.765 -30.025  1.00  0.00     0.020 C 
BRANCH  20  21
HETATM   21  C   UNL     1      -4.183   4.709 -31.112  1.00  0.00    -0.001 A 
HETATM   22  C   UNL     1      -3.886   3.505 -31.779  1.00  0.00     0.078 A 
HETATM   23  C   UNL     1      -2.940   3.505 -32.810  1.00  0.00     0.039 A 
HETATM   24  C   UNL     1      -2.292   4.691 -33.173  1.00  0.00     0.022 A 
HETATM   25  C   UNL     1      -2.584   5.875 -32.501  1.00  0.00     0.012 A 
HETATM   26  C   UNL     1      -3.528   5.892 -31.478  1.00  0.00     0.033 A 
HETATM   27 BR   UNL     1      -1.676   7.467 -32.963  1.00  0.00    -0.051 Br
BRANCH  22  28
HETATM   28  O   UNL     1      -4.516   2.378 -31.315  1.00  0.00    -0.355 OA
HETATM   29  C   UNL     1      -3.729   1.192 -31.250  1.00  0.00     0.210 C 
ENDBRANCH  22  28
ENDBRANCH  20  21
ENDBRANCH   1  19
TORSDOF 7
ENDMDL
