MODEL 1
REMARK VINA RESULT:      -7.8      0.000      0.000
REMARK  5 active torsions:
REMARK  status: ('A' for Active; 'I' for Inactive)
REMARK    1  A    between atoms: C_7  and  N_8 
REMARK    2  A    between atoms: N_8  and  C_9 
REMARK    3  A    between atoms: C_9  and  C_10 
REMARK       I    between atoms: C_10  and  N_11 
REMARK    4  A    between atoms: N_11  and  C_12 
REMARK    5  A    between atoms: C_16  and  C_17 
ROOT
HETATM    1  C   UNL     1      -3.405   0.910 -32.255  1.00  0.00     0.068 C 
HETATM    2  C   UNL     1      -4.476   0.057 -32.867  1.00  0.00     0.014 A 
HETATM    3  N   UNL     1      -4.101  -1.168 -33.275  1.00  0.00    -0.359 N 
HETATM    4  H   UNL     1      -3.127  -1.440 -33.149  1.00  0.00     0.166 HD
HETATM    5  C   UNL     1      -4.926  -2.073 -33.821  1.00  0.00     0.044 A 
HETATM    6  C   UNL     1      -6.283  -1.746 -34.014  1.00  0.00     0.012 A 
HETATM    7  C   UNL     1      -6.718  -0.440 -33.651  1.00  0.00     0.030 A 
HETATM    8  C   UNL     1      -5.818   0.462 -33.024  1.00  0.00    -0.010 A 
HETATM    9  C   UNL     1      -4.421  -3.330 -34.193  1.00  0.00     0.030 A 
HETATM   10  C   UNL     1      -5.263  -4.292 -34.744  1.00  0.00     0.002 A 
HETATM   11  C   UNL     1      -6.611  -4.008 -34.914  1.00  0.00     0.001 A 
HETATM   12  C   UNL     1      -7.116  -2.756 -34.550  1.00  0.00     0.015 A 
ENDROOT
BRANCH   7  13
HETATM   13  N   UNL     1      -8.023   0.003 -33.926  1.00  0.00    -0.283 NA
HETATM   14  H   UNL     1      -8.052   0.973 -34.253  1.00  0.00     0.128 HD
BRANCH  13  15
HETATM   15  C   UNL     1      -8.996  -0.150 -32.825  1.00  0.00     0.195 C 
BRANCH  15  16
HETATM   16  C   UNL     1     -10.147   0.845 -33.024  1.00  0.00     0.231 C 
HETATM   17  N   UNL     1     -11.350   0.261 -33.359  1.00  0.00    -0.356 N 
HETATM   18  H   UNL     1     -11.353  -0.710 -33.641  1.00  0.00     0.162 HD
HETATM   19  O   UNL     1      -9.979   2.056 -32.903  1.00  0.00    -0.272 OA
BRANCH  17  20
HETATM   20  C   UNL     1     -12.519   1.051 -33.726  1.00  0.00     0.076 C 
HETATM   21  C   UNL     1     -12.388   1.555 -35.163  1.00  0.00     0.032 C 
HETATM   22  C   UNL     1     -13.780   0.208 -33.562  1.00  0.00     0.032 C 
ENDBRANCH  17  20
ENDBRANCH  15  16
ENDBRANCH  13  15
ENDBRANCH   7  13
BRANCH   8  23
HETATM   23  C   UNL     1      -6.246   1.846 -32.516  1.00  0.00     0.014 C 
HETATM   24  C   UNL     1      -6.223   1.927 -30.988  1.00  0.00     0.015 C 
HETATM   25  C   UNL     1      -5.505   3.031 -33.147  1.00  0.00     0.015 C 
ENDBRANCH   8  23
TORSDOF 5
ENDMDL
MODEL 2
REMARK VINA RESULT:      -7.6      1.394      1.727
REMARK  5 active torsions:
REMARK  status: ('A' for Active; 'I' for Inactive)
REMARK    1  A    between atoms: C_7  and  N_8 
REMARK    2  A    between atoms: N_8  and  C_9 
REMARK    3  A    between atoms: C_9  and  C_10 
REMARK       I    between atoms: C_10  and  N_11 
REMARK    4  A    between atoms: N_11  and  C_12 
REMARK    5  A    between atoms: C_16  and  C_17 
ROOT
HETATM    1  C   UNL     1      -3.239   0.614 -32.351  1.00  0.00     0.068 C 
HETATM    2  C   UNL     1      -4.385  -0.207 -32.864  1.00  0.00     0.014 A 
HETATM    3  N   UNL     1      -4.063  -1.355 -33.485  1.00  0.00    -0.359 N 
HETATM    4  H   UNL     1      -3.077  -1.594 -33.573  1.00  0.00     0.166 HD
HETATM    5  C   UNL     1      -4.955  -2.224 -33.984  1.00  0.00     0.044 A 
HETATM    6  C   UNL     1      -6.331  -1.940 -33.884  1.00  0.00     0.012 A 
HETATM    7  C   UNL     1      -6.721  -0.708 -33.286  1.00  0.00     0.030 A 
HETATM    8  C   UNL     1      -5.742   0.151 -32.722  1.00  0.00    -0.010 A 
HETATM    9  C   UNL     1      -4.498  -3.402 -34.599  1.00  0.00     0.030 A 
HETATM   10  C   UNL     1      -5.405  -4.328 -35.106  1.00  0.00     0.002 A 
HETATM   11  C   UNL     1      -6.767  -4.089 -34.992  1.00  0.00     0.001 A 
HETATM   12  C   UNL     1      -7.225  -2.915 -34.385  1.00  0.00     0.015 A 
ENDROOT
BRANCH   7  13
HETATM   13  N   UNL     1      -8.065  -0.296 -33.261  1.00  0.00    -0.283 NA
HETATM   14  H   UNL     1      -8.713  -1.069 -33.081  1.00  0.00     0.128 HD
BRANCH  13  15
HETATM   15  C   UNL     1      -8.531   0.439 -34.454  1.00  0.00     0.195 C 
BRANCH  15  16
HETATM   16  C   UNL     1      -9.807   1.216 -34.103  1.00  0.00     0.231 C 
HETATM   17  N   UNL     1     -10.116   2.229 -34.987  1.00  0.00    -0.356 N 
HETATM   18  H   UNL     1      -9.414   2.517 -35.655  1.00  0.00     0.162 HD
HETATM   19  O   UNL     1     -10.470   0.947 -33.105  1.00  0.00    -0.272 OA
BRANCH  17  20
HETATM   20  C   UNL     1     -11.207   3.164 -34.742  1.00  0.00     0.076 C 
HETATM   21  C   UNL     1     -10.691   4.602 -34.778  1.00  0.00     0.032 C 
HETATM   22  C   UNL     1     -12.302   2.957 -35.784  1.00  0.00     0.032 C 
ENDBRANCH  17  20
ENDBRANCH  15  16
ENDBRANCH  13  15
ENDBRANCH   7  13
BRANCH   8  23
HETATM   23  C   UNL     1      -6.100   1.443 -31.972  1.00  0.00     0.014 C 
HETATM   24  C   UNL     1      -6.299   2.621 -32.927  1.00  0.00     0.015 C 
HETATM   25  C   UNL     1      -7.268   1.322 -30.985  1.00  0.00     0.015 C 
ENDBRANCH   8  23
TORSDOF 5
ENDMDL
MODEL 3
REMARK VINA RESULT:      -7.1      1.818      2.416
REMARK  5 active torsions:
REMARK  status: ('A' for Active; 'I' for Inactive)
REMARK    1  A    between atoms: C_7  and  N_8 
REMARK    2  A    between atoms: N_8  and  C_9 
REMARK    3  A    between atoms: C_9  and  C_10 
REMARK       I    between atoms: C_10  and  N_11 
REMARK    4  A    between atoms: N_11  and  C_12 
REMARK    5  A    between atoms: C_16  and  C_17 
ROOT
HETATM    1  C   UNL     1      -5.538   3.636 -32.051  1.00  0.00     0.068 C 
HETATM    2  C   UNL     1      -6.115   2.446 -32.757  1.00  0.00     0.014 A 
HETATM    3  N   UNL     1      -5.299   1.389 -32.907  1.00  0.00    -0.359 N 
HETATM    4  H   UNL     1      -4.350   1.457 -32.541  1.00  0.00     0.166 HD
HETATM    5  C   UNL     1      -5.651   0.233 -33.490  1.00  0.00     0.044 A 
HETATM    6  C   UNL     1      -6.953   0.087 -34.009  1.00  0.00     0.012 A 
HETATM    7  C   UNL     1      -7.837   1.199 -33.927  1.00  0.00     0.030 A 
HETATM    8  C   UNL     1      -7.436   2.380 -33.249  1.00  0.00    -0.010 A 
HETATM    9  C   UNL     1      -4.713  -0.810 -33.573  1.00  0.00     0.030 A 
HETATM   10  C   UNL     1      -5.062  -2.025 -34.156  1.00  0.00     0.002 A 
HETATM   11  C   UNL     1      -6.348  -2.208 -34.646  1.00  0.00     0.001 A 
HETATM   12  C   UNL     1      -7.282  -1.170 -34.570  1.00  0.00     0.015 A 
ENDROOT
BRANCH   7  13
HETATM   13  N   UNL     1      -9.107   1.174 -34.530  1.00  0.00    -0.283 NA
HETATM   14  H   UNL     1      -9.344   2.058 -34.990  1.00  0.00     0.128 HD
BRANCH  13  15
HETATM   15  C   UNL     1     -10.227   0.788 -33.648  1.00  0.00     0.195 C 
BRANCH  15  16
HETATM   16  C   UNL     1     -11.461   1.629 -34.001  1.00  0.00     0.231 C 
HETATM   17  N   UNL     1     -12.615   1.245 -33.349  1.00  0.00    -0.356 N 
HETATM   18  H   UNL     1     -12.624   0.356 -32.868  1.00  0.00     0.162 HD
HETATM   19  O   UNL     1     -11.402   2.552 -34.810  1.00  0.00    -0.272 OA
BRANCH  17  20
HETATM   20  C   UNL     1     -13.912   1.832 -33.662  1.00  0.00     0.076 C 
HETATM   21  C   UNL     1     -14.814   0.796 -34.333  1.00  0.00     0.032 C 
HETATM   22  C   UNL     1     -14.556   2.361 -32.384  1.00  0.00     0.032 C 
ENDBRANCH  17  20
ENDBRANCH  15  16
ENDBRANCH  13  15
ENDBRANCH   7  13
BRANCH   8  23
HETATM   23  C   UNL     1      -8.374   3.577 -33.035  1.00  0.00     0.014 C 
HETATM   24  C   UNL     1      -8.617   3.854 -31.550  1.00  0.00     0.015 C 
HETATM   25  C   UNL     1      -7.982   4.856 -33.784  1.00  0.00     0.015 C 
ENDBRANCH   8  23
TORSDOF 5
ENDMDL
MODEL 4
REMARK VINA RESULT:      -7.0      2.541      5.809
REMARK  5 active torsions:
REMARK  status: ('A' for Active; 'I' for Inactive)
REMARK    1  A    between atoms: C_7  and  N_8 
REMARK    2  A    between atoms: N_8  and  C_9 
REMARK    3  A    between atoms: C_9  and  C_10 
REMARK       I    between atoms: C_10  and  N_11 
REMARK    4  A    between atoms: N_11  and  C_12 
REMARK    5  A    between atoms: C_16  and  C_17 
ROOT
HETATM    1  C   UNL     1      -9.405   1.002 -33.299  1.00  0.00     0.068 C 
HETATM    2  C   UNL     1      -8.054   0.356 -33.209  1.00  0.00     0.014 A 
HETATM    3  N   UNL     1      -7.909  -0.812 -33.859  1.00  0.00    -0.359 N 
HETATM    4  H   UNL     1      -8.712  -1.186 -34.362  1.00  0.00     0.166 HD
HETATM    5  C   UNL     1      -6.769  -1.517 -33.908  1.00  0.00     0.044 A 
HETATM    6  C   UNL     1      -5.629  -1.041 -33.230  1.00  0.00     0.012 A 
HETATM    7  C   UNL     1      -5.749   0.163 -32.480  1.00  0.00     0.030 A 
HETATM    8  C   UNL     1      -6.961   0.902 -32.506  1.00  0.00    -0.010 A 
HETATM    9  C   UNL     1      -6.734  -2.719 -34.635  1.00  0.00     0.030 A 
HETATM   10  C   UNL     1      -5.557  -3.458 -34.717  1.00  0.00     0.002 A 
HETATM   11  C   UNL     1      -4.411  -2.995 -34.086  1.00  0.00     0.001 A 
HETATM   12  C   UNL     1      -4.443  -1.802 -33.357  1.00  0.00     0.015 A 
ENDROOT
BRANCH   7  13
HETATM   13  N   UNL     1      -4.695   0.636 -31.677  1.00  0.00    -0.283 NA
HETATM   14  H   UNL     1      -5.014   1.270 -30.939  1.00  0.00     0.128 HD
BRANCH  13  15
HETATM   15  C   UNL     1      -3.580   1.280 -32.400  1.00  0.00     0.195 C 
BRANCH  15  16
HETATM   16  C   UNL     1      -3.498   2.757 -31.991  1.00  0.00     0.231 C 
HETATM   17  N   UNL     1      -2.945   3.581 -32.950  1.00  0.00    -0.356 N 
HETATM   18  H   UNL     1      -2.466   3.157 -33.732  1.00  0.00     0.162 HD
HETATM   19  O   UNL     1      -3.884   3.142 -30.891  1.00  0.00    -0.272 OA
BRANCH  17  20
HETATM   20  C   UNL     1      -2.655   4.986 -32.688  1.00  0.00     0.076 C 
HETATM   21  C   UNL     1      -1.145   5.211 -32.620  1.00  0.00     0.032 C 
HETATM   22  C   UNL     1      -3.281   5.850 -33.778  1.00  0.00     0.032 C 
ENDBRANCH  17  20
ENDBRANCH  15  16
ENDBRANCH  13  15
ENDBRANCH   7  13
BRANCH   8  23
HETATM   23  C   UNL     1      -7.124   2.257 -31.803  1.00  0.00     0.014 C 
HETATM   24  C   UNL     1      -7.096   3.422 -32.795  1.00  0.00     0.015 C 
HETATM   25  C   UNL     1      -8.326   2.361 -30.856  1.00  0.00     0.015 C 
ENDBRANCH   8  23
TORSDOF 5
ENDMDL
MODEL 5
REMARK VINA RESULT:      -7.0     13.584     15.860
REMARK  5 active torsions:
REMARK  status: ('A' for Active; 'I' for Inactive)
REMARK    1  A    between atoms: C_7  and  N_8 
REMARK    2  A    between atoms: N_8  and  C_9 
REMARK    3  A    between atoms: C_9  and  C_10 
REMARK       I    between atoms: C_10  and  N_11 
REMARK    4  A    between atoms: N_11  and  C_12 
REMARK    5  A    between atoms: C_16  and  C_17 
ROOT
HETATM    1  C   UNL     1      -7.800 -17.082 -37.026  1.00  0.00     0.068 C 
HETATM    2  C   UNL     1      -7.939 -15.721 -37.640  1.00  0.00     0.014 A 
HETATM    3  N   UNL     1      -9.006 -15.532 -38.435  1.00  0.00    -0.359 N 
HETATM    4  H   UNL     1      -9.646 -16.312 -38.575  1.00  0.00     0.166 HD
HETATM    5  C   UNL     1      -9.303 -14.376 -39.047  1.00  0.00     0.044 A 
HETATM    6  C   UNL     1      -8.450 -13.266 -38.883  1.00  0.00     0.012 A 
HETATM    7  C   UNL     1      -7.275 -13.432 -38.096  1.00  0.00     0.030 A 
HETATM    8  C   UNL     1      -7.036 -14.659 -37.423  1.00  0.00    -0.010 A 
HETATM    9  C   UNL     1     -10.458 -14.294 -39.842  1.00  0.00     0.030 A 
HETATM   10  C   UNL     1     -10.797 -13.100 -40.471  1.00  0.00     0.002 A 
HETATM   11  C   UNL     1      -9.993 -11.981 -40.299  1.00  0.00     0.001 A 
HETATM   12  C   UNL     1      -8.839 -12.060 -39.513  1.00  0.00     0.015 A 
ENDROOT
BRANCH   7  13
HETATM   13  N   UNL     1      -6.314 -12.412 -37.987  1.00  0.00    -0.283 NA
HETATM   14  H   UNL     1      -6.732 -11.488 -37.842  1.00  0.00     0.128 HD
BRANCH  13  15
HETATM   15  C   UNL     1      -5.349 -12.321 -39.100  1.00  0.00     0.195 C 
BRANCH  15  16
HETATM   16  C   UNL     1      -3.924 -12.461 -38.548  1.00  0.00     0.231 C 
HETATM   17  N   UNL     1      -3.028 -13.032 -39.427  1.00  0.00    -0.356 N 
HETATM   18  H   UNL     1      -3.388 -13.487 -40.255  1.00  0.00     0.162 HD
HETATM   19  O   UNL     1      -3.637 -12.101 -37.409  1.00  0.00    -0.272 OA
BRANCH  17  20
HETATM   20  C   UNL     1      -1.667 -13.376 -39.032  1.00  0.00     0.076 C 
HETATM   21  C   UNL     1      -1.683 -14.532 -38.032  1.00  0.00     0.032 C 
HETATM   22  C   UNL     1      -0.852 -13.742 -40.268  1.00  0.00     0.032 C 
ENDBRANCH  17  20
ENDBRANCH  15  16
ENDBRANCH  13  15
ENDBRANCH   7  13
BRANCH   8  23
HETATM   23  C   UNL     1      -5.844 -14.871 -36.478  1.00  0.00     0.014 C 
HETATM   24  C   UNL     1      -6.289 -15.038 -35.024  1.00  0.00     0.015 C 
HETATM   25  C   UNL     1      -4.871 -15.982 -36.895  1.00  0.00     0.015 C 
ENDBRANCH   8  23
TORSDOF 5
ENDMDL
MODEL 6
REMARK VINA RESULT:      -6.7     13.840     16.296
REMARK  5 active torsions:
REMARK  status: ('A' for Active; 'I' for Inactive)
REMARK    1  A    between atoms: C_7  and  N_8 
REMARK    2  A    between atoms: N_8  and  C_9 
REMARK    3  A    between atoms: C_9  and  C_10 
REMARK       I    between atoms: C_10  and  N_11 
REMARK    4  A    between atoms: N_11  and  C_12 
REMARK    5  A    between atoms: C_16  and  C_17 
ROOT
HETATM    1  C   UNL     1      -4.306 -13.293 -35.339  1.00  0.00     0.068 C 
HETATM    2  C   UNL     1      -4.718 -13.175 -36.776  1.00  0.00     0.014 A 
HETATM    3  N   UNL     1      -6.030 -12.998 -37.007  1.00  0.00    -0.359 N 
HETATM    4  H   UNL     1      -6.659 -12.959 -36.206  1.00  0.00     0.166 HD
HETATM    5  C   UNL     1      -6.575 -12.850 -38.224  1.00  0.00     0.044 A 
HETATM    6  C   UNL     1      -5.747 -12.894 -39.364  1.00  0.00     0.012 A 
HETATM    7  C   UNL     1      -4.357 -13.136 -39.175  1.00  0.00     0.030 A 
HETATM    8  C   UNL     1      -3.821 -13.230 -37.864  1.00  0.00    -0.010 A 
HETATM    9  C   UNL     1      -7.961 -12.654 -38.339  1.00  0.00     0.030 A 
HETATM   10  C   UNL     1      -8.546 -12.477 -39.589  1.00  0.00     0.002 A 
HETATM   11  C   UNL     1      -7.750 -12.483 -40.726  1.00  0.00     0.001 A 
HETATM   12  C   UNL     1      -6.370 -12.683 -40.616  1.00  0.00     0.015 A 
ENDROOT
BRANCH   7  13
HETATM   13  N   UNL     1      -3.489 -13.317 -40.266  1.00  0.00    -0.283 NA
HETATM   14  H   UNL     1      -3.720 -12.715 -41.061  1.00  0.00     0.128 HD
BRANCH  13  15
HETATM   15  C   UNL     1      -3.354 -14.705 -40.753  1.00  0.00     0.195 C 
BRANCH  15  16
HETATM   16  C   UNL     1      -3.760 -14.765 -42.231  1.00  0.00     0.231 C 
HETATM   17  N   UNL     1      -3.779 -16.037 -42.764  1.00  0.00    -0.356 N 
HETATM   18  H   UNL     1      -3.348 -16.786 -42.239  1.00  0.00     0.162 HD
HETATM   19  O   UNL     1      -4.026 -13.748 -42.867  1.00  0.00    -0.272 OA
BRANCH  17  20
HETATM   20  C   UNL     1      -4.001 -16.278 -44.185  1.00  0.00     0.076 C 
HETATM   21  C   UNL     1      -2.681 -16.614 -44.878  1.00  0.00     0.032 C 
HETATM   22  C   UNL     1      -5.007 -17.412 -44.360  1.00  0.00     0.032 C 
ENDBRANCH  17  20
ENDBRANCH  15  16
ENDBRANCH  13  15
ENDBRANCH   7  13
BRANCH   8  23
HETATM   23  C   UNL     1      -2.319 -13.388 -37.588  1.00  0.00     0.014 C 
HETATM   24  C   UNL     1      -1.868 -14.846 -37.698  1.00  0.00     0.015 C 
HETATM   25  C   UNL     1      -1.405 -12.459 -38.397  1.00  0.00     0.015 C 
ENDBRANCH   8  23
TORSDOF 5
ENDMDL
MODEL 7
REMARK VINA RESULT:      -6.6     13.512     15.129
REMARK  5 active torsions:
REMARK  status: ('A' for Active; 'I' for Inactive)
REMARK    1  A    between atoms: C_7  and  N_8 
REMARK    2  A    between atoms: N_8  and  C_9 
REMARK    3  A    between atoms: C_9  and  C_10 
REMARK       I    between atoms: C_10  and  N_11 
REMARK    4  A    between atoms: N_11  and  C_12 
REMARK    5  A    between atoms: C_16  and  C_17 
ROOT
HETATM    1  C   UNL     1      -2.492 -14.280 -40.880  1.00  0.00     0.068 C 
HETATM    2  C   UNL     1      -3.643 -13.748 -40.080  1.00  0.00     0.014 A 
HETATM    3  N   UNL     1      -4.811 -13.619 -40.732  1.00  0.00    -0.359 N 
HETATM    4  H   UNL     1      -4.846 -13.883 -41.715  1.00  0.00     0.166 HD
HETATM    5  C   UNL     1      -5.950 -13.183 -40.172  1.00  0.00     0.044 A 
HETATM    6  C   UNL     1      -5.955 -12.808 -38.814  1.00  0.00     0.012 A 
HETATM    7  C   UNL     1      -4.728 -12.872 -38.095  1.00  0.00     0.030 A 
HETATM    8  C   UNL     1      -3.564 -13.394 -38.717  1.00  0.00    -0.010 A 
HETATM    9  C   UNL     1      -7.116 -13.108 -40.952  1.00  0.00     0.030 A 
HETATM   10  C   UNL     1      -8.314 -12.677 -40.389  1.00  0.00     0.002 A 
HETATM   11  C   UNL     1      -8.355 -12.333 -39.044  1.00  0.00     0.001 A 
HETATM   12  C   UNL     1      -7.195 -12.402 -38.266  1.00  0.00     0.015 A 
ENDROOT
BRANCH   7  13
HETATM   13  N   UNL     1      -4.625 -12.398 -36.775  1.00  0.00    -0.283 NA
HETATM   14  H   UNL     1      -3.851 -11.740 -36.650  1.00  0.00     0.128 HD
BRANCH  13  15
HETATM   15  C   UNL     1      -4.532 -13.437 -35.729  1.00  0.00     0.195 C 
BRANCH  15  16
HETATM   16  C   UNL     1      -5.919 -14.050 -35.499  1.00  0.00     0.231 C 
HETATM   17  N   UNL     1      -6.108 -15.272 -36.111  1.00  0.00    -0.356 N 
HETATM   18  H   UNL     1      -5.437 -15.573 -36.804  1.00  0.00     0.162 HD
HETATM   19  O   UNL     1      -6.776 -13.472 -34.834  1.00  0.00    -0.272 OA
BRANCH  17  20
HETATM   20  C   UNL     1      -7.405 -15.938 -36.124  1.00  0.00     0.076 C 
HETATM   21  C   UNL     1      -7.934 -16.039 -37.554  1.00  0.00     0.032 C 
HETATM   22  C   UNL     1      -7.275 -17.323 -35.498  1.00  0.00     0.032 C 
ENDBRANCH  17  20
ENDBRANCH  15  16
ENDBRANCH  13  15
ENDBRANCH   7  13
BRANCH   8  23
HETATM   23  C   UNL     1      -2.236 -13.585 -37.970  1.00  0.00     0.014 C 
HETATM   24  C   UNL     1      -1.861 -15.062 -37.840  1.00  0.00     0.015 C 
HETATM   25  C   UNL     1      -1.061 -12.756 -38.504  1.00  0.00     0.015 C 
ENDBRANCH   8  23
TORSDOF 5
ENDMDL
MODEL 8
REMARK VINA RESULT:      -6.5     13.537     14.421
REMARK  5 active torsions:
REMARK  status: ('A' for Active; 'I' for Inactive)
REMARK    1  A    between atoms: C_7  and  N_8 
REMARK    2  A    between atoms: N_8  and  C_9 
REMARK    3  A    between atoms: C_9  and  C_10 
REMARK       I    between atoms: C_10  and  N_11 
REMARK    4  A    between atoms: N_11  and  C_12 
REMARK    5  A    between atoms: C_16  and  C_17 
ROOT
HETATM    1  C   UNL     1      -1.386 -14.531 -36.581  1.00  0.00     0.068 C 
HETATM    2  C   UNL     1      -2.831 -14.217 -36.326  1.00  0.00     0.014 A 
HETATM    3  N   UNL     1      -3.339 -14.659 -35.162  1.00  0.00    -0.359 N 
HETATM    4  H   UNL     1      -2.725 -15.175 -34.534  1.00  0.00     0.166 HD
HETATM    5  C   UNL     1      -4.600 -14.451 -34.757  1.00  0.00     0.044 A 
HETATM    6  C   UNL     1      -5.488 -13.740 -35.589  1.00  0.00     0.012 A 
HETATM    7  C   UNL     1      -5.013 -13.302 -36.858  1.00  0.00     0.030 A 
HETATM    8  C   UNL     1      -3.654 -13.497 -37.216  1.00  0.00    -0.010 A 
HETATM    9  C   UNL     1      -5.014 -14.947 -33.509  1.00  0.00     0.030 A 
HETATM   10  C   UNL     1      -6.312 -14.727 -33.058  1.00  0.00     0.002 A 
HETATM   11  C   UNL     1      -7.197 -14.002 -33.844  1.00  0.00     0.001 A 
HETATM   12  C   UNL     1      -6.791 -13.510 -35.088  1.00  0.00     0.015 A 
ENDROOT
BRANCH   7  13
HETATM   13  N   UNL     1      -5.871 -12.697 -37.794  1.00  0.00    -0.283 NA
HETATM   14  H   UNL     1      -6.662 -12.218 -37.354  1.00  0.00     0.128 HD
BRANCH  13  15
HETATM   15  C   UNL     1      -6.389 -13.585 -38.854  1.00  0.00     0.195 C 
BRANCH  15  16
HETATM   16  C   UNL     1      -7.917 -13.672 -38.739  1.00  0.00     0.231 C 
HETATM   17  N   UNL     1      -8.599 -13.069 -39.775  1.00  0.00    -0.356 N 
HETATM   18  H   UNL     1      -8.087 -12.462 -40.401  1.00  0.00     0.162 HD
HETATM   19  O   UNL     1      -8.460 -14.224 -37.785  1.00  0.00    -0.272 OA
BRANCH  17  20
HETATM   20  C   UNL     1     -10.050 -12.926 -39.767  1.00  0.00     0.076 C 
HETATM   21  C   UNL     1     -10.454 -11.591 -40.392  1.00  0.00     0.032 C 
HETATM   22  C   UNL     1     -10.684 -14.090 -40.523  1.00  0.00     0.032 C 
ENDBRANCH  17  20
ENDBRANCH  15  16
ENDBRANCH  13  15
ENDBRANCH   7  13
BRANCH   8  23
HETATM   23  C   UNL     1      -3.052 -12.959 -38.523  1.00  0.00     0.014 C 
HETATM   24  C   UNL     1      -1.877 -12.014 -38.265  1.00  0.00     0.015 C 
HETATM   25  C   UNL     1      -2.690 -14.027 -39.563  1.00  0.00     0.015 C 
ENDBRANCH   8  23
TORSDOF 5
ENDMDL
MODEL 9
REMARK VINA RESULT:      -6.5      2.368      5.101
REMARK  5 active torsions:
REMARK  status: ('A' for Active; 'I' for Inactive)
REMARK    1  A    between atoms: C_7  and  N_8 
REMARK    2  A    between atoms: N_8  and  C_9 
REMARK    3  A    between atoms: C_9  and  C_10 
REMARK       I    between atoms: C_10  and  N_11 
REMARK    4  A    between atoms: N_11  and  C_12 
REMARK    5  A    between atoms: C_16  and  C_17 
ROOT
HETATM    1  C   UNL     1      -3.577   0.105 -31.105  1.00  0.00     0.068 C 
HETATM    2  C   UNL     1      -3.941   1.375 -31.813  1.00  0.00     0.014 A 
HETATM    3  N   UNL     1      -3.025   2.358 -31.780  1.00  0.00    -0.359 N 
HETATM    4  H   UNL     1      -2.153   2.188 -31.282  1.00  0.00     0.166 HD
HETATM    5  C   UNL     1      -3.169   3.551 -32.377  1.00  0.00     0.044 A 
HETATM    6  C   UNL     1      -4.356   3.835 -33.082  1.00  0.00     0.012 A 
HETATM    7  C   UNL     1      -5.381   2.847 -33.097  1.00  0.00     0.030 A 
HETATM    8  C   UNL     1      -5.157   1.579 -32.498  1.00  0.00    -0.010 A 
HETATM    9  C   UNL     1      -2.133   4.496 -32.288  1.00  0.00     0.030 A 
HETATM   10  C   UNL     1      -2.251   5.732 -32.916  1.00  0.00     0.002 A 
HETATM   11  C   UNL     1      -3.396   6.025 -33.644  1.00  0.00     0.001 A 
HETATM   12  C   UNL     1      -4.431   5.090 -33.731  1.00  0.00     0.015 A 
ENDROOT
BRANCH   7  13
HETATM   13  N   UNL     1      -6.639   3.102 -33.671  1.00  0.00    -0.283 NA
HETATM   14  H   UNL     1      -6.572   3.561 -34.584  1.00  0.00     0.128 HD
BRANCH  13  15
HETATM   15  C   UNL     1      -7.583   3.865 -32.830  1.00  0.00     0.195 C 
BRANCH  15  16
HETATM   16  C   UNL     1      -8.710   2.935 -32.363  1.00  0.00     0.231 C 
HETATM   17  N   UNL     1      -9.333   2.243 -33.381  1.00  0.00    -0.356 N 
HETATM   18  H   UNL     1      -9.161   2.530 -34.335  1.00  0.00     0.162 HD
HETATM   19  O   UNL     1      -9.021   2.845 -31.178  1.00  0.00    -0.272 OA
BRANCH  17  20
HETATM   20  C   UNL     1     -10.516   1.423 -33.148  1.00  0.00     0.076 C 
HETATM   21  C   UNL     1     -11.455   1.494 -34.353  1.00  0.00     0.032 C 
HETATM   22  C   UNL     1     -10.095  -0.017 -32.876  1.00  0.00     0.032 C 
ENDBRANCH  17  20
ENDBRANCH  15  16
ENDBRANCH  13  15
ENDBRANCH   7  13
BRANCH   8  23
HETATM   23  C   UNL     1      -6.179   0.435 -32.566  1.00  0.00     0.014 C 
HETATM   24  C   UNL     1      -5.666  -0.740 -33.402  1.00  0.00     0.015 C 
HETATM   25  C   UNL     1      -6.719  -0.039 -31.211  1.00  0.00     0.015 C 
ENDBRANCH   8  23
TORSDOF 5
ENDMDL
MODEL 10
REMARK VINA RESULT:      -6.5     13.391     15.189
REMARK  5 active torsions:
REMARK  status: ('A' for Active; 'I' for Inactive)
REMARK    1  A    between atoms: C_7  and  N_8 
REMARK    2  A    between atoms: N_8  and  C_9 
REMARK    3  A    between atoms: C_9  and  C_10 
REMARK       I    between atoms: C_10  and  N_11 
REMARK    4  A    between atoms: N_11  and  C_12 
REMARK    5  A    between atoms: C_16  and  C_17 
ROOT
HETATM    1  C   UNL     1      -4.462 -15.541 -33.809  1.00  0.00     0.068 C 
HETATM    2  C   UNL     1      -3.956 -14.800 -35.010  1.00  0.00     0.014 A 
HETATM    3  N   UNL     1      -2.696 -15.074 -35.391  1.00  0.00    -0.359 N 
HETATM    4  H   UNL     1      -2.166 -15.755 -34.849  1.00  0.00     0.166 HD
HETATM    5  C   UNL     1      -2.087 -14.526 -36.453  1.00  0.00     0.044 A 
HETATM    6  C   UNL     1      -2.779 -13.581 -37.238  1.00  0.00     0.012 A 
HETATM    7  C   UNL     1      -4.096 -13.214 -36.841  1.00  0.00     0.030 A 
HETATM    8  C   UNL     1      -4.717 -13.865 -35.742  1.00  0.00    -0.010 A 
HETATM    9  C   UNL     1      -0.770 -14.904 -36.764  1.00  0.00     0.030 A 
HETATM   10  C   UNL     1      -0.125 -14.364 -37.873  1.00  0.00     0.002 A 
HETATM   11  C   UNL     1      -0.795 -13.456 -38.681  1.00  0.00     0.001 A 
HETATM   12  C   UNL     1      -2.104 -13.073 -38.373  1.00  0.00     0.015 A 
ENDROOT
BRANCH   7  13
HETATM   13  N   UNL     1      -4.802 -12.191 -37.497  1.00  0.00    -0.283 NA
HETATM   14  H   UNL     1      -5.189 -11.498 -36.848  1.00  0.00     0.128 HD
BRANCH  13  15
HETATM   15  C   UNL     1      -5.879 -12.636 -38.404  1.00  0.00     0.195 C 
BRANCH  15  16
HETATM   16  C   UNL     1      -5.403 -12.505 -39.857  1.00  0.00     0.231 C 
HETATM   17  N   UNL     1      -4.990 -13.690 -40.428  1.00  0.00    -0.356 N 
HETATM   18  H   UNL     1      -4.837 -14.489 -39.827  1.00  0.00     0.162 HD
HETATM   19  O   UNL     1      -5.387 -11.420 -40.434  1.00  0.00    -0.272 OA
BRANCH  17  20
HETATM   20  C   UNL     1      -4.373 -13.740 -41.749  1.00  0.00     0.076 C 
HETATM   21  C   UNL     1      -3.056 -14.513 -41.689  1.00  0.00     0.032 C 
HETATM   22  C   UNL     1      -5.335 -14.388 -42.739  1.00  0.00     0.032 C 
ENDBRANCH  17  20
ENDBRANCH  15  16
ENDBRANCH  13  15
ENDBRANCH   7  13
BRANCH   8  23
HETATM   23  C   UNL     1      -6.169 -13.592 -35.325  1.00  0.00     0.014 C 
HETATM   24  C   UNL     1      -7.072 -14.801 -35.573  1.00  0.00     0.015 C 
HETATM   25  C   UNL     1      -6.348 -13.044 -33.903  1.00  0.00     0.015 C 
ENDBRANCH   8  23
TORSDOF 5
ENDMDL
