MODEL 1
REMARK VINA RESULT:      -8.9      0.000      0.000
REMARK  7 active torsions:
REMARK  status: ('A' for Active; 'I' for Inactive)
REMARK       I    between atoms: C_2  and  N_3 
REMARK    1  A    between atoms: N_3  and  C_4 
REMARK    2  A    between atoms: C_6  and  N_7 
REMARK       I    between atoms: N_7  and  C_8 
REMARK    3  A    between atoms: C_8  and  C_9 
REMARK       I    between atoms: C_9  and  N_10 
REMARK    4  A    between atoms: N_10  and  C_11 
REMARK    5  A    between atoms: C_11  and  C_12 
REMARK    6  A    between atoms: C_12  and  O_13 
REMARK    7  A    between atoms: C_12  and  C_14 
ROOT
HETATM    1  C   UNL     1      -6.497   2.997 -33.863  1.00  0.00     0.309 C 
HETATM    2  N   UNL     1      -7.359   3.007 -32.787  1.00  0.00    -0.350 N 
HETATM    3  O   UNL     1      -6.455   2.157 -34.751  1.00  0.00    -0.262 OA
HETATM    4  H   UNL     1      -7.119   3.668 -32.051  1.00  0.00     0.163 HD
ENDROOT
BRANCH   1   5
HETATM    5  C   UNL     1      -5.492   4.170 -33.875  1.00  0.00     0.313 C 
HETATM    6  N   UNL     1      -4.263   3.793 -33.380  1.00  0.00    -0.319 N 
HETATM    7  H   UNL     1      -4.213   2.820 -33.083  1.00  0.00     0.169 HD
HETATM    8  O   UNL     1      -5.868   5.260 -34.282  1.00  0.00    -0.262 OA
BRANCH   6   9
HETATM    9  C   UNL     1      -3.111   4.582 -33.224  1.00  0.00     0.037 A 
HETATM   10  C   UNL     1      -2.506   4.837 -31.989  1.00  0.00     0.059 A 
HETATM   11  C   UNL     1      -1.352   5.634 -31.901  1.00  0.00     0.036 A 
HETATM   12  C   UNL     1      -0.808   6.171 -33.066  1.00  0.00     0.029 A 
HETATM   13  C   UNL     1      -1.408   5.923 -34.303  1.00  0.00     0.004 A 
HETATM   14  C   UNL     1      -2.555   5.134 -34.381  1.00  0.00     0.029 A 
BRANCH  11  15
HETATM   15  N   UNL     1      -0.814   5.841 -30.612  1.00  0.00    -0.327 N 
HETATM   16  C   UNL     1       0.283   5.217 -30.046  1.00  0.00     0.218 C 
HETATM   17  C   UNL     1       0.558   5.718 -28.651  1.00  0.00     0.117 C 
HETATM   18  O   UNL     1       1.003   4.371 -30.563  1.00  0.00    -0.274 OA
HETATM   19  H   UNL     1      -1.286   6.534 -30.044  1.00  0.00     0.169 HD
ENDBRANCH  11  15
ENDBRANCH   6   9
ENDBRANCH   1   5
BRANCH   2  20
HETATM   20  C   UNL     1      -8.190   1.849 -32.485  1.00  0.00     0.159 C 
BRANCH  20  21
HETATM   21  C   UNL     1      -7.619   1.012 -31.324  1.00  0.00     0.171 C 
BRANCH  21  22
HETATM   22  O   UNL     1      -8.632   0.116 -30.845  1.00  0.00    -0.389 OA
HETATM   23  H   UNL     1      -8.208  -0.443 -30.171  1.00  0.00     0.210 HD
ENDBRANCH  21  22
BRANCH  21  24
HETATM   24  C   UNL     1      -6.389   0.266 -31.742  1.00  0.00     0.000 A 
HETATM   25  C   UNL     1      -6.295  -0.711 -32.788  1.00  0.00     0.001 A 
HETATM   26  C   UNL     1      -4.974  -1.173 -32.821  1.00  0.00     0.044 A 
HETATM   27  C   UNL     1      -7.222  -1.248 -33.707  1.00  0.00     0.014 A 
HETATM   28  C   UNL     1      -4.551  -2.144 -33.744  1.00  0.00     0.030 A 
HETATM   29  N   UNL     1      -4.291  -0.499 -31.833  1.00  0.00    -0.360 N 
HETATM   30  C   UNL     1      -5.491  -2.660 -34.641  1.00  0.00     0.002 A 
HETATM   31  C   UNL     1      -6.809  -2.220 -34.625  1.00  0.00     0.001 A 
HETATM   32  C   UNL     1      -2.891  -0.652 -31.502  1.00  0.00     0.155 C 
HETATM   33  C   UNL     1      -5.130   0.363 -31.182  1.00  0.00     0.101 A 
ENDBRANCH  21  24
ENDBRANCH  20  21
ENDBRANCH   2  20
TORSDOF 7
ENDMDL
MODEL 2
REMARK VINA RESULT:      -8.7      2.432      3.471
REMARK  7 active torsions:
REMARK  status: ('A' for Active; 'I' for Inactive)
REMARK       I    between atoms: C_2  and  N_3 
REMARK    1  A    between atoms: N_3  and  C_4 
REMARK    2  A    between atoms: C_6  and  N_7 
REMARK       I    between atoms: N_7  and  C_8 
REMARK    3  A    between atoms: C_8  and  C_9 
REMARK       I    between atoms: C_9  and  N_10 
REMARK    4  A    between atoms: N_10  and  C_11 
REMARK    5  A    between atoms: C_11  and  C_12 
REMARK    6  A    between atoms: C_12  and  O_13 
REMARK    7  A    between atoms: C_12  and  C_14 
ROOT
HETATM    1  C   UNL     1      -4.509   2.316 -30.806  1.00  0.00     0.309 C 
HETATM    2  N   UNL     1      -3.519   1.357 -30.854  1.00  0.00    -0.350 N 
HETATM    3  O   UNL     1      -5.705   2.115 -30.650  1.00  0.00    -0.262 OA
HETATM    4  H   UNL     1      -2.616   1.689 -31.187  1.00  0.00     0.163 HD
ENDROOT
BRANCH   1   5
HETATM    5  C   UNL     1      -3.997   3.759 -31.004  1.00  0.00     0.313 C 
HETATM    6  N   UNL     1      -2.656   3.785 -31.321  1.00  0.00    -0.319 N 
HETATM    7  H   UNL     1      -2.220   2.866 -31.367  1.00  0.00     0.169 HD
HETATM    8  O   UNL     1      -4.780   4.686 -30.850  1.00  0.00    -0.262 OA
BRANCH   6   9
HETATM    9  C   UNL     1      -1.842   4.905 -31.558  1.00  0.00     0.037 A 
HETATM   10  C   UNL     1      -1.022   5.489 -30.589  1.00  0.00     0.059 A 
HETATM   11  C   UNL     1      -0.229   6.609 -30.892  1.00  0.00     0.036 A 
HETATM   12  C   UNL     1      -0.264   7.136 -32.181  1.00  0.00     0.029 A 
HETATM   13  C   UNL     1      -1.083   6.560 -33.156  1.00  0.00     0.004 A 
HETATM   14  C   UNL     1      -1.870   5.451 -32.845  1.00  0.00     0.029 A 
BRANCH  11  15
HETATM   15  N   UNL     1       0.564   7.134 -29.848  1.00  0.00    -0.327 N 
HETATM   16  C   UNL     1       0.156   7.951 -28.810  1.00  0.00     0.218 C 
HETATM   17  C   UNL     1       1.294   8.294 -27.881  1.00  0.00     0.117 C 
HETATM   18  O   UNL     1      -0.977   8.366 -28.594  1.00  0.00    -0.274 OA
HETATM   19  H   UNL     1       1.542   6.872 -29.863  1.00  0.00     0.169 HD
ENDBRANCH  11  15
ENDBRANCH   6   9
ENDBRANCH   1   5
BRANCH   2  20
HETATM   20  C   UNL     1      -3.854  -0.058 -30.943  1.00  0.00     0.159 C 
BRANCH  20  21
HETATM   21  C   UNL     1      -3.144  -0.750 -32.124  1.00  0.00     0.171 C 
BRANCH  21  22
HETATM   22  O   UNL     1      -2.193  -1.697 -31.614  1.00  0.00    -0.389 OA
HETATM   23  H   UNL     1      -1.800  -1.291 -30.822  1.00  0.00     0.210 HD
ENDBRANCH  21  22
BRANCH  21  24
HETATM   24  C   UNL     1      -4.129  -1.410 -33.040  1.00  0.00     0.000 A 
HETATM   25  C   UNL     1      -5.248  -0.788 -33.685  1.00  0.00     0.001 A 
HETATM   26  C   UNL     1      -5.913  -1.773 -34.425  1.00  0.00     0.044 A 
HETATM   27  C   UNL     1      -5.758   0.528 -33.700  1.00  0.00     0.014 A 
HETATM   28  C   UNL     1      -7.062  -1.483 -35.181  1.00  0.00     0.030 A 
HETATM   29  N   UNL     1      -5.222  -2.949 -34.237  1.00  0.00    -0.360 N 
HETATM   30  C   UNL     1      -7.546  -0.172 -35.175  1.00  0.00     0.002 A 
HETATM   31  C   UNL     1      -6.904   0.822 -34.445  1.00  0.00     0.001 A 
HETATM   32  C   UNL     1      -5.546  -4.235 -34.814  1.00  0.00     0.155 C 
HETATM   33  C   UNL     1      -4.152  -2.742 -33.409  1.00  0.00     0.101 A 
ENDBRANCH  21  24
ENDBRANCH  20  21
ENDBRANCH   2  20
TORSDOF 7
ENDMDL
MODEL 3
REMARK VINA RESULT:      -8.6      1.449      1.830
REMARK  7 active torsions:
REMARK  status: ('A' for Active; 'I' for Inactive)
REMARK       I    between atoms: C_2  and  N_3 
REMARK    1  A    between atoms: N_3  and  C_4 
REMARK    2  A    between atoms: C_6  and  N_7 
REMARK       I    between atoms: N_7  and  C_8 
REMARK    3  A    between atoms: C_8  and  C_9 
REMARK       I    between atoms: C_9  and  N_10 
REMARK    4  A    between atoms: N_10  and  C_11 
REMARK    5  A    between atoms: C_11  and  C_12 
REMARK    6  A    between atoms: C_12  and  O_13 
REMARK    7  A    between atoms: C_12  and  C_14 
ROOT
HETATM    1  C   UNL     1      -6.957   3.202 -33.576  1.00  0.00     0.309 C 
HETATM    2  N   UNL     1      -6.661   1.996 -32.977  1.00  0.00    -0.350 N 
HETATM    3  O   UNL     1      -8.034   3.528 -34.055  1.00  0.00    -0.262 OA
HETATM    4  H   UNL     1      -5.670   1.827 -32.817  1.00  0.00     0.163 HD
ENDROOT
BRANCH   1   5
HETATM    5  C   UNL     1      -5.765   4.180 -33.643  1.00  0.00     0.313 C 
HETATM    6  N   UNL     1      -4.640   3.654 -33.046  1.00  0.00    -0.319 N 
HETATM    7  H   UNL     1      -4.771   2.723 -32.654  1.00  0.00     0.169 HD
HETATM    8  O   UNL     1      -5.929   5.270 -34.173  1.00  0.00    -0.262 OA
BRANCH   6   9
HETATM    9  C   UNL     1      -3.376   4.250 -32.900  1.00  0.00     0.037 A 
HETATM   10  C   UNL     1      -2.716   4.384 -31.675  1.00  0.00     0.059 A 
HETATM   11  C   UNL     1      -1.450   4.987 -31.597  1.00  0.00     0.036 A 
HETATM   12  C   UNL     1      -0.849   5.454 -32.765  1.00  0.00     0.029 A 
HETATM   13  C   UNL     1      -1.502   5.327 -33.993  1.00  0.00     0.004 A 
HETATM   14  C   UNL     1      -2.761   4.730 -34.060  1.00  0.00     0.029 A 
BRANCH  11  15
HETATM   15  N   UNL     1      -0.863   5.084 -30.317  1.00  0.00    -0.327 N 
HETATM   16  C   UNL     1      -0.021   6.075 -29.848  1.00  0.00     0.218 C 
HETATM   17  C   UNL     1       0.390   5.837 -28.417  1.00  0.00     0.117 C 
HETATM   18  O   UNL     1       0.368   7.066 -30.456  1.00  0.00    -0.274 OA
HETATM   19  H   UNL     1      -1.096   4.342 -29.668  1.00  0.00     0.169 HD
ENDBRANCH  11  15
ENDBRANCH   6   9
ENDBRANCH   1   5
BRANCH   2  20
HETATM   20  C   UNL     1      -7.587   0.873 -33.059  1.00  0.00     0.159 C 
BRANCH  20  21
HETATM   21  C   UNL     1      -7.213  -0.106 -34.189  1.00  0.00     0.171 C 
BRANCH  21  22
HETATM   22  O   UNL     1      -6.975   0.633 -35.396  1.00  0.00    -0.389 OA
HETATM   23  H   UNL     1      -7.477   1.463 -35.312  1.00  0.00     0.210 HD
ENDBRANCH  21  22
BRANCH  21  24
HETATM   24  C   UNL     1      -6.022  -0.935 -33.818  1.00  0.00     0.000 A 
HETATM   25  C   UNL     1      -5.793  -2.308 -34.162  1.00  0.00     0.001 A 
HETATM   26  C   UNL     1      -4.574  -2.693 -33.591  1.00  0.00     0.044 A 
HETATM   27  C   UNL     1      -6.521  -3.261 -34.907  1.00  0.00     0.014 A 
HETATM   28  C   UNL     1      -4.060  -3.992 -33.746  1.00  0.00     0.030 A 
HETATM   29  N   UNL     1      -4.080  -1.593 -32.926  1.00  0.00    -0.360 N 
HETATM   30  C   UNL     1      -4.803  -4.915 -34.487  1.00  0.00     0.002 A 
HETATM   31  C   UNL     1      -6.018  -4.557 -35.060  1.00  0.00     0.001 A 
HETATM   32  C   UNL     1      -2.838  -1.524 -32.188  1.00  0.00     0.155 C 
HETATM   33  C   UNL     1      -4.940  -0.536 -33.056  1.00  0.00     0.101 A 
ENDBRANCH  21  24
ENDBRANCH  20  21
ENDBRANCH   2  20
TORSDOF 7
ENDMDL
MODEL 4
REMARK VINA RESULT:      -8.6      0.946      2.040
REMARK  7 active torsions:
REMARK  status: ('A' for Active; 'I' for Inactive)
REMARK       I    between atoms: C_2  and  N_3 
REMARK    1  A    between atoms: N_3  and  C_4 
REMARK    2  A    between atoms: C_6  and  N_7 
REMARK       I    between atoms: N_7  and  C_8 
REMARK    3  A    between atoms: C_8  and  C_9 
REMARK       I    between atoms: C_9  and  N_10 
REMARK    4  A    between atoms: N_10  and  C_11 
REMARK    5  A    between atoms: C_11  and  C_12 
REMARK    6  A    between atoms: C_12  and  O_13 
REMARK    7  A    between atoms: C_12  and  C_14 
ROOT
HETATM    1  C   UNL     1      -6.554   3.465 -33.275  1.00  0.00     0.309 C 
HETATM    2  N   UNL     1      -7.660   3.333 -32.463  1.00  0.00    -0.350 N 
HETATM    3  O   UNL     1      -6.301   2.796 -34.267  1.00  0.00    -0.262 OA
HETATM    4  H   UNL     1      -7.605   3.836 -31.579  1.00  0.00     0.163 HD
ENDROOT
BRANCH   1   5
HETATM    5  C   UNL     1      -5.565   4.559 -32.820  1.00  0.00     0.313 C 
HETATM    6  N   UNL     1      -4.307   4.359 -33.346  1.00  0.00    -0.319 N 
HETATM    7  H   UNL     1      -4.227   3.532 -33.936  1.00  0.00     0.169 HD
HETATM    8  O   UNL     1      -5.964   5.435 -32.067  1.00  0.00    -0.262 OA
BRANCH   6   9
HETATM    9  C   UNL     1      -3.151   5.132 -33.149  1.00  0.00     0.037 A 
HETATM   10  C   UNL     1      -2.514   5.276 -31.912  1.00  0.00     0.059 A 
HETATM   11  C   UNL     1      -1.357   6.062 -31.782  1.00  0.00     0.036 A 
HETATM   12  C   UNL     1      -0.843   6.702 -32.908  1.00  0.00     0.029 A 
HETATM   13  C   UNL     1      -1.474   6.567 -34.147  1.00  0.00     0.004 A 
HETATM   14  C   UNL     1      -2.624   5.787 -34.265  1.00  0.00     0.029 A 
BRANCH  11  15
HETATM   15  N   UNL     1      -0.786   6.153 -30.494  1.00  0.00    -0.327 N 
HETATM   16  C   UNL     1       0.229   5.377 -29.965  1.00  0.00     0.218 C 
HETATM   17  C   UNL     1       0.578   5.788 -28.557  1.00  0.00     0.117 C 
HETATM   18  O   UNL     1       0.833   4.467 -30.522  1.00  0.00    -0.274 OA
HETATM   19  H   UNL     1      -1.162   6.879 -29.896  1.00  0.00     0.169 HD
ENDBRANCH  11  15
ENDBRANCH   6   9
ENDBRANCH   1   5
BRANCH   2  20
HETATM   20  C   UNL     1      -8.555   2.191 -32.597  1.00  0.00     0.159 C 
BRANCH  20  21
HETATM   21  C   UNL     1      -8.176   1.042 -31.642  1.00  0.00     0.171 C 
BRANCH  21  22
HETATM   22  O   UNL     1      -9.374   0.404 -31.172  1.00  0.00    -0.389 OA
HETATM   23  H   UNL     1      -9.189   0.111 -30.263  1.00  0.00     0.210 HD
ENDBRANCH  21  22
BRANCH  21  24
HETATM   24  C   UNL     1      -7.264   0.058 -32.308  1.00  0.00     0.000 A 
HETATM   25  C   UNL     1      -5.884  -0.176 -31.999  1.00  0.00     0.001 A 
HETATM   26  C   UNL     1      -5.411  -1.157 -32.879  1.00  0.00     0.044 A 
HETATM   27  C   UNL     1      -4.992   0.365 -31.048  1.00  0.00     0.014 A 
HETATM   28  C   UNL     1      -4.083  -1.615 -32.835  1.00  0.00     0.030 A 
HETATM   29  N   UNL     1      -6.466  -1.506 -33.692  1.00  0.00    -0.360 N 
HETATM   30  C   UNL     1      -3.222  -1.059 -31.884  1.00  0.00     0.002 A 
HETATM   31  C   UNL     1      -3.668  -0.082 -31.002  1.00  0.00     0.001 A 
HETATM   32  C   UNL     1      -6.441  -2.488 -34.754  1.00  0.00     0.155 C 
HETATM   33  C   UNL     1      -7.579  -0.784 -33.359  1.00  0.00     0.101 A 
ENDBRANCH  21  24
ENDBRANCH  20  21
ENDBRANCH   2  20
TORSDOF 7
ENDMDL
MODEL 5
REMARK VINA RESULT:      -8.0      2.293      8.731
REMARK  7 active torsions:
REMARK  status: ('A' for Active; 'I' for Inactive)
REMARK       I    between atoms: C_2  and  N_3 
REMARK    1  A    between atoms: N_3  and  C_4 
REMARK    2  A    between atoms: C_6  and  N_7 
REMARK       I    between atoms: N_7  and  C_8 
REMARK    3  A    between atoms: C_8  and  C_9 
REMARK       I    between atoms: C_9  and  N_10 
REMARK    4  A    between atoms: N_10  and  C_11 
REMARK    5  A    between atoms: C_11  and  C_12 
REMARK    6  A    between atoms: C_12  and  O_13 
REMARK    7  A    between atoms: C_12  and  C_14 
ROOT
HETATM    1  C   UNL     1      -3.158   3.812 -32.421  1.00  0.00     0.309 C 
HETATM    2  N   UNL     1      -2.853   4.650 -33.473  1.00  0.00    -0.350 N 
HETATM    3  O   UNL     1      -2.393   3.447 -31.540  1.00  0.00    -0.262 OA
HETATM    4  H   UNL     1      -3.552   4.682 -34.212  1.00  0.00     0.163 HD
ENDROOT
BRANCH   1   5
HETATM    5  C   UNL     1      -4.613   3.295 -32.430  1.00  0.00     0.313 C 
HETATM    6  N   UNL     1      -4.691   2.001 -32.896  1.00  0.00    -0.319 N 
HETATM    7  H   UNL     1      -3.794   1.598 -33.163  1.00  0.00     0.169 HD
HETATM    8  O   UNL     1      -5.505   4.046 -32.062  1.00  0.00    -0.262 OA
BRANCH   6   9
HETATM    9  C   UNL     1      -5.837   1.205 -33.060  1.00  0.00     0.037 A 
HETATM   10  C   UNL     1      -5.838  -0.029 -33.717  1.00  0.00     0.059 A 
HETATM   11  C   UNL     1      -7.019  -0.779 -33.845  1.00  0.00     0.036 A 
HETATM   12  C   UNL     1      -8.202  -0.278 -33.304  1.00  0.00     0.029 A 
HETATM   13  C   UNL     1      -8.211   0.955 -32.648  1.00  0.00     0.004 A 
HETATM   14  C   UNL     1      -7.034   1.694 -32.529  1.00  0.00     0.029 A 
BRANCH  11  15
HETATM   15  N   UNL     1      -6.926  -2.010 -34.529  1.00  0.00    -0.327 N 
HETATM   16  C   UNL     1      -5.868  -2.901 -34.521  1.00  0.00     0.218 C 
HETATM   17  C   UNL     1      -6.148  -4.118 -35.366  1.00  0.00     0.117 C 
HETATM   18  O   UNL     1      -4.812  -2.792 -33.908  1.00  0.00    -0.274 OA
HETATM   19  H   UNL     1      -7.734  -2.270 -35.081  1.00  0.00     0.169 HD
ENDBRANCH  11  15
ENDBRANCH   6   9
ENDBRANCH   1   5
BRANCH   2  20
HETATM   20  C   UNL     1      -1.472   5.017 -33.758  1.00  0.00     0.159 C 
BRANCH  20  21
HETATM   21  C   UNL     1      -1.260   6.543 -33.736  1.00  0.00     0.171 C 
BRANCH  21  22
HETATM   22  O   UNL     1      -2.279   7.173 -34.528  1.00  0.00    -0.389 OA
HETATM   23  H   UNL     1      -3.129   6.828 -34.204  1.00  0.00     0.210 HD
ENDBRANCH  21  22
BRANCH  21  24
HETATM   24  C   UNL     1      -1.259   7.073 -32.335  1.00  0.00     0.000 A 
HETATM   25  C   UNL     1      -0.563   6.518 -31.210  1.00  0.00     0.001 A 
HETATM   26  C   UNL     1      -0.858   7.310 -30.094  1.00  0.00     0.044 A 
HETATM   27  C   UNL     1       0.292   5.407 -31.044  1.00  0.00     0.014 A 
HETATM   28  C   UNL     1      -0.325   7.030 -28.824  1.00  0.00     0.030 A 
HETATM   29  N   UNL     1      -1.702   8.309 -30.526  1.00  0.00    -0.360 N 
HETATM   30  C   UNL     1       0.516   5.922 -28.688  1.00  0.00     0.002 A 
HETATM   31  C   UNL     1       0.822   5.119 -29.782  1.00  0.00     0.001 A 
HETATM   32  C   UNL     1      -2.266   9.364 -29.713  1.00  0.00     0.155 C 
HETATM   33  C   UNL     1      -1.948   8.175 -31.865  1.00  0.00     0.101 A 
ENDBRANCH  21  24
ENDBRANCH  20  21
ENDBRANCH   2  20
TORSDOF 7
ENDMDL
MODEL 6
REMARK VINA RESULT:      -7.9      2.433      9.041
REMARK  7 active torsions:
REMARK  status: ('A' for Active; 'I' for Inactive)
REMARK       I    between atoms: C_2  and  N_3 
REMARK    1  A    between atoms: N_3  and  C_4 
REMARK    2  A    between atoms: C_6  and  N_7 
REMARK       I    between atoms: N_7  and  C_8 
REMARK    3  A    between atoms: C_8  and  C_9 
REMARK       I    between atoms: C_9  and  N_10 
REMARK    4  A    between atoms: N_10  and  C_11 
REMARK    5  A    between atoms: C_11  and  C_12 
REMARK    6  A    between atoms: C_12  and  O_13 
REMARK    7  A    between atoms: C_12  and  C_14 
ROOT
HETATM    1  C   UNL     1      -2.890   3.770 -32.317  1.00  0.00     0.309 C 
HETATM    2  N   UNL     1      -2.466   4.680 -33.262  1.00  0.00    -0.350 N 
HETATM    3  O   UNL     1      -2.330   3.507 -31.262  1.00  0.00    -0.262 OA
HETATM    4  H   UNL     1      -2.945   4.622 -34.159  1.00  0.00     0.163 HD
ENDROOT
BRANCH   1   5
HETATM    5  C   UNL     1      -4.186   3.022 -32.700  1.00  0.00     0.313 C 
HETATM    6  N   UNL     1      -3.989   1.660 -32.759  1.00  0.00    -0.319 N 
HETATM    7  H   UNL     1      -3.036   1.366 -32.553  1.00  0.00     0.169 HD
HETATM    8  O   UNL     1      -5.197   3.674 -32.919  1.00  0.00    -0.262 OA
BRANCH   6   9
HETATM    9  C   UNL     1      -4.922   0.661 -33.086  1.00  0.00     0.037 A 
HETATM   10  C   UNL     1      -6.285   0.905 -33.279  1.00  0.00     0.059 A 
HETATM   11  C   UNL     1      -7.166  -0.139 -33.607  1.00  0.00     0.036 A 
HETATM   12  C   UNL     1      -6.665  -1.432 -33.741  1.00  0.00     0.029 A 
HETATM   13  C   UNL     1      -5.306  -1.685 -33.547  1.00  0.00     0.004 A 
HETATM   14  C   UNL     1      -4.439  -0.643 -33.219  1.00  0.00     0.029 A 
BRANCH  11  15
HETATM   15  N   UNL     1      -8.526   0.201 -33.778  1.00  0.00    -0.327 N 
HETATM   16  C   UNL     1      -9.475   0.404 -32.792  1.00  0.00     0.218 C 
HETATM   17  C   UNL     1     -10.819   0.767 -33.370  1.00  0.00     0.117 C 
HETATM   18  O   UNL     1      -9.310   0.336 -31.580  1.00  0.00    -0.274 OA
HETATM   19  H   UNL     1      -8.834   0.315 -34.736  1.00  0.00     0.169 HD
ENDBRANCH  11  15
ENDBRANCH   6   9
ENDBRANCH   1   5
BRANCH   2  20
HETATM   20  C   UNL     1      -1.140   5.278 -33.180  1.00  0.00     0.159 C 
BRANCH  20  21
HETATM   21  C   UNL     1      -1.185   6.812 -33.321  1.00  0.00     0.171 C 
BRANCH  21  22
HETATM   22  O   UNL     1      -2.021   7.160 -34.435  1.00  0.00    -0.389 OA
HETATM   23  H   UNL     1      -2.751   6.517 -34.440  1.00  0.00     0.210 HD
ENDBRANCH  21  22
BRANCH  21  24
HETATM   24  C   UNL     1      -1.666   7.461 -32.060  1.00  0.00     0.000 A 
HETATM   25  C   UNL     1      -0.955   7.550 -30.818  1.00  0.00     0.001 A 
HETATM   26  C   UNL     1      -1.780   8.212 -29.901  1.00  0.00     0.044 A 
HETATM   27  C   UNL     1       0.321   7.121 -30.391  1.00  0.00     0.014 A 
HETATM   28  C   UNL     1      -1.371   8.461 -28.580  1.00  0.00     0.030 A 
HETATM   29  N   UNL     1      -2.949   8.514 -30.563  1.00  0.00    -0.360 N 
HETATM   30  C   UNL     1      -0.104   8.022 -28.184  1.00  0.00     0.002 A 
HETATM   31  C   UNL     1       0.732   7.361 -29.076  1.00  0.00     0.001 A 
HETATM   32  C   UNL     1      -4.094   9.202 -30.008  1.00  0.00     0.155 C 
HETATM   33  C   UNL     1      -2.890   8.068 -31.855  1.00  0.00     0.101 A 
ENDBRANCH  21  24
ENDBRANCH  20  21
ENDBRANCH   2  20
TORSDOF 7
ENDMDL
MODEL 7
REMARK VINA RESULT:      -7.9      2.591      9.020
REMARK  7 active torsions:
REMARK  status: ('A' for Active; 'I' for Inactive)
REMARK       I    between atoms: C_2  and  N_3 
REMARK    1  A    between atoms: N_3  and  C_4 
REMARK    2  A    between atoms: C_6  and  N_7 
REMARK       I    between atoms: N_7  and  C_8 
REMARK    3  A    between atoms: C_8  and  C_9 
REMARK       I    between atoms: C_9  and  N_10 
REMARK    4  A    between atoms: N_10  and  C_11 
REMARK    5  A    between atoms: C_11  and  C_12 
REMARK    6  A    between atoms: C_12  and  O_13 
REMARK    7  A    between atoms: C_12  and  C_14 
ROOT
HETATM    1  C   UNL     1      -2.258   4.523 -33.065  1.00  0.00     0.309 C 
HETATM    2  N   UNL     1      -1.563   4.820 -31.912  1.00  0.00    -0.350 N 
HETATM    3  O   UNL     1      -1.925   4.812 -34.206  1.00  0.00    -0.262 OA
HETATM    4  H   UNL     1      -2.085   4.679 -31.048  1.00  0.00     0.163 HD
ENDROOT
BRANCH   1   5
HETATM    5  C   UNL     1      -3.589   3.778 -32.824  1.00  0.00     0.313 C 
HETATM    6  N   UNL     1      -3.379   2.501 -32.352  1.00  0.00    -0.319 N 
HETATM    7  H   UNL     1      -2.398   2.251 -32.245  1.00  0.00     0.169 HD
HETATM    8  O   UNL     1      -4.637   4.353 -33.078  1.00  0.00    -0.262 OA
BRANCH   6   9
HETATM    9  C   UNL     1      -4.339   1.526 -32.032  1.00  0.00     0.037 A 
HETATM   10  C   UNL     1      -4.753   0.525 -32.916  1.00  0.00     0.059 A 
HETATM   11  C   UNL     1      -5.716  -0.424 -32.533  1.00  0.00     0.036 A 
HETATM   12  C   UNL     1      -6.259  -0.360 -31.251  1.00  0.00     0.029 A 
HETATM   13  C   UNL     1      -5.853   0.639 -30.363  1.00  0.00     0.004 A 
HETATM   14  C   UNL     1      -4.899   1.578 -30.753  1.00  0.00     0.029 A 
BRANCH  11  15
HETATM   15  N   UNL     1      -6.077  -1.394 -33.493  1.00  0.00    -0.327 N 
HETATM   16  C   UNL     1      -5.290  -2.412 -33.999  1.00  0.00     0.218 C 
HETATM   17  C   UNL     1      -6.036  -3.258 -35.000  1.00  0.00     0.117 C 
HETATM   18  O   UNL     1      -4.129  -2.671 -33.701  1.00  0.00    -0.274 OA
HETATM   19  H   UNL     1      -7.026  -1.338 -33.842  1.00  0.00     0.169 HD
ENDBRANCH  11  15
ENDBRANCH   6   9
ENDBRANCH   1   5
BRANCH   2  20
HETATM   20  C   UNL     1      -0.430   5.736 -31.937  1.00  0.00     0.159 C 
BRANCH  20  21
HETATM   21  C   UNL     1      -0.847   7.187 -31.629  1.00  0.00     0.171 C 
BRANCH  21  22
HETATM   22  O   UNL     1      -1.855   7.597 -32.565  1.00  0.00    -0.389 OA
HETATM   23  H   UNL     1      -2.286   8.379 -32.178  1.00  0.00     0.210 HD
ENDBRANCH  21  22
BRANCH  21  24
HETATM   24  C   UNL     1      -1.330   7.326 -30.218  1.00  0.00     0.000 A 
HETATM   25  C   UNL     1      -0.525   7.578 -29.058  1.00  0.00     0.001 A 
HETATM   26  C   UNL     1      -1.376   7.606 -27.947  1.00  0.00     0.044 A 
HETATM   27  C   UNL     1       0.858   7.781 -28.856  1.00  0.00     0.014 A 
HETATM   28  C   UNL     1      -0.892   7.835 -26.648  1.00  0.00     0.030 A 
HETATM   29  N   UNL     1      -2.651   7.381 -28.415  1.00  0.00    -0.360 N 
HETATM   30  C   UNL     1       0.482   8.030 -26.477  1.00  0.00     0.002 A 
HETATM   31  C   UNL     1       1.347   8.004 -27.565  1.00  0.00     0.001 A 
HETATM   32  C   UNL     1      -3.858   7.325 -27.620  1.00  0.00     0.155 C 
HETATM   33  C   UNL     1      -2.634   7.211 -29.773  1.00  0.00     0.101 A 
ENDBRANCH  21  24
ENDBRANCH  20  21
ENDBRANCH   2  20
TORSDOF 7
ENDMDL
MODEL 8
REMARK VINA RESULT:      -7.8      4.870      7.533
REMARK  7 active torsions:
REMARK  status: ('A' for Active; 'I' for Inactive)
REMARK       I    between atoms: C_2  and  N_3 
REMARK    1  A    between atoms: N_3  and  C_4 
REMARK    2  A    between atoms: C_6  and  N_7 
REMARK       I    between atoms: N_7  and  C_8 
REMARK    3  A    between atoms: C_8  and  C_9 
REMARK       I    between atoms: C_9  and  N_10 
REMARK    4  A    between atoms: N_10  and  C_11 
REMARK    5  A    between atoms: C_11  and  C_12 
REMARK    6  A    between atoms: C_12  and  O_13 
REMARK    7  A    between atoms: C_12  and  C_14 
ROOT
HETATM    1  C   UNL     1     -10.437   2.065 -33.847  1.00  0.00     0.309 C 
HETATM    2  N   UNL     1      -9.064   2.046 -33.962  1.00  0.00    -0.350 N 
HETATM    3  O   UNL     1     -11.112   1.367 -33.103  1.00  0.00    -0.262 OA
HETATM    4  H   UNL     1      -8.693   2.550 -34.766  1.00  0.00     0.163 HD
ENDROOT
BRANCH   1   5
HETATM    5  C   UNL     1     -11.135   3.066 -34.794  1.00  0.00     0.313 C 
HETATM    6  N   UNL     1     -10.931   4.369 -34.398  1.00  0.00    -0.319 N 
HETATM    7  H   UNL     1     -10.370   4.466 -33.554  1.00  0.00     0.169 HD
HETATM    8  O   UNL     1     -11.778   2.629 -35.738  1.00  0.00    -0.262 OA
BRANCH   6   9
HETATM    9  C   UNL     1     -11.416   5.544 -34.997  1.00  0.00     0.037 A 
HETATM   10  C   UNL     1     -10.604   6.623 -35.360  1.00  0.00     0.059 A 
HETATM   11  C   UNL     1     -11.151   7.770 -35.959  1.00  0.00     0.036 A 
HETATM   12  C   UNL     1     -12.524   7.823 -36.193  1.00  0.00     0.029 A 
HETATM   13  C   UNL     1     -13.343   6.751 -35.831  1.00  0.00     0.004 A 
HETATM   14  C   UNL     1     -12.791   5.618 -35.233  1.00  0.00     0.029 A 
BRANCH  11  15
HETATM   15  N   UNL     1     -10.256   8.811 -36.286  1.00  0.00    -0.327 N 
HETATM   16  C   UNL     1     -10.092   9.427 -37.514  1.00  0.00     0.218 C 
HETATM   17  C   UNL     1      -9.044  10.510 -37.466  1.00  0.00     0.117 C 
HETATM   18  O   UNL     1     -10.704   9.190 -38.549  1.00  0.00    -0.274 OA
HETATM   19  H   UNL     1      -9.674   9.147 -35.529  1.00  0.00     0.169 HD
ENDBRANCH  11  15
ENDBRANCH   6   9
ENDBRANCH   1   5
BRANCH   2  20
HETATM   20  C   UNL     1      -8.276   0.992 -33.335  1.00  0.00     0.159 C 
BRANCH  20  21
HETATM   21  C   UNL     1      -7.972  -0.162 -34.310  1.00  0.00     0.171 C 
BRANCH  21  22
HETATM   22  O   UNL     1      -8.090   0.315 -35.659  1.00  0.00    -0.389 OA
HETATM   23  H   UNL     1      -7.737   1.221 -35.661  1.00  0.00     0.210 HD
ENDBRANCH  21  22
BRANCH  21  24
HETATM   24  C   UNL     1      -6.614  -0.743 -34.058  1.00  0.00     0.000 A 
HETATM   25  C   UNL     1      -6.209  -2.101 -34.280  1.00  0.00     0.001 A 
HETATM   26  C   UNL     1      -4.870  -2.215 -33.887  1.00  0.00     0.044 A 
HETATM   27  C   UNL     1      -6.868  -3.246 -34.779  1.00  0.00     0.014 A 
HETATM   28  C   UNL     1      -4.171  -3.431 -33.982  1.00  0.00     0.030 A 
HETATM   29  N   UNL     1      -4.477  -0.972 -33.444  1.00  0.00    -0.360 N 
HETATM   30  C   UNL     1      -4.849  -4.549 -34.476  1.00  0.00     0.002 A 
HETATM   31  C   UNL     1      -6.179  -4.460 -34.870  1.00  0.00     0.001 A 
HETATM   32  C   UNL     1      -3.168  -0.616 -32.942  1.00  0.00     0.155 C 
HETATM   33  C   UNL     1      -5.514  -0.085 -33.541  1.00  0.00     0.101 A 
ENDBRANCH  21  24
ENDBRANCH  20  21
ENDBRANCH   2  20
TORSDOF 7
ENDMDL
MODEL 9
REMARK VINA RESULT:      -7.7      4.024      7.859
REMARK  7 active torsions:
REMARK  status: ('A' for Active; 'I' for Inactive)
REMARK       I    between atoms: C_2  and  N_3 
REMARK    1  A    between atoms: N_3  and  C_4 
REMARK    2  A    between atoms: C_6  and  N_7 
REMARK       I    between atoms: N_7  and  C_8 
REMARK    3  A    between atoms: C_8  and  C_9 
REMARK       I    between atoms: C_9  and  N_10 
REMARK    4  A    between atoms: N_10  and  C_11 
REMARK    5  A    between atoms: C_11  and  C_12 
REMARK    6  A    between atoms: C_12  and  O_13 
REMARK    7  A    between atoms: C_12  and  C_14 
ROOT
HETATM    1  C   UNL     1      -7.375   4.844 -31.266  1.00  0.00     0.309 C 
HETATM    2  N   UNL     1      -6.742   3.721 -31.755  1.00  0.00    -0.350 N 
HETATM    3  O   UNL     1      -6.995   5.544 -30.339  1.00  0.00    -0.262 OA
HETATM    4  H   UNL     1      -7.301   3.157 -32.393  1.00  0.00     0.163 HD
ENDROOT
BRANCH   1   5
HETATM    5  C   UNL     1      -8.702   5.181 -31.982  1.00  0.00     0.313 C 
HETATM    6  N   UNL     1      -9.207   4.090 -32.655  1.00  0.00    -0.319 N 
HETATM    7  H   UNL     1      -8.634   3.251 -32.583  1.00  0.00     0.169 HD
HETATM    8  O   UNL     1      -9.139   6.320 -31.902  1.00  0.00    -0.262 OA
BRANCH   6   9
HETATM    9  C   UNL     1     -10.379   4.014 -33.426  1.00  0.00     0.037 A 
HETATM   10  C   UNL     1     -11.641   3.724 -32.897  1.00  0.00     0.059 A 
HETATM   11  C   UNL     1     -12.775   3.665 -33.723  1.00  0.00     0.036 A 
HETATM   12  C   UNL     1     -12.632   3.903 -35.089  1.00  0.00     0.029 A 
HETATM   13  C   UNL     1     -11.376   4.190 -35.627  1.00  0.00     0.004 A 
HETATM   14  C   UNL     1     -10.254   4.243 -34.800  1.00  0.00     0.029 A 
BRANCH  11  15
HETATM   15  N   UNL     1     -14.006   3.361 -33.101  1.00  0.00    -0.327 N 
HETATM   16  C   UNL     1     -14.558   2.110 -32.893  1.00  0.00     0.218 C 
HETATM   17  C   UNL     1     -15.885   2.192 -32.180  1.00  0.00     0.117 C 
HETATM   18  O   UNL     1     -14.077   1.026 -33.202  1.00  0.00    -0.274 OA
HETATM   19  H   UNL     1     -14.537   4.154 -32.764  1.00  0.00     0.169 HD
ENDBRANCH  11  15
ENDBRANCH   6   9
ENDBRANCH   1   5
BRANCH   2  20
HETATM   20  C   UNL     1      -5.626   3.120 -31.036  1.00  0.00     0.159 C 
BRANCH  20  21
HETATM   21  C   UNL     1      -5.989   1.743 -30.447  1.00  0.00     0.171 C 
BRANCH  21  22
HETATM   22  O   UNL     1      -6.658   1.928 -29.190  1.00  0.00    -0.389 OA
HETATM   23  H   UNL     1      -7.592   1.703 -29.341  1.00  0.00     0.210 HD
ENDBRANCH  21  22
BRANCH  21  24
HETATM   24  C   UNL     1      -6.832   0.950 -31.397  1.00  0.00     0.000 A 
HETATM   25  C   UNL     1      -6.365   0.041 -32.404  1.00  0.00     0.001 A 
HETATM   26  C   UNL     1      -7.484  -0.460 -33.078  1.00  0.00     0.044 A 
HETATM   27  C   UNL     1      -5.083  -0.396 -32.803  1.00  0.00     0.014 A 
HETATM   28  C   UNL     1      -7.364  -1.384 -34.130  1.00  0.00     0.030 A 
HETATM   29  N   UNL     1      -8.591   0.123 -32.502  1.00  0.00    -0.360 N 
HETATM   30  C   UNL     1      -6.083  -1.797 -34.506  1.00  0.00     0.002 A 
HETATM   31  C   UNL     1      -4.956  -1.311 -33.853  1.00  0.00     0.001 A 
HETATM   32  C   UNL     1      -9.970  -0.102 -32.876  1.00  0.00     0.155 C 
HETATM   33  C   UNL     1      -8.211   0.968 -31.495  1.00  0.00     0.101 A 
ENDBRANCH  21  24
ENDBRANCH  20  21
ENDBRANCH   2  20
TORSDOF 7
ENDMDL
MODEL 10
REMARK VINA RESULT:      -7.6      2.419      8.467
REMARK  7 active torsions:
REMARK  status: ('A' for Active; 'I' for Inactive)
REMARK       I    between atoms: C_2  and  N_3 
REMARK    1  A    between atoms: N_3  and  C_4 
REMARK    2  A    between atoms: C_6  and  N_7 
REMARK       I    between atoms: N_7  and  C_8 
REMARK    3  A    between atoms: C_8  and  C_9 
REMARK       I    between atoms: C_9  and  N_10 
REMARK    4  A    between atoms: N_10  and  C_11 
REMARK    5  A    between atoms: C_11  and  C_12 
REMARK    6  A    between atoms: C_12  and  O_13 
REMARK    7  A    between atoms: C_12  and  C_14 
ROOT
HETATM    1  C   UNL     1      -5.189   5.887 -33.024  1.00  0.00     0.309 C 
HETATM    2  N   UNL     1      -3.892   6.340 -32.907  1.00  0.00    -0.350 N 
HETATM    3  O   UNL     1      -6.185   6.410 -32.545  1.00  0.00    -0.262 OA
HETATM    4  H   UNL     1      -3.177   5.675 -33.199  1.00  0.00     0.163 HD
ENDROOT
BRANCH   1   5
HETATM    5  C   UNL     1      -5.327   4.573 -33.824  1.00  0.00     0.313 C 
HETATM    6  N   UNL     1      -5.722   3.527 -33.019  1.00  0.00    -0.319 N 
HETATM    7  H   UNL     1      -5.850   3.778 -32.040  1.00  0.00     0.169 HD
HETATM    8  O   UNL     1      -5.071   4.584 -35.019  1.00  0.00    -0.262 OA
BRANCH   6   9
HETATM    9  C   UNL     1      -5.938   2.187 -33.382  1.00  0.00     0.037 A 
HETATM   10  C   UNL     1      -5.215   1.113 -32.856  1.00  0.00     0.059 A 
HETATM   11  C   UNL     1      -5.483  -0.206 -33.259  1.00  0.00     0.036 A 
HETATM   12  C   UNL     1      -6.488  -0.437 -34.196  1.00  0.00     0.029 A 
HETATM   13  C   UNL     1      -7.214   0.630 -34.729  1.00  0.00     0.004 A 
HETATM   14  C   UNL     1      -6.939   1.936 -34.325  1.00  0.00     0.029 A 
BRANCH  11  15
HETATM   15  N   UNL     1      -4.698  -1.226 -32.678  1.00  0.00    -0.327 N 
HETATM   16  C   UNL     1      -4.141  -2.324 -33.308  1.00  0.00     0.218 C 
HETATM   17  C   UNL     1      -3.354  -3.184 -32.352  1.00  0.00     0.117 C 
HETATM   18  O   UNL     1      -4.216  -2.613 -34.497  1.00  0.00    -0.274 OA
HETATM   19  H   UNL     1      -4.519  -1.133 -31.685  1.00  0.00     0.169 HD
ENDBRANCH  11  15
ENDBRANCH   6   9
ENDBRANCH   1   5
BRANCH   2  20
HETATM   20  C   UNL     1      -3.556   7.411 -31.978  1.00  0.00     0.159 C 
BRANCH  20  21
HETATM   21  C   UNL     1      -2.127   7.945 -32.200  1.00  0.00     0.171 C 
BRANCH  21  22
HETATM   22  O   UNL     1      -2.114   9.364 -31.980  1.00  0.00    -0.389 OA
HETATM   23  H   UNL     1      -1.208   9.662 -32.174  1.00  0.00     0.210 HD
ENDBRANCH  21  22
BRANCH  21  24
HETATM   24  C   UNL     1      -1.142   7.250 -31.312  1.00  0.00     0.000 A 
HETATM   25  C   UNL     1      -0.801   7.607 -29.966  1.00  0.00     0.001 A 
HETATM   26  C   UNL     1       0.178   6.710 -29.522  1.00  0.00     0.044 A 
HETATM   27  C   UNL     1      -1.238   8.621 -29.086  1.00  0.00     0.014 A 
HETATM   28  C   UNL     1       0.726   6.790 -28.231  1.00  0.00     0.030 A 
HETATM   29  N   UNL     1       0.421   5.839 -30.561  1.00  0.00    -0.360 N 
HETATM   30  C   UNL     1       0.277   7.805 -27.381  1.00  0.00     0.002 A 
HETATM   31  C   UNL     1      -0.692   8.710 -27.801  1.00  0.00     0.001 A 
HETATM   32  C   UNL     1       1.360   4.738 -30.554  1.00  0.00     0.155 C 
HETATM   33  C   UNL     1      -0.363   6.154 -31.636  1.00  0.00     0.101 A 
ENDBRANCH  21  24
ENDBRANCH  20  21
ENDBRANCH   2  20
TORSDOF 7
ENDMDL
