MODEL 1
REMARK VINA RESULT:     -11.1      0.000      0.000
REMARK  7 active torsions:
REMARK  status: ('A' for Active; 'I' for Inactive)
REMARK    1  A    between atoms: C_2  and  C_3 
REMARK    2  A    between atoms: N_16  and  C_17 
REMARK    3  A    between atoms: C_17  and  C_18 
REMARK       I    between atoms: C_18  and  N_19 
REMARK    4  A    between atoms: N_19  and  C_20 
REMARK    5  A    between atoms: C_21  and  C_22 
REMARK       I    between atoms: C_22  and  N_23 
REMARK    6  A    between atoms: N_23  and  C_24 
REMARK    7  A    between atoms: C_24  and  C_25 
ROOT
HETATM    1  C   UNL     1      -5.694   4.287 -30.032  1.00  0.00     0.240 C 
ENDROOT
BRANCH   1   2
HETATM    2  N   UNL     1      -5.935   3.193 -30.954  1.00  0.00    -0.259 N 
HETATM    3  C   UNL     1      -6.290   3.359 -32.254  1.00  0.00     0.326 A 
HETATM    4  N   UNL     1      -6.493   2.125 -32.818  1.00  0.00    -0.321 N 
HETATM    5  O   UNL     1      -6.373   4.410 -32.863  1.00  0.00    -0.247 OA
HETATM    6  C   UNL     1      -6.403   1.048 -31.859  1.00  0.00     0.140 A 
HETATM    7  H   UNL     1      -6.814   2.022 -33.772  1.00  0.00     0.165 HD
HETATM    8  C   UNL     1      -7.837   0.521 -31.658  1.00  0.00     0.055 C 
HETATM    9  C   UNL     1      -5.996   1.870 -30.608  1.00  0.00     0.261 A 
HETATM   10  O   UNL     1      -5.812   1.422 -29.485  1.00  0.00    -0.270 OA
BRANCH   6  11
HETATM   11  C   UNL     1      -5.362  -0.045 -32.167  1.00  0.00    -0.010 A 
HETATM   12  C   UNL     1      -5.503  -1.124 -33.118  1.00  0.00    -0.017 A 
HETATM   13  C   UNL     1      -4.426  -2.052 -33.251  1.00  0.00    -0.025 A 
HETATM   14  C   UNL     1      -6.614  -1.372 -33.972  1.00  0.00     0.013 A 
HETATM   15  C   UNL     1      -4.499  -3.136 -34.142  1.00  0.00     0.012 A 
HETATM   16  C   UNL     1      -3.254  -1.905 -32.505  1.00  0.00     0.012 A 
HETATM   17  C   UNL     1      -5.615  -3.341 -34.940  1.00  0.00     0.001 A 
HETATM   18  C   UNL     1      -6.674  -2.455 -34.859  1.00  0.00     0.001 A 
HETATM   19  C   UNL     1      -3.097  -0.845 -31.631  1.00  0.00     0.002 A 
HETATM   20  C   UNL     1      -4.129   0.071 -31.475  1.00  0.00     0.011 A 
ENDBRANCH   6  11
ENDBRANCH   1   2
BRANCH   1  21
HETATM   21  C   UNL     1      -4.608   5.262 -30.499  1.00  0.00     0.240 C 
HETATM   22  N   UNL     1      -3.521   4.679 -31.137  1.00  0.00    -0.325 N 
HETATM   23  H   UNL     1      -3.758   3.801 -31.581  1.00  0.00     0.169 HD
HETATM   24  O   UNL     1      -4.696   6.465 -30.247  1.00  0.00    -0.271 OA
BRANCH  22  25
HETATM   25  C   UNL     1      -2.608   5.475 -31.873  1.00  0.00     0.050 A 
HETATM   26  C   UNL     1      -1.340   5.889 -31.428  1.00  0.00     0.058 A 
HETATM   27  C   UNL     1      -0.532   6.663 -32.284  1.00  0.00     0.019 A 
HETATM   28  C   UNL     1      -0.970   7.025 -33.558  1.00  0.00     0.001 A 
HETATM   29  C   UNL     1      -2.210   6.589 -34.007  1.00  0.00     0.002 A 
HETATM   30  C   UNL     1      -3.016   5.809 -33.177  1.00  0.00     0.030 A 
BRANCH  26  31
HETATM   31  C   UNL     1      -0.658   5.435 -30.187  1.00  0.00     0.254 C 
HETATM   32  N   UNL     1      -0.849   6.170 -29.046  1.00  0.00    -0.351 N 
HETATM   33  H   UNL     1      -1.366   7.045 -29.122  1.00  0.00     0.163 HD
HETATM   34  O   UNL     1       0.118   4.484 -30.249  1.00  0.00    -0.268 OA
BRANCH  32  35
HETATM   35  C   UNL     1      -0.015   5.942 -27.888  1.00  0.00     0.187 C 
BRANCH  35  36
HETATM   36  C   UNL     1       0.740   7.166 -27.519  1.00  0.00     0.070 A 
HETATM   37  O   UNL     1       1.183   7.226 -26.228  1.00  0.00    -0.325 OA
HETATM   38  C   UNL     1       1.875   8.385 -26.095  1.00  0.00     0.142 A 
HETATM   39  C   UNL     1       1.889   9.077 -27.281  1.00  0.00     0.027 A 
HETATM   40  C   UNL     1       1.162   8.288 -28.205  1.00  0.00     0.036 A 
ENDBRANCH  35  36
ENDBRANCH  32  35
ENDBRANCH  26  31
ENDBRANCH  22  25
ENDBRANCH   1  21
TORSDOF 7
ENDMDL
MODEL 2
REMARK VINA RESULT:     -10.7      1.705      2.523
REMARK  7 active torsions:
REMARK  status: ('A' for Active; 'I' for Inactive)
REMARK    1  A    between atoms: C_2  and  C_3 
REMARK    2  A    between atoms: N_16  and  C_17 
REMARK    3  A    between atoms: C_17  and  C_18 
REMARK       I    between atoms: C_18  and  N_19 
REMARK    4  A    between atoms: N_19  and  C_20 
REMARK    5  A    between atoms: C_21  and  C_22 
REMARK       I    between atoms: C_22  and  N_23 
REMARK    6  A    between atoms: N_23  and  C_24 
REMARK    7  A    between atoms: C_24  and  C_25 
ROOT
HETATM    1  C   UNL     1      -5.614   4.721 -30.141  1.00  0.00     0.240 C 
ENDROOT
BRANCH   1   2
HETATM    2  N   UNL     1      -6.286   3.470 -30.437  1.00  0.00    -0.259 N 
HETATM    3  C   UNL     1      -7.586   3.215 -30.138  1.00  0.00     0.326 A 
HETATM    4  N   UNL     1      -7.880   1.926 -30.501  1.00  0.00    -0.321 N 
HETATM    5  O   UNL     1      -8.397   3.995 -29.673  1.00  0.00    -0.247 OA
HETATM    6  C   UNL     1      -6.721   1.194 -30.959  1.00  0.00     0.140 A 
HETATM    7  H   UNL     1      -8.786   1.515 -30.319  1.00  0.00     0.165 HD
HETATM    8  C   UNL     1      -6.390   0.167 -29.859  1.00  0.00     0.055 C 
HETATM    9  C   UNL     1      -5.673   2.337 -30.902  1.00  0.00     0.261 A 
HETATM   10  O   UNL     1      -4.485   2.235 -31.175  1.00  0.00    -0.270 OA
BRANCH   6  11
HETATM   11  C   UNL     1      -6.815   0.599 -32.376  1.00  0.00    -0.010 A 
HETATM   12  C   UNL     1      -5.977  -0.441 -32.930  1.00  0.00    -0.017 A 
HETATM   13  C   UNL     1      -6.213  -0.851 -34.278  1.00  0.00    -0.025 A 
HETATM   14  C   UNL     1      -4.924  -1.133 -32.271  1.00  0.00     0.013 A 
HETATM   15  C   UNL     1      -5.427  -1.843 -34.889  1.00  0.00     0.012 A 
HETATM   16  C   UNL     1      -7.244  -0.286 -35.032  1.00  0.00     0.012 A 
HETATM   17  C   UNL     1      -4.399  -2.475 -34.204  1.00  0.00     0.001 A 
HETATM   18  C   UNL     1      -4.149  -2.123 -32.890  1.00  0.00     0.001 A 
HETATM   19  C   UNL     1      -8.079   0.673 -34.487  1.00  0.00     0.002 A 
HETATM   20  C   UNL     1      -7.872   1.098 -33.181  1.00  0.00     0.011 A 
ENDBRANCH   6  11
ENDBRANCH   1   2
BRANCH   1  21
HETATM   21  C   UNL     1      -4.886   5.332 -31.343  1.00  0.00     0.240 C 
HETATM   22  N   UNL     1      -3.499   5.290 -31.282  1.00  0.00    -0.325 N 
HETATM   23  H   UNL     1      -3.159   4.527 -30.711  1.00  0.00     0.169 HD
HETATM   24  O   UNL     1      -5.520   5.875 -32.250  1.00  0.00    -0.271 OA
BRANCH  22  25
HETATM   25  C   UNL     1      -2.720   5.541 -32.439  1.00  0.00     0.050 A 
HETATM   26  C   UNL     1      -1.961   6.701 -32.680  1.00  0.00     0.058 A 
HETATM   27  C   UNL     1      -1.218   6.798 -33.873  1.00  0.00     0.019 A 
HETATM   28  C   UNL     1      -1.227   5.769 -34.814  1.00  0.00     0.001 A 
HETATM   29  C   UNL     1      -1.952   4.613 -34.561  1.00  0.00     0.002 A 
HETATM   30  C   UNL     1      -2.682   4.494 -33.377  1.00  0.00     0.030 A 
BRANCH  26  31
HETATM   31  C   UNL     1      -1.700   7.792 -31.704  1.00  0.00     0.254 C 
HETATM   32  N   UNL     1      -1.288   7.439 -30.445  1.00  0.00    -0.351 N 
HETATM   33  H   UNL     1      -1.275   6.449 -30.206  1.00  0.00     0.163 HD
HETATM   34  O   UNL     1      -1.950   8.950 -32.026  1.00  0.00    -0.268 OA
BRANCH  32  35
HETATM   35  C   UNL     1      -1.275   8.421 -29.385  1.00  0.00     0.187 C 
BRANCH  35  36
HETATM   36  C   UNL     1      -0.280   8.071 -28.340  1.00  0.00     0.070 A 
HETATM   37  O   UNL     1      -0.760   7.366 -27.273  1.00  0.00    -0.325 OA
HETATM   38  C   UNL     1       0.292   7.111 -26.455  1.00  0.00     0.142 A 
HETATM   39  C   UNL     1       1.447   7.640 -26.976  1.00  0.00     0.027 A 
HETATM   40  C   UNL     1       1.081   8.254 -28.198  1.00  0.00     0.036 A 
ENDBRANCH  35  36
ENDBRANCH  32  35
ENDBRANCH  26  31
ENDBRANCH  22  25
ENDBRANCH   1  21
TORSDOF 7
ENDMDL
MODEL 3
REMARK VINA RESULT:     -10.6      2.893     10.116
REMARK  7 active torsions:
REMARK  status: ('A' for Active; 'I' for Inactive)
REMARK    1  A    between atoms: C_2  and  C_3 
REMARK    2  A    between atoms: N_16  and  C_17 
REMARK    3  A    between atoms: C_17  and  C_18 
REMARK       I    between atoms: C_18  and  N_19 
REMARK    4  A    between atoms: N_19  and  C_20 
REMARK    5  A    between atoms: C_21  and  C_22 
REMARK       I    between atoms: C_22  and  N_23 
REMARK    6  A    between atoms: N_23  and  C_24 
REMARK    7  A    between atoms: C_24  and  C_25 
ROOT
HETATM    1  C   UNL     1      -5.548   3.236 -31.629  1.00  0.00     0.240 C 
ENDROOT
BRANCH   1   2
HETATM    2  N   UNL     1      -4.586   4.260 -31.992  1.00  0.00    -0.259 N 
HETATM    3  C   UNL     1      -4.908   5.414 -32.630  1.00  0.00     0.326 A 
HETATM    4  N   UNL     1      -3.759   6.124 -32.869  1.00  0.00    -0.321 N 
HETATM    5  O   UNL     1      -6.025   5.809 -32.912  1.00  0.00    -0.247 OA
HETATM    6  C   UNL     1      -2.565   5.397 -32.502  1.00  0.00     0.140 A 
HETATM    7  H   UNL     1      -3.768   6.996 -33.381  1.00  0.00     0.165 HD
HETATM    8  C   UNL     1      -1.874   5.000 -33.821  1.00  0.00     0.055 C 
HETATM    9  C   UNL     1      -3.227   4.135 -31.889  1.00  0.00     0.261 A 
HETATM   10  O   UNL     1      -2.636   3.164 -31.437  1.00  0.00    -0.270 OA
BRANCH   6  11
HETATM   11  C   UNL     1      -1.640   6.088 -31.484  1.00  0.00    -0.010 A 
HETATM   12  C   UNL     1      -2.044   6.750 -30.264  1.00  0.00    -0.017 A 
HETATM   13  C   UNL     1      -1.033   7.349 -29.454  1.00  0.00    -0.025 A 
HETATM   14  C   UNL     1      -3.367   6.869 -29.754  1.00  0.00     0.013 A 
HETATM   15  C   UNL     1      -1.352   8.024 -28.263  1.00  0.00     0.012 A 
HETATM   16  C   UNL     1       0.316   7.272 -29.811  1.00  0.00     0.012 A 
HETATM   17  C   UNL     1      -2.664   8.125 -27.820  1.00  0.00     0.001 A 
HETATM   18  C   UNL     1      -3.673   7.542 -28.564  1.00  0.00     0.001 A 
HETATM   19  C   UNL     1       0.709   6.596 -30.952  1.00  0.00     0.002 A 
HETATM   20  C   UNL     1      -0.251   6.009 -31.765  1.00  0.00     0.011 A 
ENDBRANCH   6  11
ENDBRANCH   1   2
BRANCH   1  21
HETATM   21  C   UNL     1      -5.714   2.140 -32.686  1.00  0.00     0.240 C 
HETATM   22  N   UNL     1      -5.521   0.842 -32.233  1.00  0.00    -0.325 N 
HETATM   23  H   UNL     1      -5.718   0.745 -31.244  1.00  0.00     0.169 HD
HETATM   24  O   UNL     1      -5.934   2.433 -33.863  1.00  0.00    -0.271 OA
BRANCH  22  25
HETATM   25  C   UNL     1      -5.932  -0.263 -33.019  1.00  0.00     0.050 A 
HETATM   26  C   UNL     1      -7.263  -0.610 -33.311  1.00  0.00     0.058 A 
HETATM   27  C   UNL     1      -7.515  -1.730 -34.129  1.00  0.00     0.019 A 
HETATM   28  C   UNL     1      -6.471  -2.496 -34.645  1.00  0.00     0.001 A 
HETATM   29  C   UNL     1      -5.157  -2.134 -34.381  1.00  0.00     0.002 A 
HETATM   30  C   UNL     1      -4.889  -1.019 -33.586  1.00  0.00     0.030 A 
BRANCH  26  31
HETATM   31  C   UNL     1      -8.467   0.203 -32.997  1.00  0.00     0.254 C 
HETATM   32  N   UNL     1      -9.159   0.753 -34.045  1.00  0.00    -0.351 N 
HETATM   33  H   UNL     1      -8.764   0.663 -34.979  1.00  0.00     0.163 HD
HETATM   34  O   UNL     1      -8.742   0.429 -31.821  1.00  0.00    -0.268 OA
BRANCH  32  35
HETATM   35  C   UNL     1     -10.167   1.759 -33.800  1.00  0.00     0.187 C 
BRANCH  35  36
HETATM   36  C   UNL     1     -11.530   1.225 -34.039  1.00  0.00     0.070 A 
HETATM   37  O   UNL     1     -11.882   0.135 -33.294  1.00  0.00    -0.325 OA
HETATM   38  C   UNL     1     -13.161  -0.180 -33.621  1.00  0.00     0.142 A 
HETATM   39  C   UNL     1     -13.644   0.691 -34.566  1.00  0.00     0.027 A 
HETATM   40  C   UNL     1     -12.595   1.605 -34.832  1.00  0.00     0.036 A 
ENDBRANCH  35  36
ENDBRANCH  32  35
ENDBRANCH  26  31
ENDBRANCH  22  25
ENDBRANCH   1  21
TORSDOF 7
ENDMDL
MODEL 4
REMARK VINA RESULT:     -10.4      1.543      1.661
REMARK  7 active torsions:
REMARK  status: ('A' for Active; 'I' for Inactive)
REMARK    1  A    between atoms: C_2  and  C_3 
REMARK    2  A    between atoms: N_16  and  C_17 
REMARK    3  A    between atoms: C_17  and  C_18 
REMARK       I    between atoms: C_18  and  N_19 
REMARK    4  A    between atoms: N_19  and  C_20 
REMARK    5  A    between atoms: C_21  and  C_22 
REMARK       I    between atoms: C_22  and  N_23 
REMARK    6  A    between atoms: N_23  and  C_24 
REMARK    7  A    between atoms: C_24  and  C_25 
ROOT
HETATM    1  C   UNL     1      -6.830   4.917 -31.727  1.00  0.00     0.240 C 
ENDROOT
BRANCH   1   2
HETATM    2  N   UNL     1      -6.966   3.558 -32.216  1.00  0.00    -0.259 N 
HETATM    3  C   UNL     1      -7.684   3.215 -33.317  1.00  0.00     0.326 A 
HETATM    4  N   UNL     1      -7.649   1.851 -33.460  1.00  0.00    -0.321 N 
HETATM    5  O   UNL     1      -8.234   3.969 -34.098  1.00  0.00    -0.247 OA
HETATM    6  C   UNL     1      -6.992   1.188 -32.358  1.00  0.00     0.140 A 
HETATM    7  H   UNL     1      -8.164   1.380 -34.193  1.00  0.00     0.165 HD
HETATM    8  C   UNL     1      -8.097   0.469 -31.559  1.00  0.00     0.055 C 
HETATM    9  C   UNL     1      -6.535   2.437 -31.560  1.00  0.00     0.261 A 
HETATM   10  O   UNL     1      -5.937   2.427 -30.493  1.00  0.00    -0.270 OA
BRANCH   6  11
HETATM   11  C   UNL     1      -5.792   0.296 -32.725  1.00  0.00    -0.010 A 
HETATM   12  C   UNL     1      -5.840  -0.957 -33.444  1.00  0.00    -0.017 A 
HETATM   13  C   UNL     1      -4.612  -1.649 -33.677  1.00  0.00    -0.025 A 
HETATM   14  C   UNL     1      -6.995  -1.596 -33.975  1.00  0.00     0.013 A 
HETATM   15  C   UNL     1      -4.582  -2.881 -34.353  1.00  0.00     0.012 A 
HETATM   16  C   UNL     1      -3.393  -1.117 -33.248  1.00  0.00     0.012 A 
HETATM   17  C   UNL     1      -5.743  -3.468 -34.836  1.00  0.00     0.001 A 
HETATM   18  C   UNL     1      -6.952  -2.823 -34.650  1.00  0.00     0.001 A 
HETATM   19  C   UNL     1      -3.341   0.106 -32.604  1.00  0.00     0.002 A 
HETATM   20  C   UNL     1      -4.518   0.801 -32.358  1.00  0.00     0.011 A 
ENDBRANCH   6  11
ENDBRANCH   1   2
BRANCH   1  21
HETATM   21  C   UNL     1      -5.633   5.670 -32.318  1.00  0.00     0.240 C 
HETATM   22  N   UNL     1      -4.390   5.107 -32.061  1.00  0.00    -0.325 N 
HETATM   23  H   UNL     1      -4.443   4.108 -31.906  1.00  0.00     0.169 HD
HETATM   24  O   UNL     1      -5.796   6.735 -32.916  1.00  0.00    -0.271 OA
BRANCH  22  25
HETATM   25  C   UNL     1      -3.247   5.524 -32.787  1.00  0.00     0.050 A 
HETATM   26  C   UNL     1      -2.360   6.544 -32.402  1.00  0.00     0.058 A 
HETATM   27  C   UNL     1      -1.250   6.833 -33.221  1.00  0.00     0.019 A 
HETATM   28  C   UNL     1      -1.022   6.128 -34.402  1.00  0.00     0.001 A 
HETATM   29  C   UNL     1      -1.882   5.100 -34.765  1.00  0.00     0.002 A 
HETATM   30  C   UNL     1      -2.978   4.791 -33.957  1.00  0.00     0.030 A 
BRANCH  26  31
HETATM   31  C   UNL     1      -2.357   7.253 -31.094  1.00  0.00     0.254 C 
HETATM   32  N   UNL     1      -1.697   6.662 -30.048  1.00  0.00    -0.351 N 
HETATM   33  H   UNL     1      -1.325   5.724 -30.186  1.00  0.00     0.163 HD
HETATM   34  O   UNL     1      -3.017   8.282 -30.974  1.00  0.00    -0.268 OA
BRANCH  32  35
HETATM   35  C   UNL     1      -1.879   7.158 -28.703  1.00  0.00     0.187 C 
BRANCH  35  36
HETATM   36  C   UNL     1      -0.587   7.565 -28.099  1.00  0.00     0.070 A 
HETATM   37  O   UNL     1      -0.518   7.498 -26.736  1.00  0.00    -0.325 OA
HETATM   38  C   UNL     1       0.738   7.868 -26.379  1.00  0.00     0.142 A 
HETATM   39  C   UNL     1       1.485   8.174 -27.490  1.00  0.00     0.027 A 
HETATM   40  C   UNL     1       0.633   7.972 -28.604  1.00  0.00     0.036 A 
ENDBRANCH  35  36
ENDBRANCH  32  35
ENDBRANCH  26  31
ENDBRANCH  22  25
ENDBRANCH   1  21
TORSDOF 7
ENDMDL
MODEL 5
REMARK VINA RESULT:     -10.4      2.199      4.106
REMARK  7 active torsions:
REMARK  status: ('A' for Active; 'I' for Inactive)
REMARK    1  A    between atoms: C_2  and  C_3 
REMARK    2  A    between atoms: N_16  and  C_17 
REMARK    3  A    between atoms: C_17  and  C_18 
REMARK       I    between atoms: C_18  and  N_19 
REMARK    4  A    between atoms: N_19  and  C_20 
REMARK    5  A    between atoms: C_21  and  C_22 
REMARK       I    between atoms: C_22  and  N_23 
REMARK    6  A    between atoms: N_23  and  C_24 
REMARK    7  A    between atoms: C_24  and  C_25 
ROOT
HETATM    1  C   UNL     1      -8.184   3.164 -31.520  1.00  0.00     0.240 C 
ENDROOT
BRANCH   1   2
HETATM    2  N   UNL     1      -7.633   2.386 -32.614  1.00  0.00    -0.259 N 
HETATM    3  C   UNL     1      -7.008   2.927 -33.692  1.00  0.00     0.326 A 
HETATM    4  N   UNL     1      -6.665   1.919 -34.556  1.00  0.00    -0.321 N 
HETATM    5  O   UNL     1      -6.735   4.100 -33.869  1.00  0.00    -0.247 OA
HETATM    6  C   UNL     1      -7.171   0.630 -34.143  1.00  0.00     0.140 A 
HETATM    7  H   UNL     1      -6.231   2.109 -35.450  1.00  0.00     0.165 HD
HETATM    8  C   UNL     1      -8.300   0.269 -35.128  1.00  0.00     0.055 C 
HETATM    9  C   UNL     1      -7.806   1.040 -32.789  1.00  0.00     0.261 A 
HETATM   10  O   UNL     1      -8.409   0.298 -32.026  1.00  0.00    -0.270 OA
BRANCH   6  11
HETATM   11  C   UNL     1      -6.119  -0.478 -33.950  1.00  0.00    -0.010 A 
HETATM   12  C   UNL     1      -4.983  -0.440 -33.056  1.00  0.00    -0.017 A 
HETATM   13  C   UNL     1      -4.108  -1.567 -33.029  1.00  0.00    -0.025 A 
HETATM   14  C   UNL     1      -4.632   0.611 -32.164  1.00  0.00     0.013 A 
HETATM   15  C   UNL     1      -2.974  -1.595 -32.199  1.00  0.00     0.012 A 
HETATM   16  C   UNL     1      -4.355  -2.691 -33.822  1.00  0.00     0.012 A 
HETATM   17  C   UNL     1      -2.668  -0.533 -31.359  1.00  0.00     0.001 A 
HETATM   18  C   UNL     1      -3.501   0.572 -31.338  1.00  0.00     0.001 A 
HETATM   19  C   UNL     1      -5.469  -2.749 -34.641  1.00  0.00     0.002 A 
HETATM   20  C   UNL     1      -6.337  -1.666 -34.694  1.00  0.00     0.011 A 
ENDBRANCH   6  11
ENDBRANCH   1   2
BRANCH   1  21
HETATM   21  C   UNL     1      -7.129   3.926 -30.711  1.00  0.00     0.240 C 
HETATM   22  N   UNL     1      -7.166   5.309 -30.838  1.00  0.00    -0.325 N 
HETATM   23  H   UNL     1      -8.089   5.650 -31.077  1.00  0.00     0.169 HD
HETATM   24  O   UNL     1      -6.279   3.317 -30.059  1.00  0.00    -0.271 OA
BRANCH  22  25
HETATM   25  C   UNL     1      -6.458   6.134 -29.930  1.00  0.00     0.050 A 
HETATM   26  C   UNL     1      -5.079   6.408 -29.977  1.00  0.00     0.058 A 
HETATM   27  C   UNL     1      -4.519   7.269 -29.013  1.00  0.00     0.019 A 
HETATM   28  C   UNL     1      -5.305   7.847 -28.017  1.00  0.00     0.001 A 
HETATM   29  C   UNL     1      -6.671   7.599 -27.990  1.00  0.00     0.002 A 
HETATM   30  C   UNL     1      -7.245   6.761 -28.947  1.00  0.00     0.030 A 
BRANCH  26  31
HETATM   31  C   UNL     1      -4.149   6.026 -31.073  1.00  0.00     0.254 C 
HETATM   32  N   UNL     1      -3.474   4.839 -30.954  1.00  0.00    -0.351 N 
HETATM   33  H   UNL     1      -3.564   4.323 -30.081  1.00  0.00     0.163 HD
HETATM   34  O   UNL     1      -3.950   6.821 -31.988  1.00  0.00    -0.268 OA
BRANCH  32  35
HETATM   35  C   UNL     1      -2.372   4.540 -31.839  1.00  0.00     0.187 C 
BRANCH  35  36
HETATM   36  C   UNL     1      -1.115   5.173 -31.366  1.00  0.00     0.070 A 
HETATM   37  O   UNL     1      -0.380   4.444 -30.473  1.00  0.00    -0.325 OA
HETATM   38  C   UNL     1       0.736   5.161 -30.191  1.00  0.00     0.142 A 
HETATM   39  C   UNL     1       0.737   6.344 -30.888  1.00  0.00     0.027 A 
HETATM   40  C   UNL     1      -0.455   6.351 -31.654  1.00  0.00     0.036 A 
ENDBRANCH  35  36
ENDBRANCH  32  35
ENDBRANCH  26  31
ENDBRANCH  22  25
ENDBRANCH   1  21
TORSDOF 7
ENDMDL
MODEL 6
REMARK VINA RESULT:     -10.3      2.830      4.837
REMARK  7 active torsions:
REMARK  status: ('A' for Active; 'I' for Inactive)
REMARK    1  A    between atoms: C_2  and  C_3 
REMARK    2  A    between atoms: N_16  and  C_17 
REMARK    3  A    between atoms: C_17  and  C_18 
REMARK       I    between atoms: C_18  and  N_19 
REMARK    4  A    between atoms: N_19  and  C_20 
REMARK    5  A    between atoms: C_21  and  C_22 
REMARK       I    between atoms: C_22  and  N_23 
REMARK    6  A    between atoms: N_23  and  C_24 
REMARK    7  A    between atoms: C_24  and  C_25 
ROOT
HETATM    1  C   UNL     1      -7.679   3.390 -30.659  1.00  0.00     0.240 C 
ENDROOT
BRANCH   1   2
HETATM    2  N   UNL     1      -7.454   2.673 -31.900  1.00  0.00    -0.259 N 
HETATM    3  C   UNL     1      -7.019   3.256 -33.047  1.00  0.00     0.326 A 
HETATM    4  N   UNL     1      -6.970   2.306 -34.035  1.00  0.00    -0.321 N 
HETATM    5  O   UNL     1      -6.672   4.413 -33.195  1.00  0.00    -0.247 OA
HETATM    6  C   UNL     1      -7.506   1.032 -33.616  1.00  0.00     0.140 A 
HETATM    7  H   UNL     1      -6.718   2.540 -34.987  1.00  0.00     0.165 HD
HETATM    8  C   UNL     1      -8.849   0.859 -34.353  1.00  0.00     0.055 C 
HETATM    9  C   UNL     1      -7.797   1.367 -32.129  1.00  0.00     0.261 A 
HETATM   10  O   UNL     1      -8.298   0.612 -31.308  1.00  0.00    -0.270 OA
BRANCH   6  11
HETATM   11  C   UNL     1      -6.556  -0.174 -33.736  1.00  0.00    -0.010 A 
HETATM   12  C   UNL     1      -5.314  -0.365 -33.022  1.00  0.00    -0.017 A 
HETATM   13  C   UNL     1      -4.561  -1.550 -33.284  1.00  0.00    -0.025 A 
HETATM   14  C   UNL     1      -4.742   0.504 -32.052  1.00  0.00     0.013 A 
HETATM   15  C   UNL     1      -3.336  -1.796 -32.640  1.00  0.00     0.012 A 
HETATM   16  C   UNL     1      -5.024  -2.514 -34.183  1.00  0.00     0.012 A 
HETATM   17  C   UNL     1      -2.815  -0.904 -31.713  1.00  0.00     0.001 A 
HETATM   18  C   UNL     1      -3.521   0.247 -31.415  1.00  0.00     0.001 A 
HETATM   19  C   UNL     1      -6.237  -2.356 -34.830  1.00  0.00     0.002 A 
HETATM   20  C   UNL     1      -6.990  -1.212 -34.601  1.00  0.00     0.011 A 
ENDBRANCH   6  11
ENDBRANCH   1   2
BRANCH   1  21
HETATM   21  C   UNL     1      -6.410   4.008 -30.063  1.00  0.00     0.240 C 
HETATM   22  N   UNL     1      -6.489   5.363 -29.770  1.00  0.00    -0.325 N 
HETATM   23  H   UNL     1      -7.438   5.663 -29.582  1.00  0.00     0.169 HD
HETATM   24  O   UNL     1      -5.387   3.333 -29.932  1.00  0.00    -0.271 OA
BRANCH  22  25
HETATM   25  C   UNL     1      -5.511   5.980 -28.952  1.00  0.00     0.050 A 
HETATM   26  C   UNL     1      -4.364   6.652 -29.413  1.00  0.00     0.058 A 
HETATM   27  C   UNL     1      -3.490   7.237 -28.475  1.00  0.00     0.019 A 
HETATM   28  C   UNL     1      -3.742   7.156 -27.106  1.00  0.00     0.001 A 
HETATM   29  C   UNL     1      -4.890   6.519 -26.655  1.00  0.00     0.002 A 
HETATM   30  C   UNL     1      -5.774   5.948 -27.571  1.00  0.00     0.030 A 
BRANCH  26  31
HETATM   31  C   UNL     1      -4.056   6.984 -30.829  1.00  0.00     0.254 C 
HETATM   32  N   UNL     1      -2.737   7.050 -31.198  1.00  0.00    -0.351 N 
HETATM   33  H   UNL     1      -2.032   6.967 -30.468  1.00  0.00     0.163 HD
HETATM   34  O   UNL     1      -4.978   7.277 -31.585  1.00  0.00    -0.268 OA
BRANCH  32  35
HETATM   35  C   UNL     1      -2.368   7.622 -32.472  1.00  0.00     0.187 C 
BRANCH  35  36
HETATM   36  C   UNL     1      -2.278   6.579 -33.524  1.00  0.00     0.070 A 
HETATM   37  O   UNL     1      -3.447   6.274 -34.163  1.00  0.00    -0.325 OA
HETATM   38  C   UNL     1      -3.159   5.341 -35.104  1.00  0.00     0.142 A 
HETATM   39  C   UNL     1      -1.820   5.036 -35.086  1.00  0.00     0.027 A 
HETATM   40  C   UNL     1      -1.247   5.841 -34.071  1.00  0.00     0.036 A 
ENDBRANCH  35  36
ENDBRANCH  32  35
ENDBRANCH  26  31
ENDBRANCH  22  25
ENDBRANCH   1  21
TORSDOF 7
ENDMDL
MODEL 7
REMARK VINA RESULT:     -10.2      2.308      4.002
REMARK  7 active torsions:
REMARK  status: ('A' for Active; 'I' for Inactive)
REMARK    1  A    between atoms: C_2  and  C_3 
REMARK    2  A    between atoms: N_16  and  C_17 
REMARK    3  A    between atoms: C_17  and  C_18 
REMARK       I    between atoms: C_18  and  N_19 
REMARK    4  A    between atoms: N_19  and  C_20 
REMARK    5  A    between atoms: C_21  and  C_22 
REMARK       I    between atoms: C_22  and  N_23 
REMARK    6  A    between atoms: N_23  and  C_24 
REMARK    7  A    between atoms: C_24  and  C_25 
ROOT
HETATM    1  C   UNL     1      -8.726   2.834 -31.795  1.00  0.00     0.240 C 
ENDROOT
BRANCH   1   2
HETATM    2  N   UNL     1      -7.928   2.141 -32.789  1.00  0.00    -0.259 N 
HETATM    3  C   UNL     1      -7.258   2.763 -33.794  1.00  0.00     0.326 A 
HETATM    4  N   UNL     1      -6.658   1.813 -34.579  1.00  0.00    -0.321 N 
HETATM    5  O   UNL     1      -7.145   3.963 -33.966  1.00  0.00    -0.247 OA
HETATM    6  C   UNL     1      -7.013   0.465 -34.199  1.00  0.00     0.140 A 
HETATM    7  H   UNL     1      -6.146   2.060 -35.416  1.00  0.00     0.165 HD
HETATM    8  C   UNL     1      -7.938  -0.072 -35.309  1.00  0.00     0.055 C 
HETATM    9  C   UNL     1      -7.872   0.783 -32.947  1.00  0.00     0.261 A 
HETATM   10  O   UNL     1      -8.450  -0.037 -32.247  1.00  0.00    -0.270 OA
BRANCH   6  11
HETATM   11  C   UNL     1      -5.840  -0.467 -33.844  1.00  0.00    -0.010 A 
HETATM   12  C   UNL     1      -5.743  -1.879 -34.138  1.00  0.00    -0.017 A 
HETATM   13  C   UNL     1      -4.574  -2.579 -33.711  1.00  0.00    -0.025 A 
HETATM   14  C   UNL     1      -6.694  -2.675 -34.835  1.00  0.00     0.013 A 
HETATM   15  C   UNL     1      -4.417  -3.955 -33.947  1.00  0.00     0.012 A 
HETATM   16  C   UNL     1      -3.536  -1.913 -33.053  1.00  0.00     0.012 A 
HETATM   17  C   UNL     1      -5.386  -4.689 -34.617  1.00  0.00     0.001 A 
HETATM   18  C   UNL     1      -6.526  -4.046 -35.066  1.00  0.00     0.001 A 
HETATM   19  C   UNL     1      -3.606  -0.552 -32.814  1.00  0.00     0.002 A 
HETATM   20  C   UNL     1      -4.732   0.155 -33.212  1.00  0.00     0.011 A 
ENDBRANCH   6  11
ENDBRANCH   1   2
BRANCH   1  21
HETATM   21  C   UNL     1      -7.897   3.520 -30.704  1.00  0.00     0.240 C 
HETATM   22  N   UNL     1      -7.488   4.815 -30.994  1.00  0.00    -0.325 N 
HETATM   23  H   UNL     1      -8.108   5.279 -31.645  1.00  0.00     0.169 HD
HETATM   24  O   UNL     1      -7.577   2.908 -29.683  1.00  0.00    -0.271 OA
BRANCH  22  25
HETATM   25  C   UNL     1      -6.982   5.655 -29.971  1.00  0.00     0.050 A 
HETATM   26  C   UNL     1      -5.622   5.883 -29.695  1.00  0.00     0.058 A 
HETATM   27  C   UNL     1      -5.273   6.766 -28.655  1.00  0.00     0.019 A 
HETATM   28  C   UNL     1      -6.249   7.410 -27.897  1.00  0.00     0.001 A 
HETATM   29  C   UNL     1      -7.591   7.208 -28.189  1.00  0.00     0.002 A 
HETATM   30  C   UNL     1      -7.955   6.348 -29.227  1.00  0.00     0.030 A 
BRANCH  26  31
HETATM   31  C   UNL     1      -4.475   5.425 -30.523  1.00  0.00     0.254 C 
HETATM   32  N   UNL     1      -3.693   6.381 -31.117  1.00  0.00    -0.351 N 
HETATM   33  H   UNL     1      -3.990   7.353 -31.047  1.00  0.00     0.163 HD
HETATM   34  O   UNL     1      -4.326   4.222 -30.719  1.00  0.00    -0.268 OA
BRANCH  32  35
HETATM   35  C   UNL     1      -2.739   6.008 -32.136  1.00  0.00     0.187 C 
BRANCH  35  36
HETATM   36  C   UNL     1      -1.347   6.103 -31.631  1.00  0.00     0.070 A 
HETATM   37  O   UNL     1      -0.730   4.915 -31.357  1.00  0.00    -0.325 OA
HETATM   38  C   UNL     1       0.532   5.202 -30.948  1.00  0.00     0.142 A 
HETATM   39  C   UNL     1       0.742   6.559 -30.954  1.00  0.00     0.027 A 
HETATM   40  C   UNL     1      -0.468   7.143 -31.402  1.00  0.00     0.036 A 
ENDBRANCH  35  36
ENDBRANCH  32  35
ENDBRANCH  26  31
ENDBRANCH  22  25
ENDBRANCH   1  21
TORSDOF 7
ENDMDL
MODEL 8
REMARK VINA RESULT:     -10.1      1.365      2.350
REMARK  7 active torsions:
REMARK  status: ('A' for Active; 'I' for Inactive)
REMARK    1  A    between atoms: C_2  and  C_3 
REMARK    2  A    between atoms: N_16  and  C_17 
REMARK    3  A    between atoms: C_17  and  C_18 
REMARK       I    between atoms: C_18  and  N_19 
REMARK    4  A    between atoms: N_19  and  C_20 
REMARK    5  A    between atoms: C_21  and  C_22 
REMARK       I    between atoms: C_22  and  N_23 
REMARK    6  A    between atoms: N_23  and  C_24 
REMARK    7  A    between atoms: C_24  and  C_25 
ROOT
HETATM    1  C   UNL     1      -6.355   4.028 -31.561  1.00  0.00     0.240 C 
ENDROOT
BRANCH   1   2
HETATM    2  N   UNL     1      -6.520   3.046 -32.616  1.00  0.00    -0.259 N 
HETATM    3  C   UNL     1      -6.304   3.300 -33.933  1.00  0.00     0.326 A 
HETATM    4  N   UNL     1      -6.607   2.175 -34.656  1.00  0.00    -0.321 N 
HETATM    5  O   UNL     1      -5.864   4.326 -34.418  1.00  0.00    -0.247 OA
HETATM    6  C   UNL     1      -7.178   1.124 -33.846  1.00  0.00     0.140 A 
HETATM    7  H   UNL     1      -6.562   2.164 -35.667  1.00  0.00     0.165 HD
HETATM    8  C   UNL     1      -8.668   1.037 -34.230  1.00  0.00     0.055 C 
HETATM    9  C   UNL     1      -7.062   1.800 -32.454  1.00  0.00     0.261 A 
HETATM   10  O   UNL     1      -7.441   1.324 -31.393  1.00  0.00    -0.270 OA
BRANCH   6  11
HETATM   11  C   UNL     1      -6.436  -0.225 -33.870  1.00  0.00    -0.010 A 
HETATM   12  C   UNL     1      -5.205  -0.544 -33.182  1.00  0.00    -0.017 A 
HETATM   13  C   UNL     1      -4.663  -1.855 -33.342  1.00  0.00    -0.025 A 
HETATM   14  C   UNL     1      -4.456   0.314 -32.330  1.00  0.00     0.013 A 
HETATM   15  C   UNL     1      -3.461  -2.231 -32.718  1.00  0.00     0.012 A 
HETATM   16  C   UNL     1      -5.317  -2.816 -34.117  1.00  0.00     0.012 A 
HETATM   17  C   UNL     1      -2.760  -1.347 -31.909  1.00  0.00     0.001 A 
HETATM   18  C   UNL     1      -3.260  -0.073 -31.710  1.00  0.00     0.001 A 
HETATM   19  C   UNL     1      -6.520  -2.528 -34.735  1.00  0.00     0.002 A 
HETATM   20  C   UNL     1      -7.071  -1.260 -34.604  1.00  0.00     0.011 A 
ENDBRANCH   6  11
ENDBRANCH   1   2
BRANCH   1  21
HETATM   21  C   UNL     1      -5.278   5.078 -31.857  1.00  0.00     0.240 C 
HETATM   22  N   UNL     1      -3.971   4.609 -31.844  1.00  0.00    -0.325 N 
HETATM   23  H   UNL     1      -3.912   3.622 -32.064  1.00  0.00     0.169 HD
HETATM   24  O   UNL     1      -5.584   6.260 -32.022  1.00  0.00    -0.271 OA
BRANCH  22  25
HETATM   25  C   UNL     1      -2.921   5.390 -32.387  1.00  0.00     0.050 A 
HETATM   26  C   UNL     1      -2.146   6.326 -31.679  1.00  0.00     0.058 A 
HETATM   27  C   UNL     1      -1.118   7.014 -32.353  1.00  0.00     0.019 A 
HETATM   28  C   UNL     1      -0.862   6.785 -33.704  1.00  0.00     0.001 A 
HETATM   29  C   UNL     1      -1.608   5.839 -34.394  1.00  0.00     0.002 A 
HETATM   30  C   UNL     1      -2.620   5.137 -33.737  1.00  0.00     0.030 A 
BRANCH  26  31
HETATM   31  C   UNL     1      -2.168   6.545 -30.208  1.00  0.00     0.254 C 
HETATM   32  N   UNL     1      -0.972   6.521 -29.540  1.00  0.00    -0.351 N 
HETATM   33  H   UNL     1      -0.138   6.258 -30.061  1.00  0.00     0.163 HD
HETATM   34  O   UNL     1      -3.252   6.643 -29.638  1.00  0.00    -0.268 OA
BRANCH  32  35
HETATM   35  C   UNL     1      -0.949   6.460 -28.096  1.00  0.00     0.187 C 
BRANCH  35  36
HETATM   36  C   UNL     1       0.193   7.231 -27.543  1.00  0.00     0.070 A 
HETATM   37  O   UNL     1       0.764   8.140 -28.389  1.00  0.00    -0.325 OA
HETATM   38  C   UNL     1       1.752   8.764 -27.700  1.00  0.00     0.142 A 
HETATM   39  C   UNL     1       1.830   8.274 -26.419  1.00  0.00     0.027 A 
HETATM   40  C   UNL     1       0.818   7.289 -26.313  1.00  0.00     0.036 A 
ENDBRANCH  35  36
ENDBRANCH  32  35
ENDBRANCH  26  31
ENDBRANCH  22  25
ENDBRANCH   1  21
TORSDOF 7
ENDMDL
MODEL 9
REMARK VINA RESULT:     -10.1      2.488      9.400
REMARK  7 active torsions:
REMARK  status: ('A' for Active; 'I' for Inactive)
REMARK    1  A    between atoms: C_2  and  C_3 
REMARK    2  A    between atoms: N_16  and  C_17 
REMARK    3  A    between atoms: C_17  and  C_18 
REMARK       I    between atoms: C_18  and  N_19 
REMARK    4  A    between atoms: N_19  and  C_20 
REMARK    5  A    between atoms: C_21  and  C_22 
REMARK       I    between atoms: C_22  and  N_23 
REMARK    6  A    between atoms: N_23  and  C_24 
REMARK    7  A    between atoms: C_24  and  C_25 
ROOT
HETATM    1  C   UNL     1      -5.800   3.640 -31.853  1.00  0.00     0.240 C 
ENDROOT
BRANCH   1   2
HETATM    2  N   UNL     1      -4.745   4.591 -32.152  1.00  0.00    -0.259 N 
HETATM    3  C   UNL     1      -4.950   5.785 -32.766  1.00  0.00     0.326 A 
HETATM    4  N   UNL     1      -3.739   6.404 -32.943  1.00  0.00    -0.321 N 
HETATM    5  O   UNL     1      -6.020   6.277 -33.074  1.00  0.00    -0.247 OA
HETATM    6  C   UNL     1      -2.622   5.573 -32.558  1.00  0.00     0.140 A 
HETATM    7  H   UNL     1      -3.659   7.288 -33.430  1.00  0.00     0.165 HD
HETATM    8  C   UNL     1      -1.917   5.156 -33.864  1.00  0.00     0.055 C 
HETATM    9  C   UNL     1      -3.405   4.353 -32.006  1.00  0.00     0.261 A 
HETATM   10  O   UNL     1      -2.912   3.325 -31.564  1.00  0.00    -0.270 OA
BRANCH   6  11
HETATM   11  C   UNL     1      -1.682   6.158 -31.488  1.00  0.00    -0.010 A 
HETATM   12  C   UNL     1      -2.071   6.710 -30.210  1.00  0.00    -0.017 A 
HETATM   13  C   UNL     1      -1.047   7.221 -29.356  1.00  0.00    -0.025 A 
HETATM   14  C   UNL     1      -3.388   6.794 -29.680  1.00  0.00     0.013 A 
HETATM   15  C   UNL     1      -1.351   7.787 -28.106  1.00  0.00     0.012 A 
HETATM   16  C   UNL     1       0.298   7.163 -29.730  1.00  0.00     0.012 A 
HETATM   17  C   UNL     1      -2.658   7.860 -27.644  1.00  0.00     0.001 A 
HETATM   18  C   UNL     1      -3.679   7.358 -28.431  1.00  0.00     0.001 A 
HETATM   19  C   UNL     1       0.676   6.591 -30.931  1.00  0.00     0.002 A 
HETATM   20  C   UNL     1      -0.296   6.091 -31.786  1.00  0.00     0.011 A 
ENDBRANCH   6  11
ENDBRANCH   1   2
BRANCH   1  21
HETATM   21  C   UNL     1      -5.855   2.454 -32.822  1.00  0.00     0.240 C 
HETATM   22  N   UNL     1      -5.610   1.211 -32.254  1.00  0.00    -0.325 N 
HETATM   23  H   UNL     1      -5.845   1.182 -31.269  1.00  0.00     0.169 HD
HETATM   24  O   UNL     1      -6.039   2.637 -34.026  1.00  0.00    -0.271 OA
BRANCH  22  25
HETATM   25  C   UNL     1      -5.922   0.023 -32.961  1.00  0.00     0.050 A 
HETATM   26  C   UNL     1      -7.214  -0.490 -33.170  1.00  0.00     0.058 A 
HETATM   27  C   UNL     1      -7.368  -1.676 -33.915  1.00  0.00     0.019 A 
HETATM   28  C   UNL     1      -6.265  -2.346 -34.441  1.00  0.00     0.001 A 
HETATM   29  C   UNL     1      -4.992  -1.822 -34.260  1.00  0.00     0.002 A 
HETATM   30  C   UNL     1      -4.823  -0.640 -33.537  1.00  0.00     0.030 A 
BRANCH  26  31
HETATM   31  C   UNL     1      -8.491   0.197 -32.840  1.00  0.00     0.254 C 
HETATM   32  N   UNL     1      -9.272   0.630 -33.880  1.00  0.00    -0.351 N 
HETATM   33  H   UNL     1      -8.898   0.551 -34.824  1.00  0.00     0.163 HD
HETATM   34  O   UNL     1      -8.752   0.433 -31.663  1.00  0.00    -0.268 OA
BRANCH  32  35
HETATM   35  C   UNL     1     -10.376   1.528 -33.633  1.00  0.00     0.187 C 
BRANCH  35  36
HETATM   36  C   UNL     1     -10.045   2.915 -34.045  1.00  0.00     0.070 A 
HETATM   37  O   UNL     1     -10.776   3.418 -35.084  1.00  0.00    -0.325 OA
HETATM   38  C   UNL     1     -10.360   4.694 -35.287  1.00  0.00     0.142 A 
HETATM   39  C   UNL     1      -9.371   5.025 -34.394  1.00  0.00     0.027 A 
HETATM   40  C   UNL     1      -9.171   3.880 -33.585  1.00  0.00     0.036 A 
ENDBRANCH  35  36
ENDBRANCH  32  35
ENDBRANCH  26  31
ENDBRANCH  22  25
ENDBRANCH   1  21
TORSDOF 7
ENDMDL
MODEL 10
REMARK VINA RESULT:      -9.9      2.385      4.889
REMARK  7 active torsions:
REMARK  status: ('A' for Active; 'I' for Inactive)
REMARK    1  A    between atoms: C_2  and  C_3 
REMARK    2  A    between atoms: N_16  and  C_17 
REMARK    3  A    between atoms: C_17  and  C_18 
REMARK       I    between atoms: C_18  and  N_19 
REMARK    4  A    between atoms: N_19  and  C_20 
REMARK    5  A    between atoms: C_21  and  C_22 
REMARK       I    between atoms: C_22  and  N_23 
REMARK    6  A    between atoms: N_23  and  C_24 
REMARK    7  A    between atoms: C_24  and  C_25 
ROOT
HETATM    1  C   UNL     1      -1.529   5.261 -33.502  1.00  0.00     0.240 C 
ENDROOT
BRANCH   1   2
HETATM    2  N   UNL     1      -2.782   4.559 -33.298  1.00  0.00    -0.259 N 
HETATM    3  C   UNL     1      -3.909   4.790 -34.020  1.00  0.00     0.326 A 
HETATM    4  N   UNL     1      -4.917   3.999 -33.532  1.00  0.00    -0.321 N 
HETATM    5  O   UNL     1      -4.026   5.529 -34.980  1.00  0.00    -0.247 OA
HETATM    6  C   UNL     1      -4.534   3.272 -32.343  1.00  0.00     0.140 A 
HETATM    7  H   UNL     1      -5.859   4.051 -33.897  1.00  0.00     0.165 HD
HETATM    8  C   UNL     1      -5.295   3.920 -31.171  1.00  0.00     0.055 C 
HETATM    9  C   UNL     1      -3.045   3.700 -32.266  1.00  0.00     0.261 A 
HETATM   10  O   UNL     1      -2.249   3.370 -31.398  1.00  0.00    -0.270 OA
BRANCH   6  11
HETATM   11  C   UNL     1      -4.667   1.740 -32.417  1.00  0.00    -0.010 A 
HETATM   12  C   UNL     1      -5.542   0.993 -33.293  1.00  0.00    -0.017 A 
HETATM   13  C   UNL     1      -5.532  -0.432 -33.201  1.00  0.00    -0.025 A 
HETATM   14  C   UNL     1      -6.427   1.522 -34.273  1.00  0.00     0.013 A 
HETATM   15  C   UNL     1      -6.368  -1.224 -34.008  1.00  0.00     0.012 A 
HETATM   16  C   UNL     1      -4.680  -1.091 -32.311  1.00  0.00     0.012 A 
HETATM   17  C   UNL     1      -7.226  -0.653 -34.937  1.00  0.00     0.001 A 
HETATM   18  C   UNL     1      -7.253   0.723 -35.073  1.00  0.00     0.001 A 
HETATM   19  C   UNL     1      -3.807  -0.380 -31.508  1.00  0.00     0.002 A 
HETATM   20  C   UNL     1      -3.796   1.007 -31.569  1.00  0.00     0.011 A 
ENDBRANCH   6  11
ENDBRANCH   1   2
BRANCH   1  21
HETATM   21  C   UNL     1      -1.345   6.476 -32.586  1.00  0.00     0.240 C 
HETATM   22  N   UNL     1      -1.610   6.252 -31.241  1.00  0.00    -0.325 N 
HETATM   23  H   UNL     1      -1.472   5.285 -30.976  1.00  0.00     0.169 HD
HETATM   24  O   UNL     1      -1.049   7.576 -33.056  1.00  0.00    -0.271 OA
BRANCH  22  25
HETATM   25  C   UNL     1      -1.196   7.189 -30.262  1.00  0.00     0.050 A 
HETATM   26  C   UNL     1      -1.935   8.306 -29.834  1.00  0.00     0.058 A 
HETATM   27  C   UNL     1      -1.400   9.139 -28.831  1.00  0.00     0.019 A 
HETATM   28  C   UNL     1      -0.155   8.875 -28.263  1.00  0.00     0.001 A 
HETATM   29  C   UNL     1       0.560   7.754 -28.664  1.00  0.00     0.002 A 
HETATM   30  C   UNL     1       0.037   6.911 -29.646  1.00  0.00     0.030 A 
BRANCH  26  31
HETATM   31  C   UNL     1      -3.343   8.616 -30.201  1.00  0.00     0.254 C 
HETATM   32  N   UNL     1      -4.300   8.493 -29.227  1.00  0.00    -0.351 N 
HETATM   33  H   UNL     1      -4.020   8.102 -28.329  1.00  0.00     0.163 HD
HETATM   34  O   UNL     1      -3.609   8.875 -31.372  1.00  0.00    -0.268 OA
BRANCH  32  35
HETATM   35  C   UNL     1      -5.701   8.517 -29.579  1.00  0.00     0.187 C 
BRANCH  35  36
HETATM   36  C   UNL     1      -6.398   7.298 -29.101  1.00  0.00     0.070 A 
HETATM   37  O   UNL     1      -7.577   7.002 -29.724  1.00  0.00    -0.325 OA
HETATM   38  C   UNL     1      -8.039   5.847 -29.183  1.00  0.00     0.142 A 
HETATM   39  C   UNL     1      -7.176   5.388 -28.219  1.00  0.00     0.027 A 
HETATM   40  C   UNL     1      -6.111   6.320 -28.169  1.00  0.00     0.036 A 
ENDBRANCH  35  36
ENDBRANCH  32  35
ENDBRANCH  26  31
ENDBRANCH  22  25
ENDBRANCH   1  21
TORSDOF 7
ENDMDL
