MODEL 1
REMARK VINA RESULT:      -9.5      0.000      0.000
REMARK  9 active torsions:
REMARK  status: ('A' for Active; 'I' for Inactive)
REMARK    1  A    between atoms: C_4  and  C_5 
REMARK    2  A    between atoms: C_7  and  O_8 
REMARK    3  A    between atoms: C_10  and  O_11 
REMARK    4  A    between atoms: C_16  and  C_17 
REMARK    5  A    between atoms: C_20  and  C_21 
REMARK    6  A    between atoms: C_21  and  N_22 
REMARK    7  A    between atoms: N_22  and  C_23 
REMARK    8  A    between atoms: C_23  and  N_24 
REMARK    9  A    between atoms: N_24  and  C_25 
ROOT
HETATM    1  C   UNL     1     -10.819   2.521 -33.505  1.00  0.00     0.067 C 
HETATM    2  C   UNL     1     -11.088   2.874 -34.985  1.00  0.00     0.001 C 
HETATM    3  C   UNL     1     -10.437   4.212 -35.406  1.00  0.00     0.040 C 
HETATM    4  C   UNL     1     -10.969   5.387 -34.565  1.00  0.00     0.206 C 
HETATM    5  N   UNL     1     -11.830   4.788 -33.462  1.00  0.00    -0.065 N 
HETATM    6  H   UNL     1     -12.107   5.575 -32.850  1.00  0.00     0.280 HD
HETATM    7  C   UNL     1     -11.072   3.772 -32.633  1.00  0.00     0.246 C 
HETATM    8  C   UNL     1     -12.622   3.110 -35.093  1.00  0.00     0.033 C 
HETATM    9  C   UNL     1     -13.074   4.165 -34.068  1.00  0.00     0.236 C 
ENDROOT
BRANCH   4  10
HETATM   10  C   UNL     1      -9.846   6.301 -34.016  1.00  0.00     0.155 C 
BRANCH  10  11
HETATM   11  N   UNL     1      -8.482   5.767 -34.045  1.00  0.00    -0.365 N 
HETATM   12  H   UNL     1      -7.912   6.104 -34.816  1.00  0.00     0.161 HD
BRANCH  11  13
HETATM   13  C   UNL     1      -7.734   5.364 -32.970  1.00  0.00     0.172 C 
HETATM   14  S   UNL     1      -7.859   6.017 -31.443  1.00  0.00    -0.041 SA
BRANCH  13  15
HETATM   15  N   UNL     1      -6.964   4.252 -33.165  1.00  0.00    -0.333 N 
HETATM   16  H   UNL     1      -7.449   3.467 -33.590  1.00  0.00     0.168 HD
BRANCH  15  17
HETATM   17  C   UNL     1      -5.685   3.935 -32.626  1.00  0.00     0.045 A 
HETATM   18  C   UNL     1      -4.506   4.311 -33.333  1.00  0.00     0.001 A 
HETATM   19  C   UNL     1      -3.246   3.934 -32.799  1.00  0.00    -0.024 A 
HETATM   20  C   UNL     1      -4.501   5.070 -34.531  1.00  0.00     0.014 A 
HETATM   21  C   UNL     1      -2.060   4.293 -33.459  1.00  0.00     0.012 A 
HETATM   22  C   UNL     1      -3.179   3.202 -31.606  1.00  0.00     0.012 A 
HETATM   23  C   UNL     1      -2.092   5.028 -34.641  1.00  0.00     0.001 A 
HETATM   24  C   UNL     1      -3.311   5.419 -35.176  1.00  0.00     0.001 A 
HETATM   25  C   UNL     1      -4.337   2.822 -30.936  1.00  0.00     0.003 A 
HETATM   26  C   UNL     1      -5.580   3.178 -31.448  1.00  0.00     0.030 A 
ENDBRANCH  15  17
ENDBRANCH  13  15
ENDBRANCH  11  13
ENDBRANCH  10  11
ENDBRANCH   4  10
BRANCH   1  27
HETATM   27  C   UNL     1      -9.573   1.804 -33.065  1.00  0.00     0.038 C 
HETATM   28  N   UNL     1      -8.932   1.731 -31.852  1.00  0.00    -0.277 N 
HETATM   29  C   UNL     1      -9.145   2.446 -30.617  1.00  0.00     0.179 C 
HETATM   30  N   UNL     1      -7.958   0.804 -31.826  1.00  0.00    -0.172 NA
HETATM   31  C   UNL     1      -7.819   0.381 -33.086  1.00  0.00     0.089 C 
HETATM   32  C   UNL     1      -8.805   0.993 -33.893  1.00  0.00     0.061 C 
BRANCH  31  33
HETATM   33  C   UNL     1      -6.809  -0.608 -33.478  1.00  0.00    -0.003 A 
HETATM   34  C   UNL     1      -5.606  -0.721 -32.762  1.00  0.00     0.053 A 
HETATM   35  C   UNL     1      -4.650  -1.686 -33.104  1.00  0.00     0.102 A 
HETATM   36  C   UNL     1      -4.894  -2.561 -34.181  1.00  0.00     0.101 A 
HETATM   37  C   UNL     1      -6.080  -2.440 -34.907  1.00  0.00     0.040 A 
HETATM   38  C   UNL     1      -7.029  -1.473 -34.558  1.00  0.00     0.017 A 
BRANCH  35  39
HETATM   39  O   UNL     1      -3.459  -1.866 -32.443  1.00  0.00    -0.353 OA
HETATM   40  C   UNL     1      -2.894  -0.745 -31.779  1.00  0.00     0.210 C 
ENDBRANCH  35  39
BRANCH  36  41
HETATM   41  O   UNL     1      -3.914  -3.485 -34.446  1.00  0.00    -0.353 OA
HETATM   42  C   UNL     1      -4.062  -4.785 -33.894  1.00  0.00     0.210 C 
ENDBRANCH  36  41
ENDBRANCH  31  33
ENDBRANCH   1  27
TORSDOF 9
ENDMDL
MODEL 2
REMARK VINA RESULT:      -9.3      1.939      3.147
REMARK  9 active torsions:
REMARK  status: ('A' for Active; 'I' for Inactive)
REMARK    1  A    between atoms: C_4  and  C_5 
REMARK    2  A    between atoms: C_7  and  O_8 
REMARK    3  A    between atoms: C_10  and  O_11 
REMARK    4  A    between atoms: C_16  and  C_17 
REMARK    5  A    between atoms: C_20  and  C_21 
REMARK    6  A    between atoms: C_21  and  N_22 
REMARK    7  A    between atoms: N_22  and  C_23 
REMARK    8  A    between atoms: C_23  and  N_24 
REMARK    9  A    between atoms: N_24  and  C_25 
ROOT
HETATM    1  C   UNL     1      -9.723   3.647 -32.185  1.00  0.00     0.067 C 
HETATM    2  C   UNL     1      -8.960   4.972 -32.403  1.00  0.00     0.001 C 
HETATM    3  C   UNL     1      -7.720   5.104 -31.487  1.00  0.00     0.040 C 
HETATM    4  C   UNL     1      -8.113   5.055 -29.999  1.00  0.00     0.206 C 
HETATM    5  N   UNL     1      -9.591   4.700 -29.941  1.00  0.00    -0.065 N 
HETATM    6  H   UNL     1      -9.822   4.580 -28.940  1.00  0.00     0.280 HD
HETATM    7  C   UNL     1      -9.897   3.407 -30.668  1.00  0.00     0.246 C 
HETATM    8  C   UNL     1      -9.930   6.101 -31.948  1.00  0.00     0.033 C 
HETATM    9  C   UNL     1     -10.413   5.842 -30.509  1.00  0.00     0.236 C 
ENDROOT
BRANCH   4  10
HETATM   10  C   UNL     1      -7.233   4.088 -29.169  1.00  0.00     0.155 C 
BRANCH  10  11
HETATM   11  N   UNL     1      -5.830   3.956 -29.572  1.00  0.00    -0.365 N 
HETATM   12  H   UNL     1      -5.188   4.565 -29.071  1.00  0.00     0.161 HD
BRANCH  11  13
HETATM   13  C   UNL     1      -5.219   2.835 -30.068  1.00  0.00     0.172 C 
HETATM   14  S   UNL     1      -5.765   1.281 -29.817  1.00  0.00    -0.041 SA
BRANCH  13  15
HETATM   15  N   UNL     1      -4.196   3.054 -30.947  1.00  0.00    -0.333 N 
HETATM   16  H   UNL     1      -3.266   2.934 -30.556  1.00  0.00     0.168 HD
BRANCH  15  17
HETATM   17  C   UNL     1      -4.224   3.678 -32.227  1.00  0.00     0.045 A 
HETATM   18  C   UNL     1      -3.157   4.537 -32.617  1.00  0.00     0.001 A 
HETATM   19  C   UNL     1      -3.238   5.188 -33.877  1.00  0.00    -0.024 A 
HETATM   20  C   UNL     1      -1.993   4.770 -31.842  1.00  0.00     0.014 A 
HETATM   21  C   UNL     1      -2.204   6.036 -34.305  1.00  0.00     0.012 A 
HETATM   22  C   UNL     1      -4.351   4.984 -34.703  1.00  0.00     0.012 A 
HETATM   23  C   UNL     1      -1.080   6.252 -33.512  1.00  0.00     0.001 A 
HETATM   24  C   UNL     1      -0.973   5.617 -32.282  1.00  0.00     0.001 A 
HETATM   25  C   UNL     1      -5.397   4.160 -34.301  1.00  0.00     0.003 A 
HETATM   26  C   UNL     1      -5.337   3.519 -33.068  1.00  0.00     0.030 A 
ENDBRANCH  15  17
ENDBRANCH  13  15
ENDBRANCH  11  13
ENDBRANCH  10  11
ENDBRANCH   4  10
BRANCH   1  27
HETATM   27  C   UNL     1      -9.338   2.375 -32.888  1.00  0.00     0.038 C 
HETATM   28  N   UNL     1      -9.927   1.675 -33.914  1.00  0.00    -0.277 N 
HETATM   29  C   UNL     1     -11.204   1.834 -34.567  1.00  0.00     0.179 C 
HETATM   30  N   UNL     1      -9.145   0.694 -34.398  1.00  0.00    -0.172 NA
HETATM   31  C   UNL     1      -8.100   0.612 -33.569  1.00  0.00     0.089 C 
HETATM   32  C   UNL     1      -8.192   1.642 -32.604  1.00  0.00     0.061 C 
BRANCH  31  33
HETATM   33  C   UNL     1      -7.038  -0.386 -33.735  1.00  0.00    -0.003 A 
HETATM   34  C   UNL     1      -5.933  -0.402 -32.869  1.00  0.00     0.053 A 
HETATM   35  C   UNL     1      -4.930  -1.373 -32.996  1.00  0.00     0.102 A 
HETATM   36  C   UNL     1      -5.028  -2.351 -34.006  1.00  0.00     0.101 A 
HETATM   37  C   UNL     1      -6.116  -2.326 -34.881  1.00  0.00     0.040 A 
HETATM   38  C   UNL     1      -7.112  -1.353 -34.746  1.00  0.00     0.017 A 
BRANCH  35  39
HETATM   39  O   UNL     1      -3.829  -1.462 -32.180  1.00  0.00    -0.353 OA
HETATM   40  C   UNL     1      -3.061  -0.286 -31.973  1.00  0.00     0.210 C 
ENDBRANCH  35  39
BRANCH  36  41
HETATM   41  O   UNL     1      -4.012  -3.272 -34.058  1.00  0.00    -0.353 OA
HETATM   42  C   UNL     1      -4.367  -4.647 -34.105  1.00  0.00     0.210 C 
ENDBRANCH  36  41
ENDBRANCH  31  33
ENDBRANCH   1  27
TORSDOF 9
ENDMDL
MODEL 3
REMARK VINA RESULT:      -9.3      2.560      5.928
REMARK  9 active torsions:
REMARK  status: ('A' for Active; 'I' for Inactive)
REMARK    1  A    between atoms: C_4  and  C_5 
REMARK    2  A    between atoms: C_7  and  O_8 
REMARK    3  A    between atoms: C_10  and  O_11 
REMARK    4  A    between atoms: C_16  and  C_17 
REMARK    5  A    between atoms: C_20  and  C_21 
REMARK    6  A    between atoms: C_21  and  N_22 
REMARK    7  A    between atoms: N_22  and  C_23 
REMARK    8  A    between atoms: C_23  and  N_24 
REMARK    9  A    between atoms: N_24  and  C_25 
ROOT
HETATM    1  C   UNL     1      -9.460   3.895 -34.127  1.00  0.00     0.067 C 
HETATM    2  C   UNL     1     -10.738   3.776 -33.267  1.00  0.00     0.001 C 
HETATM    3  C   UNL     1     -10.649   2.637 -32.224  1.00  0.00     0.040 C 
HETATM    4  C   UNL     1     -10.438   1.270 -32.900  1.00  0.00     0.206 C 
HETATM    5  N   UNL     1     -10.196   1.538 -34.378  1.00  0.00    -0.065 N 
HETATM    6  H   UNL     1      -9.965   0.625 -34.805  1.00  0.00     0.280 HD
HETATM    7  C   UNL     1      -9.038   2.487 -34.605  1.00  0.00     0.246 C 
HETATM    8  C   UNL     1     -11.870   3.351 -34.246  1.00  0.00     0.033 C 
HETATM    9  C   UNL     1     -11.465   2.079 -35.012  1.00  0.00     0.236 C 
ENDROOT
BRANCH   4  10
HETATM   10  C   UNL     1      -9.303   0.439 -32.250  1.00  0.00     0.155 C 
BRANCH  10  11
HETATM   11  N   UNL     1      -8.568   1.066 -31.149  1.00  0.00    -0.365 N 
HETATM   12  H   UNL     1      -8.684   0.608 -30.249  1.00  0.00     0.161 HD
BRANCH  11  13
HETATM   13  C   UNL     1      -7.396   1.770 -31.239  1.00  0.00     0.172 C 
HETATM   14  S   UNL     1      -6.886   2.888 -30.114  1.00  0.00    -0.041 SA
BRANCH  13  15
HETATM   15  N   UNL     1      -6.548   1.388 -32.240  1.00  0.00    -0.333 N 
HETATM   16  H   UNL     1      -6.854   1.640 -33.176  1.00  0.00     0.168 HD
BRANCH  15  17
HETATM   17  C   UNL     1      -5.458   0.473 -32.200  1.00  0.00     0.045 A 
HETATM   18  C   UNL     1      -5.461  -0.667 -33.055  1.00  0.00     0.001 A 
HETATM   19  C   UNL     1      -4.387  -1.591 -32.955  1.00  0.00    -0.024 A 
HETATM   20  C   UNL     1      -6.455  -0.932 -34.030  1.00  0.00     0.014 A 
HETATM   21  C   UNL     1      -4.346  -2.722 -33.785  1.00  0.00     0.012 A 
HETATM   22  C   UNL     1      -3.360  -1.377 -32.027  1.00  0.00     0.012 A 
HETATM   23  C   UNL     1      -5.347  -2.959 -34.724  1.00  0.00     0.001 A 
HETATM   24  C   UNL     1      -6.399  -2.063 -34.849  1.00  0.00     0.001 A 
HETATM   25  C   UNL     1      -3.380  -0.272 -31.182  1.00  0.00     0.003 A 
HETATM   26  C   UNL     1      -4.426   0.641 -31.262  1.00  0.00     0.030 A 
ENDBRANCH  15  17
ENDBRANCH  13  15
ENDBRANCH  11  13
ENDBRANCH  10  11
ENDBRANCH   4  10
BRANCH   1  27
HETATM   27  C   UNL     1      -8.265   4.690 -33.681  1.00  0.00     0.038 C 
HETATM   28  N   UNL     1      -8.150   5.904 -33.047  1.00  0.00    -0.277 N 
HETATM   29  C   UNL     1      -9.134   6.911 -32.731  1.00  0.00     0.179 C 
HETATM   30  N   UNL     1      -6.898   6.164 -32.631  1.00  0.00    -0.172 NA
HETATM   31  C   UNL     1      -6.129   5.204 -33.154  1.00  0.00     0.089 C 
HETATM   32  C   UNL     1      -6.948   4.269 -33.827  1.00  0.00     0.061 C 
BRANCH  31  33
HETATM   33  C   UNL     1      -4.675   5.170 -32.965  1.00  0.00    -0.003 A 
HETATM   34  C   UNL     1      -3.916   6.348 -33.056  1.00  0.00     0.053 A 
HETATM   35  C   UNL     1      -2.531   6.333 -32.842  1.00  0.00     0.102 A 
HETATM   36  C   UNL     1      -1.885   5.121 -32.529  1.00  0.00     0.101 A 
HETATM   37  C   UNL     1      -2.633   3.944 -32.456  1.00  0.00     0.040 A 
HETATM   38  C   UNL     1      -4.015   3.969 -32.672  1.00  0.00     0.017 A 
BRANCH  35  39
HETATM   39  O   UNL     1      -1.726   7.445 -32.899  1.00  0.00    -0.353 OA
HETATM   40  C   UNL     1      -1.883   8.429 -31.887  1.00  0.00     0.210 C 
ENDBRANCH  35  39
BRANCH  36  41
HETATM   41  O   UNL     1      -0.530   5.191 -32.323  1.00  0.00    -0.353 OA
HETATM   42  C   UNL     1      -0.061   5.171 -30.983  1.00  0.00     0.210 C 
ENDBRANCH  36  41
ENDBRANCH  31  33
ENDBRANCH   1  27
TORSDOF 9
ENDMDL
MODEL 4
REMARK VINA RESULT:      -9.2      6.484     10.734
REMARK  9 active torsions:
REMARK  status: ('A' for Active; 'I' for Inactive)
REMARK    1  A    between atoms: C_4  and  C_5 
REMARK    2  A    between atoms: C_7  and  O_8 
REMARK    3  A    between atoms: C_10  and  O_11 
REMARK    4  A    between atoms: C_16  and  C_17 
REMARK    5  A    between atoms: C_20  and  C_21 
REMARK    6  A    between atoms: C_21  and  N_22 
REMARK    7  A    between atoms: N_22  and  C_23 
REMARK    8  A    between atoms: C_23  and  N_24 
REMARK    9  A    between atoms: N_24  and  C_25 
ROOT
HETATM    1  C   UNL     1      -1.419   6.580 -31.422  1.00  0.00     0.067 C 
HETATM    2  C   UNL     1      -2.385   7.107 -32.506  1.00  0.00     0.001 C 
HETATM    3  C   UNL     1      -3.763   6.405 -32.467  1.00  0.00     0.040 C 
HETATM    4  C   UNL     1      -3.628   4.887 -32.690  1.00  0.00     0.206 C 
HETATM    5  N   UNL     1      -2.140   4.568 -32.683  1.00  0.00    -0.065 N 
HETATM    6  H   UNL     1      -2.063   3.539 -32.741  1.00  0.00     0.280 HD
HETATM    7  C   UNL     1      -1.460   5.035 -31.413  1.00  0.00     0.246 C 
HETATM    8  C   UNL     1      -1.754   6.701 -33.869  1.00  0.00     0.033 C 
HETATM    9  C   UNL     1      -1.481   5.187 -33.903  1.00  0.00     0.236 C 
ENDROOT
BRANCH   4  10
HETATM   10  C   UNL     1      -4.423   4.047 -31.659  1.00  0.00     0.155 C 
BRANCH  10  11
HETATM   11  N   UNL     1      -3.857   2.749 -31.284  1.00  0.00    -0.365 N 
HETATM   12  H   UNL     1      -3.210   2.781 -30.500  1.00  0.00     0.161 HD
BRANCH  11  13
HETATM   13  C   UNL     1      -4.444   1.521 -31.435  1.00  0.00     0.172 C 
HETATM   14  S   UNL     1      -5.372   0.775 -30.269  1.00  0.00    -0.041 SA
BRANCH  13  15
HETATM   15  N   UNL     1      -4.376   0.979 -32.687  1.00  0.00    -0.333 N 
HETATM   16  H   UNL     1      -3.534   1.213 -33.207  1.00  0.00     0.168 HD
BRANCH  15  17
HETATM   17  C   UNL     1      -5.402   0.371 -33.465  1.00  0.00     0.045 A 
HETATM   18  C   UNL     1      -5.295  -1.003 -33.827  1.00  0.00     0.001 A 
HETATM   19  C   UNL     1      -6.307  -1.567 -34.648  1.00  0.00    -0.024 A 
HETATM   20  C   UNL     1      -4.255  -1.864 -33.395  1.00  0.00     0.014 A 
HETATM   21  C   UNL     1      -6.245  -2.919 -35.020  1.00  0.00     0.012 A 
HETATM   22  C   UNL     1      -7.375  -0.776 -35.092  1.00  0.00     0.012 A 
HETATM   23  C   UNL     1      -5.202  -3.735 -34.589  1.00  0.00     0.001 A 
HETATM   24  C   UNL     1      -4.209  -3.209 -33.774  1.00  0.00     0.001 A 
HETATM   25  C   UNL     1      -7.456   0.570 -34.750  1.00  0.00     0.003 A 
HETATM   26  C   UNL     1      -6.472   1.141 -33.951  1.00  0.00     0.030 A 
ENDBRANCH  15  17
ENDBRANCH  13  15
ENDBRANCH  11  13
ENDBRANCH  10  11
ENDBRANCH   4  10
BRANCH   1  27
HETATM   27  C   UNL     1      -1.414   7.124 -30.020  1.00  0.00     0.038 C 
HETATM   28  N   UNL     1      -2.392   7.195 -29.056  1.00  0.00    -0.277 N 
HETATM   29  C   UNL     1      -3.806   6.916 -29.111  1.00  0.00     0.179 C 
HETATM   30  N   UNL     1      -1.919   7.563 -27.853  1.00  0.00    -0.172 NA
HETATM   31  C   UNL     1      -0.647   7.923 -28.051  1.00  0.00     0.089 C 
HETATM   32  C   UNL     1      -0.299   7.673 -29.398  1.00  0.00     0.061 C 
BRANCH  31  33
HETATM   33  C   UNL     1       0.204   8.437 -26.972  1.00  0.00    -0.003 A 
HETATM   34  C   UNL     1      -0.322   9.307 -26.003  1.00  0.00     0.053 A 
HETATM   35  C   UNL     1       0.471   9.777 -24.948  1.00  0.00     0.102 A 
HETATM   36  C   UNL     1       1.817   9.372 -24.851  1.00  0.00     0.101 A 
HETATM   37  C   UNL     1       2.349   8.522 -25.823  1.00  0.00     0.040 A 
HETATM   38  C   UNL     1       1.549   8.059 -26.873  1.00  0.00     0.017 A 
BRANCH  35  39
HETATM   39  O   UNL     1       0.025  10.616 -23.956  1.00  0.00    -0.353 OA
HETATM   40  C   UNL     1      -0.991  10.135 -23.089  1.00  0.00     0.210 C 
ENDBRANCH  35  39
BRANCH  36  41
HETATM   41  O   UNL     1       2.524   9.866 -23.784  1.00  0.00    -0.353 OA
HETATM   42  C   UNL     1       3.938   9.740 -23.810  1.00  0.00     0.210 C 
ENDBRANCH  36  41
ENDBRANCH  31  33
ENDBRANCH   1  27
TORSDOF 9
ENDMDL
MODEL 5
REMARK VINA RESULT:      -9.2      3.557      5.172
REMARK  9 active torsions:
REMARK  status: ('A' for Active; 'I' for Inactive)
REMARK    1  A    between atoms: C_4  and  C_5 
REMARK    2  A    between atoms: C_7  and  O_8 
REMARK    3  A    between atoms: C_10  and  O_11 
REMARK    4  A    between atoms: C_16  and  C_17 
REMARK    5  A    between atoms: C_20  and  C_21 
REMARK    6  A    between atoms: C_21  and  N_22 
REMARK    7  A    between atoms: N_22  and  C_23 
REMARK    8  A    between atoms: C_23  and  N_24 
REMARK    9  A    between atoms: N_24  and  C_25 
ROOT
HETATM    1  C   UNL     1      -6.551   4.636 -31.899  1.00  0.00     0.067 C 
HETATM    2  C   UNL     1      -6.221   6.043 -32.446  1.00  0.00     0.001 C 
HETATM    3  C   UNL     1      -5.171   6.785 -31.586  1.00  0.00     0.040 C 
HETATM    4  C   UNL     1      -5.660   6.972 -30.138  1.00  0.00     0.206 C 
HETATM    5  N   UNL     1      -6.953   6.182 -30.000  1.00  0.00    -0.065 N 
HETATM    6  H   UNL     1      -7.224   6.239 -29.004  1.00  0.00     0.280 HD
HETATM    7  C   UNL     1      -6.776   4.725 -30.372  1.00  0.00     0.246 C 
HETATM    8  C   UNL     1      -7.531   6.870 -32.302  1.00  0.00     0.033 C 
HETATM    9  C   UNL     1      -8.036   6.825 -30.849  1.00  0.00     0.236 C 
ENDROOT
BRANCH   4  10
HETATM   10  C   UNL     1      -4.601   6.573 -29.081  1.00  0.00     0.155 C 
BRANCH  10  11
HETATM   11  N   UNL     1      -3.929   7.664 -28.370  1.00  0.00    -0.365 N 
HETATM   12  H   UNL     1      -3.338   7.364 -27.599  1.00  0.00     0.161 HD
BRANCH  11  13
HETATM   13  C   UNL     1      -3.548   8.873 -28.890  1.00  0.00     0.172 C 
HETATM   14  S   UNL     1      -4.414  10.285 -28.712  1.00  0.00    -0.041 SA
BRANCH  13  15
HETATM   15  N   UNL     1      -2.300   8.915 -29.445  1.00  0.00    -0.333 N 
HETATM   16  H   UNL     1      -1.760   9.745 -29.216  1.00  0.00     0.168 HD
BRANCH  15  17
HETATM   17  C   UNL     1      -1.750   8.123 -30.493  1.00  0.00     0.045 A 
HETATM   18  C   UNL     1      -0.831   7.080 -30.182  1.00  0.00     0.001 A 
HETATM   19  C   UNL     1      -0.258   6.342 -31.252  1.00  0.00    -0.024 A 
HETATM   20  C   UNL     1      -0.466   6.702 -28.866  1.00  0.00     0.014 A 
HETATM   21  C   UNL     1       0.645   5.299 -30.990  1.00  0.00     0.012 A 
HETATM   22  C   UNL     1      -0.593   6.649 -32.577  1.00  0.00     0.012 A 
HETATM   23  C   UNL     1       0.992   4.962 -29.684  1.00  0.00     0.001 A 
HETATM   24  C   UNL     1       0.434   5.661 -28.622  1.00  0.00     0.001 A 
HETATM   25  C   UNL     1      -1.475   7.685 -32.868  1.00  0.00     0.003 A 
HETATM   26  C   UNL     1      -2.042   8.421 -31.834  1.00  0.00     0.030 A 
ENDBRANCH  15  17
ENDBRANCH  13  15
ENDBRANCH  11  13
ENDBRANCH  10  11
ENDBRANCH   4  10
BRANCH   1  27
HETATM   27  C   UNL     1      -5.727   3.427 -32.249  1.00  0.00     0.038 C 
HETATM   28  N   UNL     1      -4.410   3.110 -32.016  1.00  0.00    -0.277 N 
HETATM   29  C   UNL     1      -3.319   3.897 -31.493  1.00  0.00     0.179 C 
HETATM   30  N   UNL     1      -4.117   1.831 -32.306  1.00  0.00    -0.172 NA
HETATM   31  C   UNL     1      -5.199   1.334 -32.914  1.00  0.00     0.089 C 
HETATM   32  C   UNL     1      -6.224   2.308 -32.907  1.00  0.00     0.061 C 
BRANCH  31  33
HETATM   33  C   UNL     1      -5.251  -0.038 -33.432  1.00  0.00    -0.003 A 
HETATM   34  C   UNL     1      -4.299  -0.988 -33.031  1.00  0.00     0.053 A 
HETATM   35  C   UNL     1      -4.360  -2.310 -33.490  1.00  0.00     0.102 A 
HETATM   36  C   UNL     1      -5.391  -2.698 -34.368  1.00  0.00     0.101 A 
HETATM   37  C   UNL     1      -6.329  -1.752 -34.784  1.00  0.00     0.040 A 
HETATM   38  C   UNL     1      -6.260  -0.434 -34.320  1.00  0.00     0.017 A 
BRANCH  35  39
HETATM   39  O   UNL     1      -3.474  -3.298 -33.131  1.00  0.00    -0.353 OA
HETATM   40  C   UNL     1      -2.968  -3.283 -31.805  1.00  0.00     0.210 C 
ENDBRANCH  35  39
BRANCH  36  41
HETATM   41  O   UNL     1      -5.388  -4.012 -34.765  1.00  0.00    -0.353 OA
HETATM   42  C   UNL     1      -6.575  -4.532 -35.346  1.00  0.00     0.210 C 
ENDBRANCH  36  41
ENDBRANCH  31  33
ENDBRANCH   1  27
TORSDOF 9
ENDMDL
MODEL 6
REMARK VINA RESULT:      -9.0      2.343      3.439
REMARK  9 active torsions:
REMARK  status: ('A' for Active; 'I' for Inactive)
REMARK    1  A    between atoms: C_4  and  C_5 
REMARK    2  A    between atoms: C_7  and  O_8 
REMARK    3  A    between atoms: C_10  and  O_11 
REMARK    4  A    between atoms: C_16  and  C_17 
REMARK    5  A    between atoms: C_20  and  C_21 
REMARK    6  A    between atoms: C_21  and  N_22 
REMARK    7  A    between atoms: N_22  and  C_23 
REMARK    8  A    between atoms: C_23  and  N_24 
REMARK    9  A    between atoms: N_24  and  C_25 
ROOT
HETATM    1  C   UNL     1      -9.152   3.356 -31.998  1.00  0.00     0.067 C 
HETATM    2  C   UNL     1      -8.676   4.716 -32.553  1.00  0.00     0.001 C 
HETATM    3  C   UNL     1      -7.237   5.070 -32.110  1.00  0.00     0.040 C 
HETATM    4  C   UNL     1      -7.124   5.151 -30.576  1.00  0.00     0.206 C 
HETATM    5  N   UNL     1      -8.447   4.661 -30.007  1.00  0.00    -0.065 N 
HETATM    6  H   UNL     1      -8.329   4.632 -28.980  1.00  0.00     0.280 HD
HETATM    7  C   UNL     1      -8.800   3.271 -30.495  1.00  0.00     0.246 C 
HETATM    8  C   UNL     1      -9.587   5.788 -31.888  1.00  0.00     0.033 C 
HETATM    9  C   UNL     1      -9.548   5.647 -30.356  1.00  0.00     0.236 C 
ENDROOT
BRANCH   4  10
HETATM   10  C   UNL     1      -5.908   4.374 -30.013  1.00  0.00     0.155 C 
BRANCH  10  11
HETATM   11  N   UNL     1      -4.848   5.166 -29.386  1.00  0.00    -0.365 N 
HETATM   12  H   UNL     1      -3.938   4.711 -29.362  1.00  0.00     0.161 HD
BRANCH  11  13
HETATM   13  C   UNL     1      -4.757   6.532 -29.343  1.00  0.00     0.172 C 
HETATM   14  S   UNL     1      -5.080   7.452 -27.992  1.00  0.00    -0.041 SA
BRANCH  13  15
HETATM   15  N   UNL     1      -4.214   7.127 -30.447  1.00  0.00    -0.333 N 
HETATM   16  H   UNL     1      -4.885   7.589 -31.055  1.00  0.00     0.168 HD
BRANCH  15  17
HETATM   17  C   UNL     1      -2.916   6.972 -31.009  1.00  0.00     0.045 A 
HETATM   18  C   UNL     1      -2.768   6.365 -32.290  1.00  0.00     0.001 A 
HETATM   19  C   UNL     1      -1.458   6.174 -32.802  1.00  0.00    -0.024 A 
HETATM   20  C   UNL     1      -3.850   5.959 -33.111  1.00  0.00     0.014 A 
HETATM   21  C   UNL     1      -1.268   5.588 -34.064  1.00  0.00     0.012 A 
HETATM   22  C   UNL     1      -0.344   6.573 -32.051  1.00  0.00     0.012 A 
HETATM   23  C   UNL     1      -2.354   5.189 -34.839  1.00  0.00     0.001 A 
HETATM   24  C   UNL     1      -3.644   5.377 -34.365  1.00  0.00     0.001 A 
HETATM   25  C   UNL     1      -0.501   7.144 -30.792  1.00  0.00     0.003 A 
HETATM   26  C   UNL     1      -1.777   7.334 -30.272  1.00  0.00     0.030 A 
ENDBRANCH  15  17
ENDBRANCH  13  15
ENDBRANCH  11  13
ENDBRANCH  10  11
ENDBRANCH   4  10
BRANCH   1  27
HETATM   27  C   UNL     1      -8.850   2.057 -32.692  1.00  0.00     0.038 C 
HETATM   28  N   UNL     1      -9.545   1.330 -33.630  1.00  0.00    -0.277 N 
HETATM   29  C   UNL     1     -10.880   1.483 -34.156  1.00  0.00     0.179 C 
HETATM   30  N   UNL     1      -8.824   0.325 -34.156  1.00  0.00    -0.172 NA
HETATM   31  C   UNL     1      -7.702   0.258 -33.433  1.00  0.00     0.089 C 
HETATM   32  C   UNL     1      -7.688   1.319 -32.499  1.00  0.00     0.061 C 
BRANCH  31  33
HETATM   33  C   UNL     1      -6.670  -0.758 -33.671  1.00  0.00    -0.003 A 
HETATM   34  C   UNL     1      -5.479  -0.752 -32.928  1.00  0.00     0.053 A 
HETATM   35  C   UNL     1      -4.502  -1.738 -33.122  1.00  0.00     0.102 A 
HETATM   36  C   UNL     1      -4.714  -2.754 -34.075  1.00  0.00     0.101 A 
HETATM   37  C   UNL     1      -5.889  -2.753 -34.828  1.00  0.00     0.040 A 
HETATM   38  C   UNL     1      -6.858  -1.764 -34.628  1.00  0.00     0.017 A 
BRANCH  35  39
HETATM   39  O   UNL     1      -3.321  -1.807 -32.425  1.00  0.00    -0.353 OA
HETATM   40  C   UNL     1      -2.904  -0.651 -31.712  1.00  0.00     0.210 C 
ENDBRANCH  35  39
BRANCH  36  41
HETATM   41  O   UNL     1      -3.716  -3.688 -34.197  1.00  0.00    -0.353 OA
HETATM   42  C   UNL     1      -4.006  -5.022 -33.806  1.00  0.00     0.210 C 
ENDBRANCH  36  41
ENDBRANCH  31  33
ENDBRANCH   1  27
TORSDOF 9
ENDMDL
MODEL 7
REMARK VINA RESULT:      -8.6      2.373      3.520
REMARK  9 active torsions:
REMARK  status: ('A' for Active; 'I' for Inactive)
REMARK    1  A    between atoms: C_4  and  C_5 
REMARK    2  A    between atoms: C_7  and  O_8 
REMARK    3  A    between atoms: C_10  and  O_11 
REMARK    4  A    between atoms: C_16  and  C_17 
REMARK    5  A    between atoms: C_20  and  C_21 
REMARK    6  A    between atoms: C_21  and  N_22 
REMARK    7  A    between atoms: N_22  and  C_23 
REMARK    8  A    between atoms: C_23  and  N_24 
REMARK    9  A    between atoms: N_24  and  C_25 
ROOT
HETATM    1  C   UNL     1      -9.878   3.470 -31.937  1.00  0.00     0.067 C 
HETATM    2  C   UNL     1      -9.373   4.796 -32.548  1.00  0.00     0.001 C 
HETATM    3  C   UNL     1      -8.016   5.246 -31.957  1.00  0.00     0.040 C 
HETATM    4  C   UNL     1      -8.110   5.464 -30.436  1.00  0.00     0.206 C 
HETATM    5  N   UNL     1      -9.482   4.971 -30.000  1.00  0.00    -0.065 N 
HETATM    6  H   UNL     1      -9.500   5.036 -28.968  1.00  0.00     0.280 HD
HETATM    7  C   UNL     1      -9.726   3.531 -30.400  1.00  0.00     0.246 C 
HETATM    8  C   UNL     1     -10.396   5.882 -32.107  1.00  0.00     0.033 C 
HETATM    9  C   UNL     1     -10.555   5.876 -30.576  1.00  0.00     0.236 C 
ENDROOT
BRANCH   4  10
HETATM   10  C   UNL     1      -6.956   4.789 -29.652  1.00  0.00     0.155 C 
BRANCH  10  11
HETATM   11  N   UNL     1      -5.593   5.208 -29.988  1.00  0.00    -0.365 N 
HETATM   12  H   UNL     1      -5.262   4.879 -30.892  1.00  0.00     0.161 HD
BRANCH  11  13
HETATM   13  C   UNL     1      -4.957   6.348 -29.573  1.00  0.00     0.172 C 
HETATM   14  S   UNL     1      -4.712   6.757 -27.977  1.00  0.00    -0.041 SA
BRANCH  13  15
HETATM   15  N   UNL     1      -4.361   7.087 -30.556  1.00  0.00    -0.333 N 
HETATM   16  H   UNL     1      -4.993   7.684 -31.083  1.00  0.00     0.168 HD
BRANCH  15  17
HETATM   17  C   UNL     1      -3.063   6.953 -31.125  1.00  0.00     0.045 A 
HETATM   18  C   UNL     1      -2.912   6.340 -32.402  1.00  0.00     0.001 A 
HETATM   19  C   UNL     1      -1.601   6.172 -32.922  1.00  0.00    -0.024 A 
HETATM   20  C   UNL     1      -3.991   5.908 -33.214  1.00  0.00     0.014 A 
HETATM   21  C   UNL     1      -1.407   5.581 -34.180  1.00  0.00     0.012 A 
HETATM   22  C   UNL     1      -0.491   6.597 -32.180  1.00  0.00     0.012 A 
HETATM   23  C   UNL     1      -2.490   5.155 -34.947  1.00  0.00     0.001 A 
HETATM   24  C   UNL     1      -3.781   5.321 -34.466  1.00  0.00     0.001 A 
HETATM   25  C   UNL     1      -0.650   7.174 -30.925  1.00  0.00     0.003 A 
HETATM   26  C   UNL     1      -1.927   7.343 -30.398  1.00  0.00     0.030 A 
ENDBRANCH  15  17
ENDBRANCH  13  15
ENDBRANCH  11  13
ENDBRANCH  10  11
ENDBRANCH   4  10
BRANCH   1  27
HETATM   27  C   UNL     1      -9.448   2.129 -32.465  1.00  0.00     0.038 C 
HETATM   28  N   UNL     1     -10.092   1.195 -33.242  1.00  0.00    -0.277 N 
HETATM   29  C   UNL     1     -11.461   1.108 -33.688  1.00  0.00     0.179 C 
HETATM   30  N   UNL     1      -9.277   0.217 -33.674  1.00  0.00    -0.172 NA
HETATM   31  C   UNL     1      -8.118   0.392 -33.030  1.00  0.00     0.089 C 
HETATM   32  C   UNL     1      -8.192   1.573 -32.255  1.00  0.00     0.061 C 
BRANCH  31  33
HETATM   33  C   UNL     1      -6.979  -0.516 -33.198  1.00  0.00    -0.003 A 
HETATM   34  C   UNL     1      -6.982  -1.483 -34.217  1.00  0.00     0.053 A 
HETATM   35  C   UNL     1      -5.884  -2.331 -34.410  1.00  0.00     0.102 A 
HETATM   36  C   UNL     1      -4.756  -2.217 -33.574  1.00  0.00     0.101 A 
HETATM   37  C   UNL     1      -4.757  -1.270 -32.548  1.00  0.00     0.040 A 
HETATM   38  C   UNL     1      -5.858  -0.427 -32.363  1.00  0.00     0.017 A 
BRANCH  35  39
HETATM   39  O   UNL     1      -5.808  -3.289 -35.392  1.00  0.00    -0.353 OA
HETATM   40  C   UNL     1      -6.579  -4.470 -35.227  1.00  0.00     0.210 C 
ENDBRANCH  35  39
BRANCH  36  41
HETATM   41  O   UNL     1      -3.718  -3.077 -33.834  1.00  0.00    -0.353 OA
HETATM   42  C   UNL     1      -3.386  -4.034 -32.839  1.00  0.00     0.210 C 
ENDBRANCH  36  41
ENDBRANCH  31  33
ENDBRANCH   1  27
TORSDOF 9
ENDMDL
MODEL 8
REMARK VINA RESULT:      -8.6      3.730      7.757
REMARK  9 active torsions:
REMARK  status: ('A' for Active; 'I' for Inactive)
REMARK    1  A    between atoms: C_4  and  C_5 
REMARK    2  A    between atoms: C_7  and  O_8 
REMARK    3  A    between atoms: C_10  and  O_11 
REMARK    4  A    between atoms: C_16  and  C_17 
REMARK    5  A    between atoms: C_20  and  C_21 
REMARK    6  A    between atoms: C_21  and  N_22 
REMARK    7  A    between atoms: N_22  and  C_23 
REMARK    8  A    between atoms: C_23  and  N_24 
REMARK    9  A    between atoms: N_24  and  C_25 
ROOT
HETATM    1  C   UNL     1      -7.470   5.475 -30.417  1.00  0.00     0.067 C 
HETATM    2  C   UNL     1      -6.522   6.629 -30.814  1.00  0.00     0.001 C 
HETATM    3  C   UNL     1      -5.308   6.144 -31.642  1.00  0.00     0.040 C 
HETATM    4  C   UNL     1      -4.463   5.123 -30.858  1.00  0.00     0.206 C 
HETATM    5  N   UNL     1      -5.232   4.794 -29.586  1.00  0.00    -0.065 N 
HETATM    6  H   UNL     1      -4.703   4.042 -29.113  1.00  0.00     0.280 HD
HETATM    7  C   UNL     1      -6.632   4.294 -29.877  1.00  0.00     0.246 C 
HETATM    8  C   UNL     1      -5.924   7.164 -29.481  1.00  0.00     0.033 C 
HETATM    9  C   UNL     1      -5.276   6.016 -28.687  1.00  0.00     0.236 C 
ENDROOT
BRANCH   4  10
HETATM   10  C   UNL     1      -4.110   3.862 -31.685  1.00  0.00     0.155 C 
BRANCH  10  11
HETATM   11  N   UNL     1      -3.846   2.631 -30.936  1.00  0.00    -0.365 N 
HETATM   12  H   UNL     1      -3.523   2.777 -29.983  1.00  0.00     0.161 HD
BRANCH  11  13
HETATM   13  C   UNL     1      -4.458   1.417 -31.107  1.00  0.00     0.172 C 
HETATM   14  S   UNL     1      -5.480   0.717 -29.993  1.00  0.00    -0.041 SA
BRANCH  13  15
HETATM   15  N   UNL     1      -4.324   0.852 -32.344  1.00  0.00    -0.333 N 
HETATM   16  H   UNL     1      -3.413   0.983 -32.775  1.00  0.00     0.168 HD
BRANCH  15  17
HETATM   17  C   UNL     1      -5.327   0.351 -33.221  1.00  0.00     0.045 A 
HETATM   18  C   UNL     1      -5.248  -0.991 -33.693  1.00  0.00     0.001 A 
HETATM   19  C   UNL     1      -6.233  -1.446 -34.610  1.00  0.00    -0.024 A 
HETATM   20  C   UNL     1      -4.261  -1.924 -33.287  1.00  0.00     0.014 A 
HETATM   21  C   UNL     1      -6.197  -2.763 -35.093  1.00  0.00     0.012 A 
HETATM   22  C   UNL     1      -7.249  -0.581 -35.036  1.00  0.00     0.012 A 
HETATM   23  C   UNL     1      -5.205  -3.651 -34.682  1.00  0.00     0.001 A 
HETATM   24  C   UNL     1      -4.239  -3.233 -33.777  1.00  0.00     0.001 A 
HETATM   25  C   UNL     1      -7.303   0.734 -34.585  1.00  0.00     0.003 A 
HETATM   26  C   UNL     1      -6.344   1.198 -33.691  1.00  0.00     0.030 A 
ENDBRANCH  15  17
ENDBRANCH  13  15
ENDBRANCH  11  13
ENDBRANCH  10  11
ENDBRANCH   4  10
BRANCH   1  27
HETATM   27  C   UNL     1      -8.561   4.986 -31.328  1.00  0.00     0.038 C 
HETATM   28  N   UNL     1      -8.563   4.631 -32.656  1.00  0.00    -0.277 N 
HETATM   29  C   UNL     1      -7.552   4.757 -33.678  1.00  0.00     0.179 C 
HETATM   30  N   UNL     1      -9.707   4.038 -33.041  1.00  0.00    -0.172 NA
HETATM   31  C   UNL     1     -10.551   4.164 -32.012  1.00  0.00     0.089 C 
HETATM   32  C   UNL     1      -9.873   4.762 -30.926  1.00  0.00     0.061 C 
BRANCH  31  33
HETATM   33  C   UNL     1     -11.935   3.681 -32.066  1.00  0.00    -0.003 A 
HETATM   34  C   UNL     1     -12.332   2.762 -33.051  1.00  0.00     0.053 A 
HETATM   35  C   UNL     1     -13.642   2.266 -33.090  1.00  0.00     0.102 A 
HETATM   36  C   UNL     1     -14.579   2.690 -32.127  1.00  0.00     0.101 A 
HETATM   37  C   UNL     1     -14.193   3.617 -31.157  1.00  0.00     0.040 A 
HETATM   38  C   UNL     1     -12.883   4.107 -31.127  1.00  0.00     0.017 A 
BRANCH  35  39
HETATM   39  O   UNL     1     -14.099   1.356 -34.012  1.00  0.00    -0.353 OA
HETATM   40  C   UNL     1     -13.596   0.030 -33.941  1.00  0.00     0.210 C 
ENDBRANCH  35  39
BRANCH  36  41
HETATM   41  O   UNL     1     -15.837   2.150 -32.226  1.00  0.00    -0.353 OA
HETATM   42  C   UNL     1     -16.946   3.032 -32.125  1.00  0.00     0.210 C 
ENDBRANCH  36  41
ENDBRANCH  31  33
ENDBRANCH   1  27
TORSDOF 9
ENDMDL
MODEL 9
REMARK VINA RESULT:      -8.6      2.292      5.392
REMARK  9 active torsions:
REMARK  status: ('A' for Active; 'I' for Inactive)
REMARK    1  A    between atoms: C_4  and  C_5 
REMARK    2  A    between atoms: C_7  and  O_8 
REMARK    3  A    between atoms: C_10  and  O_11 
REMARK    4  A    between atoms: C_16  and  C_17 
REMARK    5  A    between atoms: C_20  and  C_21 
REMARK    6  A    between atoms: C_21  and  N_22 
REMARK    7  A    between atoms: N_22  and  C_23 
REMARK    8  A    between atoms: C_23  and  N_24 
REMARK    9  A    between atoms: N_24  and  C_25 
ROOT
HETATM    1  C   UNL     1      -4.130   4.763 -32.413  1.00  0.00     0.067 C 
HETATM    2  C   UNL     1      -3.960   4.985 -30.894  1.00  0.00     0.001 C 
HETATM    3  C   UNL     1      -5.106   5.826 -30.282  1.00  0.00     0.040 C 
HETATM    4  C   UNL     1      -5.189   7.220 -30.931  1.00  0.00     0.206 C 
HETATM    5  N   UNL     1      -4.217   7.224 -32.102  1.00  0.00    -0.065 N 
HETATM    6  H   UNL     1      -4.347   8.129 -32.584  1.00  0.00     0.280 HD
HETATM    7  C   UNL     1      -4.500   6.106 -33.083  1.00  0.00     0.246 C 
HETATM    8  C   UNL     1      -2.680   5.856 -30.734  1.00  0.00     0.033 C 
HETATM    9  C   UNL     1      -2.793   7.134 -31.583  1.00  0.00     0.236 C 
ENDROOT
BRANCH   4  10
HETATM   10  C   UNL     1      -6.628   7.613 -31.347  1.00  0.00     0.155 C 
BRANCH  10  11
HETATM   11  N   UNL     1      -7.600   6.525 -31.478  1.00  0.00    -0.365 N 
HETATM   12  H   UNL     1      -7.269   5.725 -32.012  1.00  0.00     0.161 HD
BRANCH  11  13
HETATM   13  C   UNL     1      -8.592   6.197 -30.592  1.00  0.00     0.172 C 
HETATM   14  S   UNL     1      -9.891   7.176 -30.233  1.00  0.00    -0.041 SA
BRANCH  13  15
HETATM   15  N   UNL     1      -8.562   4.917 -30.114  1.00  0.00    -0.333 N 
HETATM   16  H   UNL     1      -8.082   4.806 -29.224  1.00  0.00     0.168 HD
BRANCH  15  17
HETATM   17  C   UNL     1      -8.855   3.696 -30.784  1.00  0.00     0.045 A 
HETATM   18  C   UNL     1      -7.993   2.574 -30.619  1.00  0.00     0.001 A 
HETATM   19  C   UNL     1      -8.280   1.386 -31.342  1.00  0.00    -0.024 A 
HETATM   20  C   UNL     1      -6.871   2.549 -29.752  1.00  0.00     0.014 A 
HETATM   21  C   UNL     1      -7.461   0.255 -31.202  1.00  0.00     0.012 A 
HETATM   22  C   UNL     1      -9.386   1.336 -32.200  1.00  0.00     0.012 A 
HETATM   23  C   UNL     1      -6.359   0.269 -30.350  1.00  0.00     0.001 A 
HETATM   24  C   UNL     1      -6.065   1.414 -29.623  1.00  0.00     0.001 A 
HETATM   25  C   UNL     1     -10.209   2.445 -32.370  1.00  0.00     0.003 A 
HETATM   26  C   UNL     1      -9.939   3.619 -31.674  1.00  0.00     0.030 A 
ENDBRANCH  15  17
ENDBRANCH  13  15
ENDBRANCH  11  13
ENDBRANCH  10  11
ENDBRANCH   4  10
BRANCH   1  27
HETATM   27  C   UNL     1      -4.960   3.640 -32.970  1.00  0.00     0.038 C 
HETATM   28  N   UNL     1      -6.150   3.627 -33.659  1.00  0.00    -0.277 N 
HETATM   29  C   UNL     1      -7.095   4.678 -33.947  1.00  0.00     0.179 C 
HETATM   30  N   UNL     1      -6.450   2.419 -34.168  1.00  0.00    -0.172 NA
HETATM   31  C   UNL     1      -5.550   1.571 -33.661  1.00  0.00     0.089 C 
HETATM   32  C   UNL     1      -4.608   2.297 -32.897  1.00  0.00     0.061 C 
BRANCH  31  33
HETATM   33  C   UNL     1      -5.576   0.132 -33.946  1.00  0.00    -0.003 A 
HETATM   34  C   UNL     1      -4.570  -0.711 -33.448  1.00  0.00     0.053 A 
HETATM   35  C   UNL     1      -4.603  -2.092 -33.683  1.00  0.00     0.102 A 
HETATM   36  C   UNL     1      -5.661  -2.649 -34.429  1.00  0.00     0.101 A 
HETATM   37  C   UNL     1      -6.653  -1.811 -34.942  1.00  0.00     0.040 A 
HETATM   38  C   UNL     1      -6.610  -0.433 -34.702  1.00  0.00     0.017 A 
BRANCH  35  39
HETATM   39  O   UNL     1      -3.665  -2.981 -33.217  1.00  0.00    -0.353 OA
HETATM   40  C   UNL     1      -3.104  -2.740 -31.935  1.00  0.00     0.210 C 
ENDBRANCH  35  39
BRANCH  36  41
HETATM   41  O   UNL     1      -5.627  -4.009 -34.607  1.00  0.00    -0.353 OA
HETATM   42  C   UNL     1      -6.682  -4.607 -35.347  1.00  0.00     0.210 C 
ENDBRANCH  36  41
ENDBRANCH  31  33
ENDBRANCH   1  27
TORSDOF 9
ENDMDL
MODEL 10
REMARK VINA RESULT:      -8.6      2.584      5.711
REMARK  9 active torsions:
REMARK  status: ('A' for Active; 'I' for Inactive)
REMARK    1  A    between atoms: C_4  and  C_5 
REMARK    2  A    between atoms: C_7  and  O_8 
REMARK    3  A    between atoms: C_10  and  O_11 
REMARK    4  A    between atoms: C_16  and  C_17 
REMARK    5  A    between atoms: C_20  and  C_21 
REMARK    6  A    between atoms: C_21  and  N_22 
REMARK    7  A    between atoms: N_22  and  C_23 
REMARK    8  A    between atoms: C_23  and  N_24 
REMARK    9  A    between atoms: N_24  and  C_25 
ROOT
HETATM    1  C   UNL     1     -10.602   4.747 -33.976  1.00  0.00     0.067 C 
HETATM    2  C   UNL     1     -11.933   4.314 -33.322  1.00  0.00     0.001 C 
HETATM    3  C   UNL     1     -11.890   2.863 -32.786  1.00  0.00     0.040 C 
HETATM    4  C   UNL     1     -11.598   1.855 -33.912  1.00  0.00     0.206 C 
HETATM    5  N   UNL     1     -11.260   2.665 -35.156  1.00  0.00    -0.065 N 
HETATM    6  H   UNL     1     -10.978   1.982 -35.879  1.00  0.00     0.280 HD
HETATM    7  C   UNL     1     -10.113   3.625 -34.920  1.00  0.00     0.246 C 
HETATM    8  C   UNL     1     -12.984   4.297 -34.470  1.00  0.00     0.033 C 
HETATM    9  C   UNL     1     -12.495   3.410 -35.629  1.00  0.00     0.236 C 
ENDROOT
BRANCH   4  10
HETATM   10  C   UNL     1     -10.491   0.835 -33.545  1.00  0.00     0.155 C 
BRANCH  10  11
HETATM   11  N   UNL     1      -9.788   1.048 -32.277  1.00  0.00    -0.365 N 
HETATM   12  H   UNL     1      -9.975   0.343 -31.568  1.00  0.00     0.161 HD
BRANCH  11  13
HETATM   13  C   UNL     1      -8.581   1.670 -32.100  1.00  0.00     0.172 C 
HETATM   14  S   UNL     1      -8.144   2.495 -30.720  1.00  0.00    -0.041 SA
BRANCH  13  15
HETATM   15  N   UNL     1      -7.647   1.443 -33.071  1.00  0.00    -0.333 N 
HETATM   16  H   UNL     1      -7.636   2.129 -33.821  1.00  0.00     0.168 HD
BRANCH  15  17
HETATM   17  C   UNL     1      -6.883   0.270 -33.333  1.00  0.00     0.045 A 
HETATM   18  C   UNL     1      -5.592   0.123 -32.751  1.00  0.00     0.001 A 
HETATM   19  C   UNL     1      -4.831  -1.033 -33.073  1.00  0.00    -0.024 A 
HETATM   20  C   UNL     1      -5.016   1.044 -31.840  1.00  0.00     0.014 A 
HETATM   21  C   UNL     1      -3.557  -1.222 -32.514  1.00  0.00     0.012 A 
HETATM   22  C   UNL     1      -5.350  -1.994 -33.950  1.00  0.00     0.012 A 
HETATM   23  C   UNL     1      -3.016  -0.290 -31.631  1.00  0.00     0.001 A 
HETATM   24  C   UNL     1      -3.746   0.841 -31.291  1.00  0.00     0.001 A 
HETATM   25  C   UNL     1      -6.604  -1.828 -34.529  1.00  0.00     0.003 A 
HETATM   26  C   UNL     1      -7.360  -0.700 -34.230  1.00  0.00     0.030 A 
ENDBRANCH  15  17
ENDBRANCH  13  15
ENDBRANCH  11  13
ENDBRANCH  10  11
ENDBRANCH   4  10
BRANCH   1  27
HETATM   27  C   UNL     1      -9.461   5.308 -33.174  1.00  0.00     0.038 C 
HETATM   28  N   UNL     1      -9.423   6.025 -32.002  1.00  0.00    -0.277 N 
HETATM   29  C   UNL     1     -10.475   6.625 -31.218  1.00  0.00     0.179 C 
HETATM   30  N   UNL     1      -8.181   6.152 -31.503  1.00  0.00    -0.172 NA
HETATM   31  C   UNL     1      -7.356   5.678 -32.442  1.00  0.00     0.089 C 
HETATM   32  C   UNL     1      -8.121   5.151 -33.508  1.00  0.00     0.061 C 
BRANCH  31  33
HETATM   33  C   UNL     1      -5.897   5.690 -32.288  1.00  0.00    -0.003 A 
HETATM   34  C   UNL     1      -5.066   5.954 -33.389  1.00  0.00     0.053 A 
HETATM   35  C   UNL     1      -3.673   6.004 -33.246  1.00  0.00     0.102 A 
HETATM   36  C   UNL     1      -3.092   5.790 -31.981  1.00  0.00     0.101 A 
HETATM   37  C   UNL     1      -3.913   5.509 -30.888  1.00  0.00     0.040 A 
HETATM   38  C   UNL     1      -5.303   5.461 -31.040  1.00  0.00     0.017 A 
BRANCH  35  39
HETATM   39  O   UNL     1      -2.798   6.270 -34.272  1.00  0.00    -0.353 OA
HETATM   40  C   UNL     1      -2.273   5.168 -34.997  1.00  0.00     0.210 C 
ENDBRANCH  35  39
BRANCH  36  41
HETATM   41  O   UNL     1      -1.723   5.866 -31.922  1.00  0.00    -0.353 OA
HETATM   42  C   UNL     1      -1.056   5.073 -30.951  1.00  0.00     0.210 C 
ENDBRANCH  36  41
ENDBRANCH  31  33
ENDBRANCH   1  27
TORSDOF 9
ENDMDL
