MODEL 1
REMARK VINA RESULT:      -8.9      0.000      0.000
REMARK  4 active torsions:
REMARK  status: ('A' for Active; 'I' for Inactive)
REMARK    1  A    between atoms: O_2  and  C_3 
REMARK    2  A    between atoms: C_6  and  C_7 
REMARK    3  A    between atoms: C_9  and  N_10 
REMARK       I    between atoms: N_10  and  C_11 
REMARK    4  A    between atoms: C_11  and  C_12 
ROOT
HETATM    1  C   UNL     1      -7.535  -0.092 -33.115  1.00  0.00     0.173 A 
HETATM    2  N   UNL     1      -8.852  -0.187 -33.184  1.00  0.00    -0.041 NA
HETATM    3  C   UNL     1      -9.299   1.029 -32.740  1.00  0.00     0.748 A 
HETATM    4  N   UNL     1      -8.331   1.875 -32.398  1.00  0.00     0.021 NA
HETATM    5  N   UNL     1      -7.233   1.154 -32.638  1.00  0.00    -0.244 N 
HETATM    6  H   UNL     1      -6.326   1.575 -32.483  1.00  0.00     0.191 HD
ENDROOT
BRANCH   3   7
HETATM    7  N   UNL     1     -10.650   1.234 -32.710  1.00  0.00    -0.150 N 
HETATM    8  C   UNL     1     -11.369   1.886 -33.683  1.00  0.00     0.270 C 
HETATM    9  O   UNL     1     -10.919   2.410 -34.697  1.00  0.00    -0.267 OA
HETATM   10  H   UNL     1     -11.077   0.880 -31.871  1.00  0.00     0.188 HD
BRANCH   8  11
HETATM   11  C   UNL     1     -12.847   1.975 -33.457  1.00  0.00     0.035 A 
HETATM   12  C   UNL     1     -13.438   2.965 -32.661  1.00  0.00     0.056 A 
HETATM   13  C   UNL     1     -14.825   2.985 -32.494  1.00  0.00     0.103 A 
HETATM   14  C   UNL     1     -15.626   1.997 -33.077  1.00  0.00     0.102 A 
HETATM   15  O   UNL     1     -15.333   4.004 -31.726  1.00  0.00    -0.346 OA
HETATM   16  O   UNL     1     -16.986   1.938 -32.916  1.00  0.00    -0.346 OA
HETATM   17  C   UNL     1     -15.045   1.011 -33.867  1.00  0.00     0.040 A 
HETATM   18  C   UNL     1     -17.419   2.762 -31.828  1.00  0.00     0.202 C 
HETATM   19  C   UNL     1     -16.751   4.126 -31.894  1.00  0.00     0.202 C 
HETATM   20  C   UNL     1     -13.661   0.998 -34.054  1.00  0.00     0.020 A 
ENDBRANCH   8  11
ENDBRANCH   3   7
BRANCH   1  21
HETATM   21  C   UNL     1      -6.548  -1.094 -33.515  1.00  0.00     0.012 A 
HETATM   22  C   UNL     1      -5.279  -1.087 -32.924  1.00  0.00     0.018 A 
HETATM   23  C   UNL     1      -4.327  -2.057 -33.258  1.00  0.00     0.037 A 
HETATM   24  C   UNL     1      -4.623  -3.051 -34.190  1.00  0.00     0.068 A 
HETATM   25  C   UNL     1      -5.874  -3.053 -34.806  1.00  0.00     0.037 A 
HETATM   26  C   UNL     1      -6.828  -2.082 -34.470  1.00  0.00     0.018 A 
BRANCH  24  27
HETATM   27  O   UNL     1      -3.616  -3.947 -34.416  1.00  0.00    -0.356 OA
HETATM   28  C   UNL     1      -3.366  -4.904 -33.394  1.00  0.00     0.210 C 
ENDBRANCH  24  27
ENDBRANCH   1  21
TORSDOF 4
ENDMDL
MODEL 2
REMARK VINA RESULT:      -8.6      1.476     10.031
REMARK  4 active torsions:
REMARK  status: ('A' for Active; 'I' for Inactive)
REMARK    1  A    between atoms: O_2  and  C_3 
REMARK    2  A    between atoms: C_6  and  C_7 
REMARK    3  A    between atoms: C_9  and  N_10 
REMARK       I    between atoms: N_10  and  C_11 
REMARK    4  A    between atoms: C_11  and  C_12 
ROOT
HETATM    1  C   UNL     1     -11.925   2.045 -33.655  1.00  0.00     0.173 A 
HETATM    2  N   UNL     1     -11.188   0.948 -33.669  1.00  0.00    -0.041 NA
HETATM    3  C   UNL     1      -9.944   1.386 -34.041  1.00  0.00     0.748 A 
HETATM    4  N   UNL     1      -9.869   2.696 -34.259  1.00  0.00     0.021 NA
HETATM    5  N   UNL     1     -11.120   3.091 -34.014  1.00  0.00    -0.244 N 
HETATM    6  H   UNL     1     -11.346   4.075 -34.083  1.00  0.00     0.191 HD
ENDROOT
BRANCH   3   7
HETATM    7  N   UNL     1      -8.947   0.455 -34.132  1.00  0.00    -0.150 N 
HETATM    8  C   UNL     1      -7.658   0.636 -33.690  1.00  0.00     0.270 C 
HETATM    9  O   UNL     1      -7.195   1.655 -33.188  1.00  0.00    -0.267 OA
HETATM   10  H   UNL     1      -9.246  -0.388 -34.591  1.00  0.00     0.188 HD
BRANCH   8  11
HETATM   11  C   UNL     1      -6.734  -0.529 -33.869  1.00  0.00     0.035 A 
HETATM   12  C   UNL     1      -7.175  -1.797 -34.268  1.00  0.00     0.056 A 
HETATM   13  C   UNL     1      -6.255  -2.838 -34.413  1.00  0.00     0.103 A 
HETATM   14  C   UNL     1      -4.902  -2.637 -34.117  1.00  0.00     0.102 A 
HETATM   15  O   UNL     1      -6.757  -4.043 -34.838  1.00  0.00    -0.346 OA
HETATM   16  O   UNL     1      -3.958  -3.628 -34.199  1.00  0.00    -0.346 OA
HETATM   17  C   UNL     1      -4.458  -1.381 -33.719  1.00  0.00     0.040 A 
HETATM   18  C   UNL     1      -4.565  -4.923 -34.268  1.00  0.00     0.202 C 
HETATM   19  C   UNL     1      -5.710  -4.923 -35.268  1.00  0.00     0.202 C 
HETATM   20  C   UNL     1      -5.371  -0.332 -33.592  1.00  0.00     0.020 A 
ENDBRANCH   8  11
ENDBRANCH   3   7
BRANCH   1  21
HETATM   21  C   UNL     1     -13.333   2.166 -33.279  1.00  0.00     0.012 A 
HETATM   22  C   UNL     1     -14.272   1.285 -33.829  1.00  0.00     0.018 A 
HETATM   23  C   UNL     1     -15.620   1.351 -33.458  1.00  0.00     0.037 A 
HETATM   24  C   UNL     1     -16.057   2.300 -32.534  1.00  0.00     0.068 A 
HETATM   25  C   UNL     1     -15.136   3.201 -32.000  1.00  0.00     0.037 A 
HETATM   26  C   UNL     1     -13.785   3.134 -32.370  1.00  0.00     0.018 A 
BRANCH  24  27
HETATM   27  O   UNL     1     -17.392   2.250 -32.245  1.00  0.00    -0.356 OA
HETATM   28  C   UNL     1     -17.982   3.434 -31.724  1.00  0.00     0.210 C 
ENDBRANCH  24  27
ENDBRANCH   1  21
TORSDOF 4
ENDMDL
MODEL 3
REMARK VINA RESULT:      -8.4      7.099     10.452
REMARK  4 active torsions:
REMARK  status: ('A' for Active; 'I' for Inactive)
REMARK    1  A    between atoms: O_2  and  C_3 
REMARK    2  A    between atoms: C_6  and  C_7 
REMARK    3  A    between atoms: C_9  and  N_10 
REMARK       I    between atoms: N_10  and  C_11 
REMARK    4  A    between atoms: C_11  and  C_12 
ROOT
HETATM    1  C   UNL     1      -4.823   1.017 -32.999  1.00  0.00     0.173 A 
HETATM    2  N   UNL     1      -3.810   1.594 -32.377  1.00  0.00    -0.041 NA
HETATM    3  C   UNL     1      -4.233   2.880 -32.169  1.00  0.00     0.748 A 
HETATM    4  N   UNL     1      -5.456   3.133 -32.629  1.00  0.00     0.021 NA
HETATM    5  N   UNL     1      -5.808   1.954 -33.147  1.00  0.00    -0.244 N 
HETATM    6  H   UNL     1      -6.729   1.853 -33.555  1.00  0.00     0.191 HD
ENDROOT
BRANCH   3   7
HETATM    7  N   UNL     1      -3.381   3.730 -31.521  1.00  0.00    -0.150 N 
HETATM    8  C   UNL     1      -2.369   4.440 -32.122  1.00  0.00     0.270 C 
HETATM    9  O   UNL     1      -2.050   4.398 -33.305  1.00  0.00    -0.267 OA
HETATM   10  H   UNL     1      -3.550   3.766 -30.530  1.00  0.00     0.188 HD
BRANCH   8  11
HETATM   11  C   UNL     1      -1.571   5.332 -31.222  1.00  0.00     0.035 A 
HETATM   12  C   UNL     1      -2.132   6.024 -30.140  1.00  0.00     0.056 A 
HETATM   13  C   UNL     1      -1.325   6.840 -29.344  1.00  0.00     0.103 A 
HETATM   14  C   UNL     1       0.030   7.011 -29.646  1.00  0.00     0.102 A 
HETATM   15  O   UNL     1      -1.940   7.459 -28.284  1.00  0.00    -0.346 OA
HETATM   16  O   UNL     1       0.863   7.830 -28.930  1.00  0.00    -0.346 OA
HETATM   17  C   UNL     1       0.593   6.330 -30.719  1.00  0.00     0.040 A 
HETATM   18  C   UNL     1       0.122   8.730 -28.097  1.00  0.00     0.202 C 
HETATM   19  C   UNL     1      -0.980   7.987 -27.359  1.00  0.00     0.202 C 
HETATM   20  C   UNL     1      -0.205   5.496 -31.506  1.00  0.00     0.020 A 
ENDBRANCH   8  11
ENDBRANCH   3   7
BRANCH   1  21
HETATM   21  C   UNL     1      -4.930  -0.380 -33.421  1.00  0.00     0.012 A 
HETATM   22  C   UNL     1      -6.015  -0.780 -34.210  1.00  0.00     0.018 A 
HETATM   23  C   UNL     1      -6.123  -2.101 -34.662  1.00  0.00     0.037 A 
HETATM   24  C   UNL     1      -5.153  -3.046 -34.331  1.00  0.00     0.068 A 
HETATM   25  C   UNL     1      -4.082  -2.666 -33.523  1.00  0.00     0.037 A 
HETATM   26  C   UNL     1      -3.973  -1.343 -33.072  1.00  0.00     0.018 A 
BRANCH  24  27
HETATM   27  O   UNL     1      -5.366  -4.294 -34.847  1.00  0.00    -0.356 OA
HETATM   28  C   UNL     1      -6.644  -4.542 -35.420  1.00  0.00     0.210 C 
ENDBRANCH  24  27
ENDBRANCH   1  21
TORSDOF 4
ENDMDL
MODEL 4
REMARK VINA RESULT:      -8.3      8.065     10.861
REMARK  4 active torsions:
REMARK  status: ('A' for Active; 'I' for Inactive)
REMARK    1  A    between atoms: O_2  and  C_3 
REMARK    2  A    between atoms: C_6  and  C_7 
REMARK    3  A    between atoms: C_9  and  N_10 
REMARK       I    between atoms: N_10  and  C_11 
REMARK    4  A    between atoms: C_11  and  C_12 
ROOT
HETATM    1  C   UNL     1      -3.714   1.618 -32.223  1.00  0.00     0.173 A 
HETATM    2  N   UNL     1      -2.976   2.344 -31.401  1.00  0.00    -0.041 NA
HETATM    3  C   UNL     1      -3.445   3.621 -31.569  1.00  0.00     0.748 A 
HETATM    4  N   UNL     1      -4.435   3.727 -32.451  1.00  0.00     0.021 NA
HETATM    5  N   UNL     1      -4.588   2.462 -32.851  1.00  0.00    -0.244 N 
HETATM    6  H   UNL     1      -5.313   2.245 -33.523  1.00  0.00     0.191 HD
ENDROOT
BRANCH   3   7
HETATM    7  N   UNL     1      -2.867   4.610 -30.823  1.00  0.00    -0.150 N 
HETATM    8  C   UNL     1      -1.625   5.150 -31.059  1.00  0.00     0.270 C 
HETATM    9  O   UNL     1      -0.836   4.812 -31.935  1.00  0.00    -0.267 OA
HETATM   10  H   UNL     1      -3.440   4.893 -30.046  1.00  0.00     0.188 HD
BRANCH   8  11
HETATM   11  C   UNL     1      -1.199   6.244 -30.129  1.00  0.00     0.035 A 
HETATM   12  C   UNL     1      -2.109   7.059 -29.442  1.00  0.00     0.056 A 
HETATM   13  C   UNL     1      -1.637   8.061 -28.591  1.00  0.00     0.103 A 
HETATM   14  C   UNL     1      -0.264   8.290 -28.454  1.00  0.00     0.102 A 
HETATM   15  O   UNL     1      -2.588   8.797 -27.928  1.00  0.00    -0.346 OA
HETATM   16  O   UNL     1       0.259   9.284 -27.668  1.00  0.00    -0.346 OA
HETATM   17  C   UNL     1       0.644   7.486 -29.134  1.00  0.00     0.040 A 
HETATM   18  C   UNL     1      -0.739  10.246 -27.310  1.00  0.00     0.202 C 
HETATM   19  C   UNL     1      -2.011   9.550 -26.854  1.00  0.00     0.202 C 
HETATM   20  C   UNL     1       0.179   6.469 -29.970  1.00  0.00     0.020 A 
ENDBRANCH   8  11
ENDBRANCH   3   7
BRANCH   1  21
HETATM   21  C   UNL     1      -3.670   0.169 -32.414  1.00  0.00     0.012 A 
HETATM   22  C   UNL     1      -2.802  -0.603 -31.633  1.00  0.00     0.018 A 
HETATM   23  C   UNL     1      -2.766  -1.996 -31.766  1.00  0.00     0.037 A 
HETATM   24  C   UNL     1      -3.594  -2.644 -32.683  1.00  0.00     0.068 A 
HETATM   25  C   UNL     1      -4.443  -1.883 -33.485  1.00  0.00     0.037 A 
HETATM   26  C   UNL     1      -4.480  -0.488 -33.351  1.00  0.00     0.018 A 
BRANCH  24  27
HETATM   27  O   UNL     1      -3.475  -4.005 -32.704  1.00  0.00    -0.356 OA
HETATM   28  C   UNL     1      -3.609  -4.643 -33.968  1.00  0.00     0.210 C 
ENDBRANCH  24  27
ENDBRANCH   1  21
TORSDOF 4
ENDMDL
MODEL 5
REMARK VINA RESULT:      -8.1     14.649     18.055
REMARK  4 active torsions:
REMARK  status: ('A' for Active; 'I' for Inactive)
REMARK    1  A    between atoms: O_2  and  C_3 
REMARK    2  A    between atoms: C_6  and  C_7 
REMARK    3  A    between atoms: C_9  and  N_10 
REMARK       I    between atoms: N_10  and  C_11 
REMARK    4  A    between atoms: C_11  and  C_12 
ROOT
HETATM    1  C   UNL     1       0.012   7.376 -28.216  1.00  0.00     0.173 A 
HETATM    2  N   UNL     1       1.149   7.782 -27.678  1.00  0.00    -0.041 NA
HETATM    3  C   UNL     1       1.022   7.469 -26.350  1.00  0.00     0.748 A 
HETATM    4  N   UNL     1      -0.134   6.891 -26.034  1.00  0.00     0.021 NA
HETATM    5  N   UNL     1      -0.753   6.843 -27.216  1.00  0.00    -0.244 N 
HETATM    6  H   UNL     1      -1.669   6.416 -27.272  1.00  0.00     0.191 HD
ENDROOT
BRANCH   3   7
HETATM    7  N   UNL     1       2.071   7.768 -25.526  1.00  0.00    -0.150 N 
HETATM    8  C   UNL     1       2.053   8.731 -24.546  1.00  0.00     0.270 C 
HETATM    9  O   UNL     1       1.125   9.487 -24.282  1.00  0.00    -0.267 OA
HETATM   10  H   UNL     1       2.890   7.221 -25.730  1.00  0.00     0.188 HD
BRANCH   8  11
HETATM   11  C   UNL     1       3.310   8.873 -23.743  1.00  0.00     0.035 A 
HETATM   12  C   UNL     1       3.450   8.357 -22.448  1.00  0.00     0.056 A 
HETATM   13  C   UNL     1       4.652   8.529 -21.759  1.00  0.00     0.103 A 
HETATM   14  C   UNL     1       5.703   9.253 -22.332  1.00  0.00     0.102 A 
HETATM   15  O   UNL     1       4.725   7.968 -20.508  1.00  0.00    -0.346 OA
HETATM   16  O   UNL     1       6.891   9.492 -21.691  1.00  0.00    -0.346 OA
HETATM   17  C   UNL     1       5.570   9.769 -23.617  1.00  0.00     0.040 A 
HETATM   18  C   UNL     1       6.787   9.234 -20.286  1.00  0.00     0.202 C 
HETATM   19  C   UNL     1       6.079   7.912 -20.038  1.00  0.00     0.202 C 
HETATM   20  C   UNL     1       4.377   9.582 -24.318  1.00  0.00     0.020 A 
ENDBRANCH   8  11
ENDBRANCH   3   7
BRANCH   1  21
HETATM   21  C   UNL     1      -0.372   7.423 -29.626  1.00  0.00     0.012 A 
HETATM   22  C   UNL     1      -1.491   8.172 -30.011  1.00  0.00     0.018 A 
HETATM   23  C   UNL     1      -1.859   8.267 -31.358  1.00  0.00     0.037 A 
HETATM   24  C   UNL     1      -1.120   7.615 -32.345  1.00  0.00     0.068 A 
HETATM   25  C   UNL     1      -0.021   6.845 -31.971  1.00  0.00     0.037 A 
HETATM   26  C   UNL     1       0.350   6.750 -30.622  1.00  0.00     0.018 A 
BRANCH  24  27
HETATM   27  O   UNL     1      -1.575   7.802 -33.621  1.00  0.00    -0.356 OA
HETATM   28  C   UNL     1      -2.235   6.702 -34.235  1.00  0.00     0.210 C 
ENDBRANCH  24  27
ENDBRANCH   1  21
TORSDOF 4
ENDMDL
MODEL 6
REMARK VINA RESULT:      -8.1      6.763     10.649
REMARK  4 active torsions:
REMARK  status: ('A' for Active; 'I' for Inactive)
REMARK    1  A    between atoms: O_2  and  C_3 
REMARK    2  A    between atoms: C_6  and  C_7 
REMARK    3  A    between atoms: C_9  and  N_10 
REMARK       I    between atoms: N_10  and  C_11 
REMARK    4  A    between atoms: C_11  and  C_12 
ROOT
HETATM    1  C   UNL     1      -2.470   4.940 -31.411  1.00  0.00     0.173 A 
HETATM    2  N   UNL     1      -2.408   3.634 -31.605  1.00  0.00    -0.041 NA
HETATM    3  C   UNL     1      -3.532   3.350 -32.335  1.00  0.00     0.748 A 
HETATM    4  N   UNL     1      -4.289   4.411 -32.606  1.00  0.00     0.021 NA
HETATM    5  N   UNL     1      -3.607   5.396 -32.018  1.00  0.00    -0.244 N 
HETATM    6  H   UNL     1      -3.956   6.344 -32.090  1.00  0.00     0.191 HD
ENDROOT
BRANCH   3   7
HETATM    7  N   UNL     1      -3.736   2.050 -32.702  1.00  0.00    -0.150 N 
HETATM    8  C   UNL     1      -4.919   1.366 -32.553  1.00  0.00     0.270 C 
HETATM    9  O   UNL     1      -5.950   1.793 -32.043  1.00  0.00    -0.267 OA
HETATM   10  H   UNL     1      -2.908   1.618 -33.075  1.00  0.00     0.188 HD
BRANCH   8  11
HETATM   11  C   UNL     1      -4.926  -0.047 -33.048  1.00  0.00     0.035 A 
HETATM   12  C   UNL     1      -4.040  -1.025 -32.577  1.00  0.00     0.056 A 
HETATM   13  C   UNL     1      -4.104  -2.324 -33.086  1.00  0.00     0.103 A 
HETATM   14  C   UNL     1      -5.016  -2.647 -34.097  1.00  0.00     0.102 A 
HETATM   15  O   UNL     1      -3.224  -3.233 -32.553  1.00  0.00    -0.346 OA
HETATM   16  O   UNL     1      -5.099  -3.891 -34.666  1.00  0.00    -0.346 OA
HETATM   17  C   UNL     1      -5.898  -1.682 -34.570  1.00  0.00     0.040 A 
HETATM   18  C   UNL     1      -3.942  -4.680 -34.367  1.00  0.00     0.202 C 
HETATM   19  C   UNL     1      -3.593  -4.577 -32.892  1.00  0.00     0.202 C 
HETATM   20  C   UNL     1      -5.851  -0.386 -34.050  1.00  0.00     0.020 A 
ENDBRANCH   8  11
ENDBRANCH   3   7
BRANCH   1  21
HETATM   21  C   UNL     1      -1.493   5.785 -30.726  1.00  0.00     0.012 A 
HETATM   22  C   UNL     1      -1.937   6.769 -29.834  1.00  0.00     0.018 A 
HETATM   23  C   UNL     1      -1.025   7.566 -29.134  1.00  0.00     0.037 A 
HETATM   24  C   UNL     1       0.348   7.399 -29.313  1.00  0.00     0.068 A 
HETATM   25  C   UNL     1       0.802   6.442 -30.219  1.00  0.00     0.037 A 
HETATM   26  C   UNL     1      -0.111   5.642 -30.919  1.00  0.00     0.018 A 
BRANCH  24  27
HETATM   27  O   UNL     1       1.132   8.228 -28.560  1.00  0.00    -0.356 OA
HETATM   28  C   UNL     1       1.284   7.895 -27.186  1.00  0.00     0.210 C 
ENDBRANCH  24  27
ENDBRANCH   1  21
TORSDOF 4
ENDMDL
MODEL 7
REMARK VINA RESULT:      -7.8      8.951     12.040
REMARK  4 active torsions:
REMARK  status: ('A' for Active; 'I' for Inactive)
REMARK    1  A    between atoms: O_2  and  C_3 
REMARK    2  A    between atoms: C_6  and  C_7 
REMARK    3  A    between atoms: C_9  and  N_10 
REMARK       I    between atoms: N_10  and  C_11 
REMARK    4  A    between atoms: C_11  and  C_12 
ROOT
HETATM    1  C   UNL     1      -3.190   2.985 -32.374  1.00  0.00     0.173 A 
HETATM    2  N   UNL     1      -2.902   3.601 -31.241  1.00  0.00    -0.041 NA
HETATM    3  C   UNL     1      -2.126   4.663 -31.625  1.00  0.00     0.748 A 
HETATM    4  N   UNL     1      -1.917   4.739 -32.936  1.00  0.00     0.021 NA
HETATM    5  N   UNL     1      -2.590   3.679 -33.388  1.00  0.00    -0.244 N 
HETATM    6  H   UNL     1      -2.620   3.506 -34.385  1.00  0.00     0.191 HD
ENDROOT
BRANCH   3   7
HETATM    7  N   UNL     1      -1.678   5.505 -30.646  1.00  0.00    -0.150 N 
HETATM    8  C   UNL     1      -0.399   5.518 -30.144  1.00  0.00     0.270 C 
HETATM    9  O   UNL     1       0.518   4.767 -30.459  1.00  0.00    -0.267 OA
HETATM   10  H   UNL     1      -2.400   6.112 -30.298  1.00  0.00     0.188 HD
BRANCH   8  11
HETATM   11  C   UNL     1      -0.119   6.544 -29.089  1.00  0.00     0.035 A 
HETATM   12  C   UNL     1      -0.695   7.822 -29.096  1.00  0.00     0.056 A 
HETATM   13  C   UNL     1      -0.386   8.728 -28.079  1.00  0.00     0.103 A 
HETATM   14  C   UNL     1       0.530   8.388 -27.078  1.00  0.00     0.102 A 
HETATM   15  O   UNL     1      -1.014   9.948 -28.136  1.00  0.00    -0.346 OA
HETATM   16  O   UNL     1       0.906   9.247 -26.078  1.00  0.00    -0.346 OA
HETATM   17  C   UNL     1       1.106   7.122 -27.066  1.00  0.00     0.040 A 
HETATM   18  C   UNL     1       0.538  10.597 -26.384  1.00  0.00     0.202 C 
HETATM   19  C   UNL     1      -0.891  10.657 -26.896  1.00  0.00     0.202 C 
HETATM   20  C   UNL     1       0.785   6.205 -28.069  1.00  0.00     0.020 A 
ENDBRANCH   8  11
ENDBRANCH   3   7
BRANCH   1  21
HETATM   21  C   UNL     1      -4.037   1.806 -32.557  1.00  0.00     0.012 A 
HETATM   22  C   UNL     1      -5.371   1.969 -32.949  1.00  0.00     0.018 A 
HETATM   23  C   UNL     1      -6.193   0.859 -33.170  1.00  0.00     0.037 A 
HETATM   24  C   UNL     1      -5.701  -0.435 -33.000  1.00  0.00     0.068 A 
HETATM   25  C   UNL     1      -4.382  -0.609 -32.584  1.00  0.00     0.037 A 
HETATM   26  C   UNL     1      -3.557   0.503 -32.364  1.00  0.00     0.018 A 
BRANCH  24  27
HETATM   27  O   UNL     1      -6.599  -1.431 -33.263  1.00  0.00    -0.356 OA
HETATM   28  C   UNL     1      -6.528  -2.039 -34.546  1.00  0.00     0.210 C 
ENDBRANCH  24  27
ENDBRANCH   1  21
TORSDOF 4
ENDMDL
MODEL 8
REMARK VINA RESULT:      -7.8      8.453     11.022
REMARK  4 active torsions:
REMARK  status: ('A' for Active; 'I' for Inactive)
REMARK    1  A    between atoms: O_2  and  C_3 
REMARK    2  A    between atoms: C_6  and  C_7 
REMARK    3  A    between atoms: C_9  and  N_10 
REMARK       I    between atoms: N_10  and  C_11 
REMARK    4  A    between atoms: C_11  and  C_12 
ROOT
HETATM    1  C   UNL     1      -0.782   6.462 -30.356  1.00  0.00     0.173 A 
HETATM    2  N   UNL     1      -1.980   6.023 -30.701  1.00  0.00    -0.041 NA
HETATM    3  C   UNL     1      -1.726   5.071 -31.652  1.00  0.00     0.748 A 
HETATM    4  N   UNL     1      -0.435   4.895 -31.918  1.00  0.00     0.021 NA
HETATM    5  N   UNL     1       0.141   5.777 -31.097  1.00  0.00    -0.244 N 
HETATM    6  H   UNL     1       1.151   5.838 -31.074  1.00  0.00     0.191 HD
ENDROOT
BRANCH   3   7
HETATM    7  N   UNL     1      -2.797   4.420 -32.197  1.00  0.00    -0.150 N 
HETATM    8  C   UNL     1      -3.197   3.147 -31.867  1.00  0.00     0.270 C 
HETATM    9  O   UNL     1      -2.647   2.392 -31.073  1.00  0.00    -0.267 OA
HETATM   10  H   UNL     1      -3.262   4.964 -32.905  1.00  0.00     0.188 HD
BRANCH   8  11
HETATM   11  C   UNL     1      -4.417   2.639 -32.573  1.00  0.00     0.035 A 
HETATM   12  C   UNL     1      -4.759   1.281 -32.621  1.00  0.00     0.056 A 
HETATM   13  C   UNL     1      -5.912   0.880 -33.300  1.00  0.00     0.103 A 
HETATM   14  C   UNL     1      -6.703   1.817 -33.973  1.00  0.00     0.102 A 
HETATM   15  O   UNL     1      -6.200  -0.463 -33.276  1.00  0.00    -0.346 OA
HETATM   16  O   UNL     1      -7.822   1.482 -34.691  1.00  0.00    -0.346 OA
HETATM   17  C   UNL     1      -6.368   3.166 -33.931  1.00  0.00     0.040 A 
HETATM   18  C   UNL     1      -7.868   0.075 -34.958  1.00  0.00     0.202 C 
HETATM   19  C   UNL     1      -7.545  -0.716 -33.701  1.00  0.00     0.202 C 
HETATM   20  C   UNL     1      -5.228   3.575 -33.236  1.00  0.00     0.020 A 
ENDBRANCH   8  11
ENDBRANCH   3   7
BRANCH   1  21
HETATM   21  C   UNL     1      -0.459   7.459 -29.336  1.00  0.00     0.012 A 
HETATM   22  C   UNL     1       0.817   7.467 -28.760  1.00  0.00     0.018 A 
HETATM   23  C   UNL     1       1.168   8.433 -27.810  1.00  0.00     0.037 A 
HETATM   24  C   UNL     1       0.251   9.408 -27.416  1.00  0.00     0.068 A 
HETATM   25  C   UNL     1      -1.031   9.394 -27.963  1.00  0.00     0.037 A 
HETATM   26  C   UNL     1      -1.382   8.427 -28.915  1.00  0.00     0.018 A 
BRANCH  24  27
HETATM   27  O   UNL     1       0.722  10.302 -26.495  1.00  0.00    -0.356 OA
HETATM   28  C   UNL     1       1.556   9.785 -25.466  1.00  0.00     0.210 C 
ENDBRANCH  24  27
ENDBRANCH   1  21
TORSDOF 4
ENDMDL
MODEL 9
REMARK VINA RESULT:      -7.6      6.384      8.884
REMARK  4 active torsions:
REMARK  status: ('A' for Active; 'I' for Inactive)
REMARK    1  A    between atoms: O_2  and  C_3 
REMARK    2  A    between atoms: C_6  and  C_7 
REMARK    3  A    between atoms: C_9  and  N_10 
REMARK       I    between atoms: N_10  and  C_11 
REMARK    4  A    between atoms: C_11  and  C_12 
ROOT
HETATM    1  C   UNL     1      -6.272   0.711 -33.404  1.00  0.00     0.173 A 
HETATM    2  N   UNL     1      -5.380   1.683 -33.313  1.00  0.00    -0.041 NA
HETATM    3  C   UNL     1      -6.095   2.751 -32.840  1.00  0.00     0.748 A 
HETATM    4  N   UNL     1      -7.384   2.496 -32.632  1.00  0.00     0.021 NA
HETATM    5  N   UNL     1      -7.476   1.214 -32.993  1.00  0.00    -0.244 N 
HETATM    6  H   UNL     1      -8.369   0.744 -32.909  1.00  0.00     0.191 HD
ENDROOT
BRANCH   3   7
HETATM    7  N   UNL     1      -5.420   3.921 -32.630  1.00  0.00    -0.150 N 
HETATM    8  C   UNL     1      -4.602   4.176 -31.556  1.00  0.00     0.270 C 
HETATM    9  O   UNL     1      -4.379   3.425 -30.612  1.00  0.00    -0.267 OA
HETATM   10  H   UNL     1      -5.607   4.608 -33.340  1.00  0.00     0.188 HD
BRANCH   8  11
HETATM   11  C   UNL     1      -3.942   5.520 -31.539  1.00  0.00     0.035 A 
HETATM   12  C   UNL     1      -3.906   6.339 -30.403  1.00  0.00     0.056 A 
HETATM   13  C   UNL     1      -3.273   7.583 -30.463  1.00  0.00     0.103 A 
HETATM   14  C   UNL     1      -2.713   8.039 -31.661  1.00  0.00     0.102 A 
HETATM   15  O   UNL     1      -3.251   8.314 -29.301  1.00  0.00    -0.346 OA
HETATM   16  O   UNL     1      -2.116   9.265 -31.795  1.00  0.00    -0.346 OA
HETATM   17  C   UNL     1      -2.746   7.232 -32.793  1.00  0.00     0.040 A 
HETATM   18  C   UNL     1      -2.446  10.128 -30.701  1.00  0.00     0.202 C 
HETATM   19  C   UNL     1      -2.308   9.391 -29.379  1.00  0.00     0.202 C 
HETATM   20  C   UNL     1      -3.361   5.979 -32.734  1.00  0.00     0.020 A 
ENDBRANCH   8  11
ENDBRANCH   3   7
BRANCH   1  21
HETATM   21  C   UNL     1      -6.042  -0.673 -33.814  1.00  0.00     0.012 A 
HETATM   22  C   UNL     1      -4.750  -1.209 -33.740  1.00  0.00     0.018 A 
HETATM   23  C   UNL     1      -4.507  -2.542 -34.088  1.00  0.00     0.037 A 
HETATM   24  C   UNL     1      -5.547  -3.365 -34.519  1.00  0.00     0.068 A 
HETATM   25  C   UNL     1      -6.832  -2.836 -34.623  1.00  0.00     0.037 A 
HETATM   26  C   UNL     1      -7.077  -1.500 -34.274  1.00  0.00     0.018 A 
BRANCH  24  27
HETATM   27  O   UNL     1      -5.181  -4.649 -34.813  1.00  0.00    -0.356 OA
HETATM   28  C   UNL     1      -4.238  -5.264 -33.942  1.00  0.00     0.210 C 
ENDBRANCH  24  27
ENDBRANCH   1  21
TORSDOF 4
ENDMDL
MODEL 10
REMARK VINA RESULT:      -7.6     14.339     16.966
REMARK  4 active torsions:
REMARK  status: ('A' for Active; 'I' for Inactive)
REMARK    1  A    between atoms: O_2  and  C_3 
REMARK    2  A    between atoms: C_6  and  C_7 
REMARK    3  A    between atoms: C_9  and  N_10 
REMARK       I    between atoms: N_10  and  C_11 
REMARK    4  A    between atoms: C_11  and  C_12 
ROOT
HETATM    1  C   UNL     1       2.803   9.435 -24.227  1.00  0.00     0.173 A 
HETATM    2  N   UNL     1       2.617   8.528 -25.170  1.00  0.00    -0.041 NA
HETATM    3  C   UNL     1       1.822   9.159 -26.090  1.00  0.00     0.748 A 
HETATM    4  N   UNL     1       1.503  10.410 -25.769  1.00  0.00     0.021 NA
HETATM    5  N   UNL     1       2.126  10.564 -24.598  1.00  0.00    -0.244 N 
HETATM    6  H   UNL     1       2.070  11.458 -24.127  1.00  0.00     0.191 HD
ENDROOT
BRANCH   3   7
HETATM    7  N   UNL     1       1.466   8.456 -27.206  1.00  0.00    -0.150 N 
HETATM    8  C   UNL     1       0.385   7.611 -27.294  1.00  0.00     0.270 C 
HETATM    9  O   UNL     1      -0.396   7.329 -26.392  1.00  0.00    -0.267 OA
HETATM   10  H   UNL     1       2.104   8.595 -27.971  1.00  0.00     0.188 HD
BRANCH   8  11
HETATM   11  C   UNL     1       0.168   6.961 -28.625  1.00  0.00     0.035 A 
HETATM   12  C   UNL     1      -0.427   7.620 -29.709  1.00  0.00     0.056 A 
HETATM   13  C   UNL     1      -0.599   6.949 -30.921  1.00  0.00     0.103 A 
HETATM   14  C   UNL     1      -0.225   5.607 -31.050  1.00  0.00     0.102 A 
HETATM   15  O   UNL     1      -1.159   7.671 -31.946  1.00  0.00    -0.346 OA
HETATM   16  O   UNL     1      -0.406   4.881 -32.199  1.00  0.00    -0.346 OA
HETATM   17  C   UNL     1       0.364   4.945 -29.978  1.00  0.00     0.040 A 
HETATM   18  C   UNL     1      -1.318   5.534 -33.090  1.00  0.00     0.202 C 
HETATM   19  C   UNL     1      -0.983   7.012 -33.207  1.00  0.00     0.202 C 
HETATM   20  C   UNL     1       0.557   5.618 -28.770  1.00  0.00     0.020 A 
ENDBRANCH   8  11
ENDBRANCH   3   7
BRANCH   1  21
HETATM   21  C   UNL     1       3.620   9.311 -23.020  1.00  0.00     0.012 A 
HETATM   22  C   UNL     1       3.482   8.178 -22.209  1.00  0.00     0.018 A 
HETATM   23  C   UNL     1       4.277   8.012 -21.069  1.00  0.00     0.037 A 
HETATM   24  C   UNL     1       5.223   8.975 -20.717  1.00  0.00     0.068 A 
HETATM   25  C   UNL     1       5.351  10.120 -21.502  1.00  0.00     0.037 A 
HETATM   26  C   UNL     1       4.555  10.286 -22.645  1.00  0.00     0.018 A 
BRANCH  24  27
HETATM   27  O   UNL     1       5.946   8.687 -19.593  1.00  0.00    -0.356 OA
HETATM   28  C   UNL     1       6.854   7.595 -19.675  1.00  0.00     0.210 C 
ENDBRANCH  24  27
ENDBRANCH   1  21
TORSDOF 4
ENDMDL
