MODEL 1
REMARK VINA RESULT:      -9.9      0.000      0.000
REMARK  6 active torsions:
REMARK  status: ('A' for Active; 'I' for Inactive)
REMARK    1  A    between atoms: C_2  and  O_3 
REMARK    2  A    between atoms: C_2  and  C_4 
REMARK    3  A    between atoms: C_6  and  N_7 
REMARK       I    between atoms: N_7  and  C_8 
REMARK    4  A    between atoms: C_8  and  C_9 
REMARK    5  A    between atoms: C_12  and  C_13 
REMARK    6  A    between atoms: C_18  and  C_19 
ROOT
HETATM    1  C   UNL     1      -5.464   3.254 -32.184  1.00  0.00     0.096 A 
HETATM    2  C   UNL     1      -6.150   2.070 -32.386  1.00  0.00     0.138 A 
HETATM    3  N   UNL     1      -7.481   2.370 -32.198  1.00  0.00    -0.240 N 
HETATM    4  C   UNL     1      -8.569   1.422 -32.379  1.00  0.00     0.221 C 
HETATM    5  C   UNL     1      -8.094   0.236 -33.242  1.00  0.00     0.066 C 
HETATM    6  C   UNL     1      -6.742  -0.273 -32.733  1.00  0.00     0.118 C 
HETATM    7  N   UNL     1      -5.763   0.817 -32.745  1.00  0.00    -0.365 N 
HETATM    8  N   UNL     1      -7.697   3.629 -31.797  1.00  0.00    -0.181 NA
HETATM    9  C   UNL     1      -6.480   4.178 -31.836  1.00  0.00     0.160 A 
HETATM   10  H   UNL     1      -4.979   0.682 -33.386  1.00  0.00     0.161 HD
ENDROOT
BRANCH   1  11
HETATM   11  C   UNL     1      -4.041   3.541 -32.276  1.00  0.00     0.261 C 
HETATM   12  N   UNL     1      -3.720   4.850 -31.970  1.00  0.00    -0.323 N 
HETATM   13  H   UNL     1      -4.512   5.471 -31.845  1.00  0.00     0.169 HD
HETATM   14  O   UNL     1      -3.255   2.668 -32.625  1.00  0.00    -0.267 OA
BRANCH  12  15
HETATM   15  C   UNL     1      -2.440   5.428 -31.871  1.00  0.00     0.035 A 
HETATM   16  C   UNL     1      -1.498   5.071 -30.902  1.00  0.00     0.039 A 
HETATM   17  C   UNL     1      -0.240   5.701 -30.841  1.00  0.00    -0.028 A 
HETATM   18  C   UNL     1       0.061   6.694 -31.780  1.00  0.00     0.010 A 
HETATM   19  C   UNL     1      -0.873   7.061 -32.748  1.00  0.00     0.003 A 
HETATM   20  C   UNL     1      -2.119   6.431 -32.790  1.00  0.00     0.029 A 
BRANCH  17  21
HETATM   21  C   UNL     1       0.759   5.265 -29.792  1.00  0.00     0.147 C 
HETATM   22  C   UNL     1       0.431   5.861 -28.427  1.00  0.00     0.044 C 
BRANCH  21  23
HETATM   23  O   UNL     1       0.777   3.842 -29.685  1.00  0.00    -0.391 OA
HETATM   24  H   UNL     1      -0.035   3.584 -29.221  1.00  0.00     0.210 HD
ENDBRANCH  21  23
ENDBRANCH  17  21
ENDBRANCH  12  15
ENDBRANCH   1  11
BRANCH   4  25
HETATM   25  C   UNL     1      -9.787   2.054 -33.022  1.00  0.00     0.409 C 
HETATM   26  F   UNL     1      -9.474   2.790 -34.112  1.00  0.00    -0.169 F 
HETATM   27  F   UNL     1     -10.629   1.073 -33.449  1.00  0.00    -0.169 F 
HETATM   28  F   UNL     1     -10.508   2.820 -32.178  1.00  0.00    -0.169 F 
ENDBRANCH   4  25
BRANCH   6  29
HETATM   29  C   UNL     1      -6.218  -1.449 -33.533  1.00  0.00    -0.035 A 
HETATM   30  C   UNL     1      -4.843  -1.722 -33.631  1.00  0.00     0.009 A 
HETATM   31  C   UNL     1      -4.384  -2.811 -34.375  1.00  0.00     0.001 A 
HETATM   32  C   UNL     1      -5.290  -3.640 -35.031  1.00  0.00     0.000 A 
HETATM   33  C   UNL     1      -6.657  -3.386 -34.941  1.00  0.00     0.001 A 
HETATM   34  C   UNL     1      -7.118  -2.299 -34.196  1.00  0.00     0.009 A 
ENDBRANCH   6  29
TORSDOF 6
ENDMDL
MODEL 2
REMARK VINA RESULT:      -9.8      4.512      8.977
REMARK  6 active torsions:
REMARK  status: ('A' for Active; 'I' for Inactive)
REMARK    1  A    between atoms: C_2  and  O_3 
REMARK    2  A    between atoms: C_2  and  C_4 
REMARK    3  A    between atoms: C_6  and  N_7 
REMARK       I    between atoms: N_7  and  C_8 
REMARK    4  A    between atoms: C_8  and  C_9 
REMARK    5  A    between atoms: C_12  and  C_13 
REMARK    6  A    between atoms: C_18  and  C_19 
ROOT
HETATM    1  C   UNL     1      -8.932   1.310 -32.779  1.00  0.00     0.096 A 
HETATM    2  C   UNL     1      -7.721   0.751 -33.144  1.00  0.00     0.138 A 
HETATM    3  N   UNL     1      -6.760   1.676 -32.801  1.00  0.00    -0.240 N 
HETATM    4  C   UNL     1      -5.330   1.467 -32.950  1.00  0.00     0.221 C 
HETATM    5  C   UNL     1      -5.029  -0.040 -33.078  1.00  0.00     0.066 C 
HETATM    6  C   UNL     1      -5.983  -0.679 -34.091  1.00  0.00     0.118 C 
HETATM    7  N   UNL     1      -7.371  -0.448 -33.683  1.00  0.00    -0.365 N 
HETATM    8  N   UNL     1      -7.264   2.825 -32.332  1.00  0.00    -0.181 NA
HETATM    9  C   UNL     1      -8.577   2.585 -32.273  1.00  0.00     0.160 A 
HETATM   10  H   UNL     1      -7.895  -1.293 -33.447  1.00  0.00     0.161 HD
ENDROOT
BRANCH   1  11
HETATM   11  C   UNL     1     -10.281   0.774 -32.879  1.00  0.00     0.261 C 
HETATM   12  N   UNL     1     -11.243   1.739 -33.112  1.00  0.00    -0.323 N 
HETATM   13  H   UNL     1     -10.915   2.697 -33.059  1.00  0.00     0.169 HD
HETATM   14  O   UNL     1     -10.482  -0.426 -32.733  1.00  0.00    -0.267 OA
BRANCH  12  15
HETATM   15  C   UNL     1     -12.617   1.552 -33.353  1.00  0.00     0.035 A 
HETATM   16  C   UNL     1     -13.628   2.191 -32.629  1.00  0.00     0.039 A 
HETATM   17  C   UNL     1     -14.987   1.948 -32.904  1.00  0.00    -0.028 A 
HETATM   18  C   UNL     1     -15.317   1.055 -33.931  1.00  0.00     0.010 A 
HETATM   19  C   UNL     1     -14.317   0.408 -34.655  1.00  0.00     0.003 A 
HETATM   20  C   UNL     1     -12.973   0.656 -34.365  1.00  0.00     0.029 A 
BRANCH  17  21
HETATM   21  C   UNL     1     -16.049   2.681 -32.113  1.00  0.00     0.147 C 
HETATM   22  C   UNL     1     -15.706   4.158 -31.956  1.00  0.00     0.044 C 
BRANCH  21  23
HETATM   23  O   UNL     1     -17.317   2.564 -32.757  1.00  0.00    -0.391 OA
HETATM   24  H   UNL     1     -17.170   2.739 -33.701  1.00  0.00     0.210 HD
ENDBRANCH  21  23
ENDBRANCH  17  21
ENDBRANCH  12  15
ENDBRANCH   1  11
BRANCH   4  25
HETATM   25  C   UNL     1      -4.537   2.041 -31.793  1.00  0.00     0.409 C 
HETATM   26  F   UNL     1      -3.255   1.611 -31.779  1.00  0.00    -0.169 F 
HETATM   27  F   UNL     1      -4.486   3.397 -31.913  1.00  0.00    -0.169 F 
HETATM   28  F   UNL     1      -5.086   1.796 -30.586  1.00  0.00    -0.169 F 
ENDBRANCH   4  25
BRANCH   6  29
HETATM   29  C   UNL     1      -5.738  -2.164 -34.273  1.00  0.00    -0.035 A 
HETATM   30  C   UNL     1      -6.752  -3.033 -34.710  1.00  0.00     0.009 A 
HETATM   31  C   UNL     1      -6.502  -4.397 -34.869  1.00  0.00     0.001 A 
HETATM   32  C   UNL     1      -5.237  -4.912 -34.595  1.00  0.00     0.000 A 
HETATM   33  C   UNL     1      -4.219  -4.065 -34.164  1.00  0.00     0.001 A 
HETATM   34  C   UNL     1      -4.467  -2.699 -34.006  1.00  0.00     0.009 A 
ENDBRANCH   6  29
TORSDOF 6
ENDMDL
MODEL 3
REMARK VINA RESULT:      -9.6      1.368      1.850
REMARK  6 active torsions:
REMARK  status: ('A' for Active; 'I' for Inactive)
REMARK    1  A    between atoms: C_2  and  O_3 
REMARK    2  A    between atoms: C_2  and  C_4 
REMARK    3  A    between atoms: C_6  and  N_7 
REMARK       I    between atoms: N_7  and  C_8 
REMARK    4  A    between atoms: C_8  and  C_9 
REMARK    5  A    between atoms: C_12  and  C_13 
REMARK    6  A    between atoms: C_18  and  C_19 
ROOT
HETATM    1  C   UNL     1      -6.924   3.542 -31.886  1.00  0.00     0.096 A 
HETATM    2  C   UNL     1      -7.284   2.238 -32.177  1.00  0.00     0.138 A 
HETATM    3  N   UNL     1      -8.661   2.223 -32.193  1.00  0.00    -0.240 N 
HETATM    4  C   UNL     1      -9.465   1.058 -32.526  1.00  0.00     0.221 C 
HETATM    5  C   UNL     1      -8.610   0.032 -33.296  1.00  0.00     0.066 C 
HETATM    6  C   UNL     1      -7.268  -0.169 -32.585  1.00  0.00     0.118 C 
HETATM    7  N   UNL     1      -6.573   1.114 -32.461  1.00  0.00    -0.365 N 
HETATM    8  N   UNL     1      -9.215   3.391 -31.842  1.00  0.00    -0.181 NA
HETATM    9  C   UNL     1      -8.164   4.203 -31.703  1.00  0.00     0.160 A 
HETATM   10  H   UNL     1      -5.693   1.177 -32.977  1.00  0.00     0.161 HD
ENDROOT
BRANCH   1  11
HETATM   11  C   UNL     1      -5.606   4.146 -31.767  1.00  0.00     0.261 C 
HETATM   12  N   UNL     1      -4.820   3.984 -32.893  1.00  0.00    -0.323 N 
HETATM   13  H   UNL     1      -5.203   3.368 -33.601  1.00  0.00     0.169 HD
HETATM   14  O   UNL     1      -5.273   4.706 -30.729  1.00  0.00    -0.267 OA
BRANCH  12  15
HETATM   15  C   UNL     1      -3.543   4.521 -33.143  1.00  0.00     0.035 A 
HETATM   16  C   UNL     1      -2.512   4.547 -32.199  1.00  0.00     0.039 A 
HETATM   17  C   UNL     1      -1.260   5.116 -32.503  1.00  0.00    -0.028 A 
HETATM   18  C   UNL     1      -1.056   5.653 -33.780  1.00  0.00     0.010 A 
HETATM   19  C   UNL     1      -2.079   5.636 -34.726  1.00  0.00     0.003 A 
HETATM   20  C   UNL     1      -3.317   5.073 -34.407  1.00  0.00     0.029 A 
BRANCH  17  21
HETATM   21  C   UNL     1      -0.164   5.101 -31.459  1.00  0.00     0.147 C 
HETATM   22  C   UNL     1       0.288   6.513 -31.105  1.00  0.00     0.044 C 
BRANCH  21  23
HETATM   23  O   UNL     1      -0.616   4.446 -30.275  1.00  0.00    -0.391 OA
HETATM   24  H   UNL     1      -1.508   4.782 -30.091  1.00  0.00     0.210 HD
ENDBRANCH  21  23
ENDBRANCH  17  21
ENDBRANCH  12  15
ENDBRANCH   1  11
BRANCH   4  25
HETATM   25  C   UNL     1     -10.686   1.414 -33.350  1.00  0.00     0.409 C 
HETATM   26  F   UNL     1     -10.366   1.861 -34.585  1.00  0.00    -0.169 F 
HETATM   27  F   UNL     1     -11.446   0.298 -33.530  1.00  0.00    -0.169 F 
HETATM   28  F   UNL     1     -11.493   2.319 -32.759  1.00  0.00    -0.169 F 
ENDBRANCH   4  25
BRANCH   6  29
HETATM   29  C   UNL     1      -6.377  -1.175 -33.287  1.00  0.00    -0.035 A 
HETATM   30  C   UNL     1      -6.883  -2.062 -34.253  1.00  0.00     0.009 A 
HETATM   31  C   UNL     1      -6.043  -2.980 -34.885  1.00  0.00     0.001 A 
HETATM   32  C   UNL     1      -4.688  -3.027 -34.562  1.00  0.00     0.000 A 
HETATM   33  C   UNL     1      -4.171  -2.152 -33.610  1.00  0.00     0.001 A 
HETATM   34  C   UNL     1      -5.009  -1.231 -32.977  1.00  0.00     0.009 A 
ENDBRANCH   6  29
TORSDOF 6
ENDMDL
MODEL 4
REMARK VINA RESULT:      -9.0      1.355      1.800
REMARK  6 active torsions:
REMARK  status: ('A' for Active; 'I' for Inactive)
REMARK    1  A    between atoms: C_2  and  O_3 
REMARK    2  A    between atoms: C_2  and  C_4 
REMARK    3  A    between atoms: C_6  and  N_7 
REMARK       I    between atoms: N_7  and  C_8 
REMARK    4  A    between atoms: C_8  and  C_9 
REMARK    5  A    between atoms: C_12  and  C_13 
REMARK    6  A    between atoms: C_18  and  C_19 
ROOT
HETATM    1  C   UNL     1      -6.951   3.641 -32.747  1.00  0.00     0.096 A 
HETATM    2  C   UNL     1      -7.314   2.307 -32.791  1.00  0.00     0.138 A 
HETATM    3  N   UNL     1      -8.683   2.284 -32.635  1.00  0.00    -0.240 N 
HETATM    4  C   UNL     1      -9.494   1.078 -32.686  1.00  0.00     0.221 C 
HETATM    5  C   UNL     1      -8.716  -0.050 -33.392  1.00  0.00     0.066 C 
HETATM    6  C   UNL     1      -7.293  -0.135 -32.829  1.00  0.00     0.118 C 
HETATM    7  N   UNL     1      -6.617   1.156 -32.988  1.00  0.00    -0.365 N 
HETATM    8  N   UNL     1      -9.217   3.489 -32.398  1.00  0.00    -0.181 NA
HETATM    9  C   UNL     1      -8.175   4.317 -32.515  1.00  0.00     0.160 A 
HETATM   10  H   UNL     1      -5.808   1.142 -33.611  1.00  0.00     0.161 HD
ENDROOT
BRANCH   1  11
HETATM   11  C   UNL     1      -5.643   4.262 -32.884  1.00  0.00     0.261 C 
HETATM   12  N   UNL     1      -5.385   5.225 -31.927  1.00  0.00    -0.323 N 
HETATM   13  H   UNL     1      -6.172   5.466 -31.334  1.00  0.00     0.169 HD
HETATM   14  O   UNL     1      -4.897   3.937 -33.801  1.00  0.00    -0.267 OA
BRANCH  12  15
HETATM   15  C   UNL     1      -4.192   5.941 -31.717  1.00  0.00     0.035 A 
HETATM   16  C   UNL     1      -2.938   5.340 -31.572  1.00  0.00     0.039 A 
HETATM   17  C   UNL     1      -1.782   6.110 -31.344  1.00  0.00    -0.028 A 
HETATM   18  C   UNL     1      -1.904   7.503 -31.275  1.00  0.00     0.010 A 
HETATM   19  C   UNL     1      -3.149   8.113 -31.414  1.00  0.00     0.003 A 
HETATM   20  C   UNL     1      -4.288   7.334 -31.632  1.00  0.00     0.029 A 
BRANCH  17  21
HETATM   21  C   UNL     1      -0.441   5.419 -31.218  1.00  0.00     0.147 C 
HETATM   22  C   UNL     1       0.681   6.422 -30.973  1.00  0.00     0.044 C 
BRANCH  21  23
HETATM   23  O   UNL     1      -0.467   4.479 -30.145  1.00  0.00    -0.391 OA
HETATM   24  H   UNL     1      -1.080   4.829 -29.478  1.00  0.00     0.210 HD
ENDBRANCH  21  23
ENDBRANCH  17  21
ENDBRANCH  12  15
ENDBRANCH   1  11
BRANCH   4  25
HETATM   25  C   UNL     1     -10.814   1.299 -33.397  1.00  0.00     0.409 C 
HETATM   26  F   UNL     1     -10.653   1.611 -34.703  1.00  0.00    -0.169 F 
HETATM   27  F   UNL     1     -11.539   0.146 -33.364  1.00  0.00    -0.169 F 
HETATM   28  F   UNL     1     -11.588   2.240 -32.821  1.00  0.00    -0.169 F 
ENDBRANCH   4  25
BRANCH   6  29
HETATM   29  C   UNL     1      -6.471  -1.232 -33.475  1.00  0.00    -0.035 A 
HETATM   30  C   UNL     1      -7.064  -2.230 -34.267  1.00  0.00     0.009 A 
HETATM   31  C   UNL     1      -6.286  -3.231 -34.852  1.00  0.00     0.001 A 
HETATM   32  C   UNL     1      -4.907  -3.251 -34.653  1.00  0.00     0.000 A 
HETATM   33  C   UNL     1      -4.303  -2.267 -33.874  1.00  0.00     0.001 A 
HETATM   34  C   UNL     1      -5.079  -1.263 -33.290  1.00  0.00     0.009 A 
ENDBRANCH   6  29
TORSDOF 6
ENDMDL
MODEL 5
REMARK VINA RESULT:      -8.7      4.111      9.197
REMARK  6 active torsions:
REMARK  status: ('A' for Active; 'I' for Inactive)
REMARK    1  A    between atoms: C_2  and  O_3 
REMARK    2  A    between atoms: C_2  and  C_4 
REMARK    3  A    between atoms: C_6  and  N_7 
REMARK       I    between atoms: N_7  and  C_8 
REMARK    4  A    between atoms: C_8  and  C_9 
REMARK    5  A    between atoms: C_12  and  C_13 
REMARK    6  A    between atoms: C_18  and  C_19 
ROOT
HETATM    1  C   UNL     1      -7.313   1.234 -32.454  1.00  0.00     0.096 A 
HETATM    2  C   UNL     1      -5.986   1.601 -32.324  1.00  0.00     0.138 A 
HETATM    3  N   UNL     1      -5.326   0.476 -31.883  1.00  0.00    -0.240 N 
HETATM    4  C   UNL     1      -3.889   0.396 -31.676  1.00  0.00     0.221 C 
HETATM    5  C   UNL     1      -3.183   1.529 -32.447  1.00  0.00     0.066 C 
HETATM    6  C   UNL     1      -3.898   2.860 -32.191  1.00  0.00     0.118 C 
HETATM    7  N   UNL     1      -5.306   2.751 -32.580  1.00  0.00    -0.365 N 
HETATM    8  N   UNL     1      -6.138  -0.558 -31.627  1.00  0.00    -0.181 NA
HETATM    9  C   UNL     1      -7.335  -0.114 -32.019  1.00  0.00     0.160 A 
HETATM   10  H   UNL     1      -5.584   3.353 -33.357  1.00  0.00     0.161 HD
ENDROOT
BRANCH   1  11
HETATM   11  C   UNL     1      -8.460   2.007 -32.907  1.00  0.00     0.261 C 
HETATM   12  N   UNL     1      -9.438   1.240 -33.513  1.00  0.00    -0.323 N 
HETATM   13  H   UNL     1      -9.187   0.272 -33.678  1.00  0.00     0.169 HD
HETATM   14  O   UNL     1      -8.483   3.223 -32.762  1.00  0.00    -0.267 OA
BRANCH  12  15
HETATM   15  C   UNL     1     -10.702   1.654 -33.974  1.00  0.00     0.035 A 
HETATM   16  C   UNL     1     -11.903   1.042 -33.606  1.00  0.00     0.039 A 
HETATM   17  C   UNL     1     -13.136   1.489 -34.117  1.00  0.00    -0.028 A 
HETATM   18  C   UNL     1     -13.145   2.575 -35.000  1.00  0.00     0.010 A 
HETATM   19  C   UNL     1     -11.952   3.191 -35.377  1.00  0.00     0.003 A 
HETATM   20  C   UNL     1     -10.737   2.730 -34.867  1.00  0.00     0.029 A 
BRANCH  17  21
HETATM   21  C   UNL     1     -14.415   0.813 -33.672  1.00  0.00     0.147 C 
HETATM   22  C   UNL     1     -15.253   1.731 -32.789  1.00  0.00     0.044 C 
BRANCH  21  23
HETATM   23  O   UNL     1     -15.190   0.423 -34.805  1.00  0.00    -0.391 OA
HETATM   24  H   UNL     1     -15.933   1.045 -34.865  1.00  0.00     0.210 HD
ENDBRANCH  21  23
ENDBRANCH  17  21
ENDBRANCH  12  15
ENDBRANCH   1  11
BRANCH   4  25
HETATM   25  C   UNL     1      -3.315  -0.938 -32.108  1.00  0.00     0.409 C 
HETATM   26  F   UNL     1      -3.854  -1.977 -31.431  1.00  0.00    -0.169 F 
HETATM   27  F   UNL     1      -3.603  -1.146 -33.423  1.00  0.00    -0.169 F 
HETATM   28  F   UNL     1      -1.973  -1.008 -32.007  1.00  0.00    -0.169 F 
ENDBRANCH   4  25
BRANCH   6  29
HETATM   29  C   UNL     1      -3.249   4.023 -32.915  1.00  0.00    -0.035 A 
HETATM   30  C   UNL     1      -3.894   4.689 -33.971  1.00  0.00     0.009 A 
HETATM   31  C   UNL     1      -3.277   5.758 -34.622  1.00  0.00     0.001 A 
HETATM   32  C   UNL     1      -2.007   6.176 -34.230  1.00  0.00     0.000 A 
HETATM   33  C   UNL     1      -1.355   5.529 -33.183  1.00  0.00     0.001 A 
HETATM   34  C   UNL     1      -1.972   4.461 -32.528  1.00  0.00     0.009 A 
ENDBRANCH   6  29
TORSDOF 6
ENDMDL
MODEL 6
REMARK VINA RESULT:      -8.6      4.905      7.958
REMARK  6 active torsions:
REMARK  status: ('A' for Active; 'I' for Inactive)
REMARK    1  A    between atoms: C_2  and  O_3 
REMARK    2  A    between atoms: C_2  and  C_4 
REMARK    3  A    between atoms: C_6  and  N_7 
REMARK       I    between atoms: N_7  and  C_8 
REMARK    4  A    between atoms: C_8  and  C_9 
REMARK    5  A    between atoms: C_12  and  C_13 
REMARK    6  A    between atoms: C_18  and  C_19 
ROOT
HETATM    1  C   UNL     1      -8.336   2.854 -33.481  1.00  0.00     0.096 A 
HETATM    2  C   UNL     1      -9.626   3.352 -33.445  1.00  0.00     0.138 A 
HETATM    3  N   UNL     1      -9.533   4.665 -33.852  1.00  0.00    -0.240 N 
HETATM    4  C   UNL     1     -10.671   5.553 -34.024  1.00  0.00     0.221 C 
HETATM    5  C   UNL     1     -11.966   4.728 -34.161  1.00  0.00     0.066 C 
HETATM    6  C   UNL     1     -12.019   3.655 -33.068  1.00  0.00     0.118 C 
HETATM    7  N   UNL     1     -10.833   2.799 -33.152  1.00  0.00    -0.365 N 
HETATM    8  N   UNL     1      -8.274   5.078 -34.052  1.00  0.00    -0.181 NA
HETATM    9  C   UNL     1      -7.554   3.967 -33.875  1.00  0.00     0.160 A 
HETATM   10  H   UNL     1     -11.024   1.823 -33.386  1.00  0.00     0.161 HD
ENDROOT
BRANCH   1  11
HETATM   11  C   UNL     1      -7.838   1.520 -33.181  1.00  0.00     0.261 C 
HETATM   12  N   UNL     1      -6.903   1.062 -34.089  1.00  0.00    -0.323 N 
HETATM   13  H   UNL     1      -6.774   1.647 -34.908  1.00  0.00     0.169 HD
HETATM   14  O   UNL     1      -8.269   0.902 -32.214  1.00  0.00    -0.267 OA
BRANCH  12  15
HETATM   15  C   UNL     1      -6.160  -0.133 -34.042  1.00  0.00     0.035 A 
HETATM   16  C   UNL     1      -6.630  -1.360 -34.518  1.00  0.00     0.039 A 
HETATM   17  C   UNL     1      -5.848  -2.527 -34.424  1.00  0.00    -0.028 A 
HETATM   18  C   UNL     1      -4.574  -2.439 -33.849  1.00  0.00     0.010 A 
HETATM   19  C   UNL     1      -4.098  -1.221 -33.366  1.00  0.00     0.003 A 
HETATM   20  C   UNL     1      -4.889  -0.074 -33.461  1.00  0.00     0.029 A 
BRANCH  17  21
HETATM   21  C   UNL     1      -6.386  -3.829 -34.976  1.00  0.00     0.147 C 
HETATM   22  C   UNL     1      -5.336  -4.934 -34.920  1.00  0.00     0.044 C 
BRANCH  21  23
HETATM   23  O   UNL     1      -7.535  -4.243 -34.238  1.00  0.00    -0.391 OA
HETATM   24  H   UNL     1      -7.933  -3.441 -33.865  1.00  0.00     0.210 HD
ENDBRANCH  21  23
ENDBRANCH  17  21
ENDBRANCH  12  15
ENDBRANCH   1  11
BRANCH   4  25
HETATM   25  C   UNL     1     -10.522   6.457 -35.232  1.00  0.00     0.409 C 
HETATM   26  F   UNL     1      -9.783   5.892 -36.213  1.00  0.00    -0.169 F 
HETATM   27  F   UNL     1     -11.751   6.697 -35.767  1.00  0.00    -0.169 F 
HETATM   28  F   UNL     1     -10.001   7.666 -34.942  1.00  0.00    -0.169 F 
ENDBRANCH   4  25
BRANCH   6  29
HETATM   29  C   UNL     1     -13.275   2.809 -33.138  1.00  0.00    -0.035 A 
HETATM   30  C   UNL     1     -14.301   2.929 -32.186  1.00  0.00     0.009 A 
HETATM   31  C   UNL     1     -15.448   2.138 -32.270  1.00  0.00     0.001 A 
HETATM   32  C   UNL     1     -15.587   1.216 -33.306  1.00  0.00     0.000 A 
HETATM   33  C   UNL     1     -14.581   1.088 -34.261  1.00  0.00     0.001 A 
HETATM   34  C   UNL     1     -13.433   1.880 -34.179  1.00  0.00     0.009 A 
ENDBRANCH   6  29
TORSDOF 6
ENDMDL
MODEL 7
REMARK VINA RESULT:      -8.5     16.624     17.892
REMARK  6 active torsions:
REMARK  status: ('A' for Active; 'I' for Inactive)
REMARK    1  A    between atoms: C_2  and  O_3 
REMARK    2  A    between atoms: C_2  and  C_4 
REMARK    3  A    between atoms: C_6  and  N_7 
REMARK       I    between atoms: N_7  and  C_8 
REMARK    4  A    between atoms: C_8  and  C_9 
REMARK    5  A    between atoms: C_12  and  C_13 
REMARK    6  A    between atoms: C_18  and  C_19 
ROOT
HETATM    1  C   UNL     1      -4.599 -12.463 -38.999  1.00  0.00     0.096 A 
HETATM    2  C   UNL     1      -5.705 -12.805 -38.243  1.00  0.00     0.138 A 
HETATM    3  N   UNL     1      -6.801 -12.451 -38.998  1.00  0.00    -0.240 N 
HETATM    4  C   UNL     1      -8.180 -12.696 -38.608  1.00  0.00     0.221 C 
HETATM    5  C   UNL     1      -8.233 -13.789 -37.523  1.00  0.00     0.066 C 
HETATM    6  C   UNL     1      -7.194 -13.498 -36.436  1.00  0.00     0.118 C 
HETATM    7  N   UNL     1      -5.859 -13.408 -37.034  1.00  0.00    -0.365 N 
HETATM    8  N   UNL     1      -6.487 -11.820 -40.138  1.00  0.00    -0.181 NA
HETATM    9  C   UNL     1      -5.153 -11.871 -40.161  1.00  0.00     0.160 A 
HETATM   10  H   UNL     1      -5.204 -14.130 -36.730  1.00  0.00     0.161 HD
ENDROOT
BRANCH   1  11
HETATM   11  C   UNL     1      -3.182 -12.630 -38.716  1.00  0.00     0.261 C 
HETATM   12  N   UNL     1      -2.720 -13.913 -38.944  1.00  0.00    -0.323 N 
HETATM   13  H   UNL     1      -3.437 -14.598 -39.155  1.00  0.00     0.169 HD
HETATM   14  O   UNL     1      -2.520 -11.690 -38.291  1.00  0.00    -0.267 OA
BRANCH  12  15
HETATM   15  C   UNL     1      -1.396 -14.385 -38.862  1.00  0.00     0.035 A 
HETATM   16  C   UNL     1      -0.839 -14.942 -37.707  1.00  0.00     0.039 A 
HETATM   17  C   UNL     1       0.499 -15.379 -37.681  1.00  0.00    -0.028 A 
HETATM   18  C   UNL     1       1.270 -15.256 -38.843  1.00  0.00     0.010 A 
HETATM   19  C   UNL     1       0.726 -14.698 -39.998  1.00  0.00     0.003 A 
HETATM   20  C   UNL     1      -0.601 -14.263 -40.006  1.00  0.00     0.029 A 
BRANCH  17  21
HETATM   21  C   UNL     1       1.054 -15.999 -36.417  1.00  0.00     0.147 C 
HETATM   22  C   UNL     1       0.167 -17.135 -35.918  1.00  0.00     0.044 C 
BRANCH  21  23
HETATM   23  O   UNL     1       2.369 -16.503 -36.647  1.00  0.00    -0.391 OA
HETATM   24  H   UNL     1       2.897 -15.764 -36.989  1.00  0.00     0.210 HD
ENDBRANCH  21  23
ENDBRANCH  17  21
ENDBRANCH  12  15
ENDBRANCH   1  11
BRANCH   4  25
HETATM   25  C   UNL     1      -9.048 -13.109 -39.780  1.00  0.00     0.409 C 
HETATM   26  F   UNL     1      -8.462 -14.050 -40.553  1.00  0.00    -0.169 F 
HETATM   27  F   UNL     1     -10.202 -13.661 -39.311  1.00  0.00    -0.169 F 
HETATM   28  F   UNL     1      -9.423 -12.079 -40.565  1.00  0.00    -0.169 F 
ENDBRANCH   4  25
BRANCH   6  29
HETATM   29  C   UNL     1      -7.196 -14.533 -35.329  1.00  0.00    -0.035 A 
HETATM   30  C   UNL     1      -7.304 -15.907 -35.602  1.00  0.00     0.009 A 
HETATM   31  C   UNL     1      -7.305 -16.843 -34.566  1.00  0.00     0.001 A 
HETATM   32  C   UNL     1      -7.199 -16.419 -33.243  1.00  0.00     0.000 A 
HETATM   33  C   UNL     1      -7.086 -15.062 -32.954  1.00  0.00     0.001 A 
HETATM   34  C   UNL     1      -7.083 -14.124 -33.990  1.00  0.00     0.009 A 
ENDBRANCH   6  29
TORSDOF 6
ENDMDL
MODEL 8
REMARK VINA RESULT:      -8.5      2.551      4.498
REMARK  6 active torsions:
REMARK  status: ('A' for Active; 'I' for Inactive)
REMARK    1  A    between atoms: C_2  and  O_3 
REMARK    2  A    between atoms: C_2  and  C_4 
REMARK    3  A    between atoms: C_6  and  N_7 
REMARK       I    between atoms: N_7  and  C_8 
REMARK    4  A    between atoms: C_8  and  C_9 
REMARK    5  A    between atoms: C_12  and  C_13 
REMARK    6  A    between atoms: C_18  and  C_19 
ROOT
HETATM    1  C   UNL     1      -4.308   1.153 -32.489  1.00  0.00     0.096 A 
HETATM    2  C   UNL     1      -5.442   0.852 -33.221  1.00  0.00     0.138 A 
HETATM    3  N   UNL     1      -5.182  -0.352 -33.839  1.00  0.00    -0.240 N 
HETATM    4  C   UNL     1      -6.138  -1.075 -34.662  1.00  0.00     0.221 C 
HETATM    5  C   UNL     1      -7.568  -0.582 -34.363  1.00  0.00     0.066 C 
HETATM    6  C   UNL     1      -7.602   0.949 -34.355  1.00  0.00     0.118 C 
HETATM    7  N   UNL     1      -6.647   1.464 -33.371  1.00  0.00    -0.365 N 
HETATM    8  N   UNL     1      -3.936  -0.801 -33.638  1.00  0.00    -0.181 NA
HETATM    9  C   UNL     1      -3.423   0.086 -32.781  1.00  0.00     0.160 A 
HETATM   10  H   UNL     1      -7.067   1.975 -32.592  1.00  0.00     0.161 HD
ENDROOT
BRANCH   1  11
HETATM   11  C   UNL     1      -4.026   2.286 -31.621  1.00  0.00     0.261 C 
HETATM   12  N   UNL     1      -3.090   3.161 -32.140  1.00  0.00    -0.323 N 
HETATM   13  H   UNL     1      -2.629   2.847 -32.987  1.00  0.00     0.169 HD
HETATM   14  O   UNL     1      -4.579   2.384 -30.531  1.00  0.00    -0.267 OA
BRANCH  12  15
HETATM   15  C   UNL     1      -2.665   4.392 -31.606  1.00  0.00     0.035 A 
HETATM   16  C   UNL     1      -1.407   4.599 -31.033  1.00  0.00     0.039 A 
HETATM   17  C   UNL     1      -1.047   5.850 -30.497  1.00  0.00    -0.028 A 
HETATM   18  C   UNL     1      -1.972   6.899 -30.557  1.00  0.00     0.010 A 
HETATM   19  C   UNL     1      -3.230   6.703 -31.123  1.00  0.00     0.003 A 
HETATM   20  C   UNL     1      -3.574   5.453 -31.643  1.00  0.00     0.029 A 
BRANCH  17  21
HETATM   21  C   UNL     1       0.335   6.036 -29.908  1.00  0.00     0.147 C 
HETATM   22  C   UNL     1       0.468   7.389 -29.216  1.00  0.00     0.044 C 
BRANCH  21  23
HETATM   23  O   UNL     1       0.616   5.002 -28.966  1.00  0.00    -0.391 OA
HETATM   24  H   UNL     1       0.710   5.429 -28.100  1.00  0.00     0.210 HD
ENDBRANCH  21  23
ENDBRANCH  17  21
ENDBRANCH  12  15
ENDBRANCH   1  11
BRANCH   4  25
HETATM   25  C   UNL     1      -6.068  -2.573 -34.448  1.00  0.00     0.409 C 
HETATM   26  F   UNL     1      -7.282  -3.120 -34.211  1.00  0.00    -0.169 F 
HETATM   27  F   UNL     1      -5.594  -3.166 -35.579  1.00  0.00    -0.169 F 
HETATM   28  F   UNL     1      -5.229  -2.941 -33.458  1.00  0.00    -0.169 F 
ENDBRANCH   4  25
BRANCH   6  29
HETATM   29  C   UNL     1      -8.985   1.504 -34.074  1.00  0.00    -0.035 A 
HETATM   30  C   UNL     1     -10.059   0.668 -33.725  1.00  0.00     0.009 A 
HETATM   31  C   UNL     1     -11.323   1.202 -33.471  1.00  0.00     0.001 A 
HETATM   32  C   UNL     1     -11.533   2.576 -33.563  1.00  0.00     0.000 A 
HETATM   33  C   UNL     1     -10.479   3.419 -33.905  1.00  0.00     0.001 A 
HETATM   34  C   UNL     1      -9.212   2.887 -34.157  1.00  0.00     0.009 A 
ENDBRANCH   6  29
TORSDOF 6
ENDMDL
MODEL 9
REMARK VINA RESULT:      -8.4      4.362      7.175
REMARK  6 active torsions:
REMARK  status: ('A' for Active; 'I' for Inactive)
REMARK    1  A    between atoms: C_2  and  O_3 
REMARK    2  A    between atoms: C_2  and  C_4 
REMARK    3  A    between atoms: C_6  and  N_7 
REMARK       I    between atoms: N_7  and  C_8 
REMARK    4  A    between atoms: C_8  and  C_9 
REMARK    5  A    between atoms: C_12  and  C_13 
REMARK    6  A    between atoms: C_18  and  C_19 
ROOT
HETATM    1  C   UNL     1      -8.283   3.320 -33.364  1.00  0.00     0.096 A 
HETATM    2  C   UNL     1      -9.609   3.706 -33.436  1.00  0.00     0.138 A 
HETATM    3  N   UNL     1      -9.598   5.004 -33.897  1.00  0.00    -0.240 N 
HETATM    4  C   UNL     1     -10.792   5.782 -34.185  1.00  0.00     0.221 C 
HETATM    5  C   UNL     1     -12.001   4.843 -34.364  1.00  0.00     0.066 C 
HETATM    6  C   UNL     1     -12.040   3.817 -33.228  1.00  0.00     0.118 C 
HETATM    7  N   UNL     1     -10.783   3.064 -33.195  1.00  0.00    -0.365 N 
HETATM    8  N   UNL     1      -8.368   5.515 -34.036  1.00  0.00    -0.181 NA
HETATM    9  C   UNL     1      -7.571   4.479 -33.760  1.00  0.00     0.160 A 
HETATM   10  H   UNL     1     -10.876   2.066 -33.394  1.00  0.00     0.161 HD
ENDROOT
BRANCH   1  11
HETATM   11  C   UNL     1      -7.697   2.048 -32.970  1.00  0.00     0.261 C 
HETATM   12  N   UNL     1      -6.954   1.448 -33.969  1.00  0.00    -0.323 N 
HETATM   13  H   UNL     1      -7.011   1.896 -34.877  1.00  0.00     0.169 HD
HETATM   14  O   UNL     1      -7.904   1.592 -31.851  1.00  0.00    -0.267 OA
BRANCH  12  15
HETATM   15  C   UNL     1      -6.184   0.272 -33.890  1.00  0.00     0.035 A 
HETATM   16  C   UNL     1      -5.018   0.155 -33.128  1.00  0.00     0.039 A 
HETATM   17  C   UNL     1      -4.280  -1.043 -33.105  1.00  0.00    -0.028 A 
HETATM   18  C   UNL     1      -4.739  -2.132 -33.856  1.00  0.00     0.010 A 
HETATM   19  C   UNL     1      -5.898  -2.025 -34.623  1.00  0.00     0.003 A 
HETATM   20  C   UNL     1      -6.616  -0.827 -34.640  1.00  0.00     0.029 A 
BRANCH  17  21
HETATM   21  C   UNL     1      -3.037  -1.134 -32.247  1.00  0.00     0.147 C 
HETATM   22  C   UNL     1      -2.999  -0.023 -31.203  1.00  0.00     0.044 C 
BRANCH  21  23
HETATM   23  O   UNL     1      -2.983  -2.397 -31.584  1.00  0.00    -0.391 OA
HETATM   24  H   UNL     1      -2.232  -2.882 -31.964  1.00  0.00     0.210 HD
ENDBRANCH  21  23
ENDBRANCH  17  21
ENDBRANCH  12  15
ENDBRANCH   1  11
BRANCH   4  25
HETATM   25  C   UNL     1     -10.637   6.644 -35.422  1.00  0.00     0.409 C 
HETATM   26  F   UNL     1     -11.810   6.845 -36.063  1.00  0.00    -0.169 F 
HETATM   27  F   UNL     1     -10.183   7.875 -35.057  1.00  0.00    -0.169 F 
HETATM   28  F   UNL     1      -9.739   6.165 -36.306  1.00  0.00    -0.169 F 
ENDBRANCH   4  25
BRANCH   6  29
HETATM   29  C   UNL     1     -13.212   2.863 -33.338  1.00  0.00    -0.035 A 
HETATM   30  C   UNL     1     -13.277   1.884 -34.344  1.00  0.00     0.009 A 
HETATM   31  C   UNL     1     -14.368   1.017 -34.426  1.00  0.00     0.001 A 
HETATM   32  C   UNL     1     -15.409   1.114 -33.505  1.00  0.00     0.000 A 
HETATM   33  C   UNL     1     -15.359   2.076 -32.499  1.00  0.00     0.001 A 
HETATM   34  C   UNL     1     -14.267   2.944 -32.414  1.00  0.00     0.009 A 
ENDBRANCH   6  29
TORSDOF 6
ENDMDL
MODEL 10
REMARK VINA RESULT:      -8.3      4.091      7.432
REMARK  6 active torsions:
REMARK  status: ('A' for Active; 'I' for Inactive)
REMARK    1  A    between atoms: C_2  and  O_3 
REMARK    2  A    between atoms: C_2  and  C_4 
REMARK    3  A    between atoms: C_6  and  N_7 
REMARK       I    between atoms: N_7  and  C_8 
REMARK    4  A    between atoms: C_8  and  C_9 
REMARK    5  A    between atoms: C_12  and  C_13 
REMARK    6  A    between atoms: C_18  and  C_19 
ROOT
HETATM    1  C   UNL     1      -6.873   1.614 -32.129  1.00  0.00     0.096 A 
HETATM    2  C   UNL     1      -8.085   2.271 -32.238  1.00  0.00     0.138 A 
HETATM    3  N   UNL     1      -7.793   3.614 -32.151  1.00  0.00    -0.240 N 
HETATM    4  C   UNL     1      -8.776   4.677 -32.285  1.00  0.00     0.221 C 
HETATM    5  C   UNL     1     -10.037   4.142 -32.992  1.00  0.00     0.066 C 
HETATM    6  C   UNL     1     -10.463   2.811 -32.364  1.00  0.00     0.118 C 
HETATM    7  N   UNL     1      -9.361   1.848 -32.442  1.00  0.00    -0.365 N 
HETATM    8  N   UNL     1      -6.503   3.869 -31.897  1.00  0.00    -0.181 NA
HETATM    9  C   UNL     1      -5.937   2.659 -31.933  1.00  0.00     0.160 A 
HETATM   10  H   UNL     1      -9.548   1.030 -33.025  1.00  0.00     0.161 HD
ENDROOT
BRANCH   1  11
HETATM   11  C   UNL     1      -6.570   0.192 -32.179  1.00  0.00     0.261 C 
HETATM   12  N   UNL     1      -6.524  -0.319 -33.463  1.00  0.00    -0.323 N 
HETATM   13  H   UNL     1      -6.826   0.319 -34.191  1.00  0.00     0.169 HD
HETATM   14  O   UNL     1      -6.409  -0.444 -31.143  1.00  0.00    -0.267 OA
BRANCH  12  15
HETATM   15  C   UNL     1      -6.168  -1.620 -33.866  1.00  0.00     0.035 A 
HETATM   16  C   UNL     1      -4.970  -2.244 -33.510  1.00  0.00     0.039 A 
HETATM   17  C   UNL     1      -4.661  -3.541 -33.962  1.00  0.00    -0.028 A 
HETATM   18  C   UNL     1      -5.585  -4.209 -34.775  1.00  0.00     0.010 A 
HETATM   19  C   UNL     1      -6.781  -3.593 -35.140  1.00  0.00     0.003 A 
HETATM   20  C   UNL     1      -7.069  -2.303 -34.688  1.00  0.00     0.029 A 
BRANCH  17  21
HETATM   21  C   UNL     1      -3.363  -4.190 -33.530  1.00  0.00     0.147 C 
HETATM   22  C   UNL     1      -2.997  -3.806 -32.101  1.00  0.00     0.044 C 
BRANCH  21  23
HETATM   23  O   UNL     1      -3.465  -5.610 -33.619  1.00  0.00    -0.391 OA
HETATM   24  H   UNL     1      -3.241  -5.963 -32.743  1.00  0.00     0.210 HD
ENDBRANCH  21  23
ENDBRANCH  17  21
ENDBRANCH  12  15
ENDBRANCH   1  11
BRANCH   4  25
HETATM   25  C   UNL     1      -8.239   5.869 -33.052  1.00  0.00     0.409 C 
HETATM   26  F   UNL     1      -7.487   5.505 -34.115  1.00  0.00    -0.169 F 
HETATM   27  F   UNL     1      -9.282   6.591 -33.548  1.00  0.00    -0.169 F 
HETATM   28  F   UNL     1      -7.525   6.724 -32.292  1.00  0.00    -0.169 F 
ENDBRANCH   4  25
BRANCH   6  29
HETATM   29  C   UNL     1     -11.706   2.229 -33.007  1.00  0.00    -0.035 A 
HETATM   30  C   UNL     1     -12.906   2.956 -33.087  1.00  0.00     0.009 A 
HETATM   31  C   UNL     1     -14.038   2.399 -33.684  1.00  0.00     0.001 A 
HETATM   32  C   UNL     1     -13.988   1.110 -34.210  1.00  0.00     0.000 A 
HETATM   33  C   UNL     1     -12.806   0.377 -34.143  1.00  0.00     0.001 A 
HETATM   34  C   UNL     1     -11.671   0.934 -33.547  1.00  0.00     0.009 A 
ENDBRANCH   6  29
TORSDOF 6
ENDMDL
