MODEL 1
REMARK VINA RESULT:      -9.2      0.000      0.000
REMARK  8 active torsions:
REMARK  status: ('A' for Active; 'I' for Inactive)
REMARK    1  A    between atoms: C_2  and  C_3 
REMARK    2  A    between atoms: C_3  and  N_4 
REMARK       I    between atoms: N_4  and  C_5 
REMARK    3  A    between atoms: C_5  and  C_6 
REMARK    4  A    between atoms: C_7  and  N_8 
REMARK    5  A    between atoms: N_11  and  C_12 
REMARK    6  A    between atoms: C_13  and  O_14 
REMARK    7  A    between atoms: C_24  and  N_25 
REMARK       I    between atoms: N_25  and  C_26 
REMARK       I    between atoms: C_26  and  N_27 
REMARK    8  A    between atoms: N_27  and  C_28 
ROOT
HETATM    1  C   UNL     1      -4.616   2.888 -31.802  1.00  0.00     0.060 A 
HETATM    2  C   UNL     1      -5.465   3.769 -32.505  1.00  0.00     0.046 A 
HETATM    3  C   UNL     1      -5.001   5.090 -32.647  1.00  0.00     0.032 A 
HETATM    4  C   UNL     1      -3.797   5.533 -32.075  1.00  0.00     0.032 A 
HETATM    5  C   UNL     1      -3.015   4.666 -31.323  1.00  0.00     0.037 A 
HETATM    6  C   UNL     1      -3.421   3.339 -31.203  1.00  0.00     0.049 A 
ENDROOT
BRANCH   2   7
HETATM    7  N   UNL     1      -6.716   3.400 -32.984  1.00  0.00    -0.378 N 
HETATM    8  C   UNL     1      -6.804   2.608 -34.228  1.00  0.00     0.138 C 
HETATM    9  C   UNL     1      -8.115   1.784 -34.233  1.00  0.00     0.115 C 
HETATM   10  N   UNL     1      -9.298   2.666 -34.063  1.00  0.00    -0.278 NA
HETATM   11  C   UNL     1      -9.196   3.482 -32.822  1.00  0.00     0.115 C 
HETATM   12  C   UNL     1      -7.878   4.294 -32.798  1.00  0.00     0.138 C 
BRANCH  10  13
HETATM   13  C   UNL     1     -10.581   2.078 -34.187  1.00  0.00     0.044 A 
HETATM   14  C   UNL     1     -11.580   2.690 -34.995  1.00  0.00     0.089 A 
HETATM   15  C   UNL     1     -12.860   2.122 -35.087  1.00  0.00     0.038 A 
HETATM   16  C   UNL     1     -13.169   0.952 -34.394  1.00  0.00     0.003 A 
HETATM   17  C   UNL     1     -12.204   0.338 -33.610  1.00  0.00     0.002 A 
HETATM   18  C   UNL     1     -10.925   0.893 -33.511  1.00  0.00     0.026 A 
BRANCH  14  19
HETATM   19  O   UNL     1     -11.202   3.827 -35.675  1.00  0.00    -0.354 OA
HETATM   20  C   UNL     1     -11.775   5.060 -35.268  1.00  0.00     0.210 C 
ENDBRANCH  14  19
ENDBRANCH  10  13
ENDBRANCH   2   7
BRANCH   1  21
HETATM   21  C   UNL     1      -4.949   1.460 -31.542  1.00  0.00     0.254 C 
HETATM   22  N   UNL     1      -4.420   0.593 -32.480  1.00  0.00    -0.353 N 
HETATM   23  H   UNL     1      -4.004   1.005 -33.306  1.00  0.00     0.163 HD
HETATM   24  O   UNL     1      -5.579   1.121 -30.551  1.00  0.00    -0.268 OA
BRANCH  22  25
HETATM   25  C   UNL     1      -4.462  -0.864 -32.425  1.00  0.00     0.080 C 
HETATM   26  C   UNL     1      -5.010  -1.499 -33.701  1.00  0.00     0.032 C 
BRANCH  25  27
HETATM   27  C   UNL     1      -3.161  -1.501 -31.911  1.00  0.00     0.020 C 
HETATM   28  C   UNL     1      -3.098  -3.018 -31.930  1.00  0.00     0.007 C 
ENDBRANCH  25  27
ENDBRANCH  22  25
ENDBRANCH   1  21
BRANCH   5  29
HETATM   29  N   UNL     1      -1.875   5.065 -30.602  1.00  0.00    -0.309 N 
HETATM   30  C   UNL     1      -1.691   6.249 -29.906  1.00  0.00     0.325 C 
HETATM   31  N   UNL     1      -0.623   6.113 -29.035  1.00  0.00    -0.307 N 
HETATM   32  O   UNL     1      -2.376   7.253 -30.036  1.00  0.00    -0.247 OA
HETATM   33  H   UNL     1      -0.423   5.166 -28.741  1.00  0.00     0.170 HD
HETATM   34  H   UNL     1      -1.055   4.482 -30.682  1.00  0.00     0.170 HD
BRANCH  31  35
HETATM   35  C   UNL     1      -0.030   7.121 -28.241  1.00  0.00     0.053 A 
HETATM   36  C   UNL     1      -0.521   7.339 -26.940  1.00  0.00     0.037 A 
HETATM   37 BR   UNL     1      -1.986   6.335 -26.254  1.00  0.00    -0.049 Br
HETATM   38  C   UNL     1       0.044   8.314 -26.114  1.00  0.00     0.021 A 
HETATM   39  C   UNL     1       1.116   9.074 -26.573  1.00  0.00     0.002 A 
HETATM   40  C   UNL     1       1.620   8.858 -27.853  1.00  0.00     0.002 A 
HETATM   41  C   UNL     1       1.052   7.887 -28.683  1.00  0.00     0.031 A 
ENDBRANCH  31  35
ENDBRANCH   5  29
TORSDOF 8
ENDMDL
MODEL 2
REMARK VINA RESULT:      -9.0      2.887      5.213
REMARK  8 active torsions:
REMARK  status: ('A' for Active; 'I' for Inactive)
REMARK    1  A    between atoms: C_2  and  C_3 
REMARK    2  A    between atoms: C_3  and  N_4 
REMARK       I    between atoms: N_4  and  C_5 
REMARK    3  A    between atoms: C_5  and  C_6 
REMARK    4  A    between atoms: C_7  and  N_8 
REMARK    5  A    between atoms: N_11  and  C_12 
REMARK    6  A    between atoms: C_13  and  O_14 
REMARK    7  A    between atoms: C_24  and  N_25 
REMARK       I    between atoms: N_25  and  C_26 
REMARK       I    between atoms: C_26  and  N_27 
REMARK    8  A    between atoms: N_27  and  C_28 
ROOT
HETATM    1  C   UNL     1      -3.838   5.846 -30.380  1.00  0.00     0.060 A 
HETATM    2  C   UNL     1      -4.953   5.048 -30.046  1.00  0.00     0.046 A 
HETATM    3  C   UNL     1      -5.657   5.425 -28.887  1.00  0.00     0.032 A 
HETATM    4  C   UNL     1      -5.249   6.491 -28.070  1.00  0.00     0.032 A 
HETATM    5  C   UNL     1      -4.104   7.215 -28.378  1.00  0.00     0.037 A 
HETATM    6  C   UNL     1      -3.411   6.898 -29.544  1.00  0.00     0.049 A 
ENDROOT
BRANCH   2   7
HETATM    7  N   UNL     1      -5.320   3.916 -30.764  1.00  0.00    -0.378 N 
HETATM    8  C   UNL     1      -6.089   4.075 -32.015  1.00  0.00     0.138 C 
HETATM    9  C   UNL     1      -5.835   2.861 -32.944  1.00  0.00     0.115 C 
HETATM   10  N   UNL     1      -6.169   1.588 -32.257  1.00  0.00    -0.278 NA
HETATM   11  C   UNL     1      -5.412   1.441 -30.983  1.00  0.00     0.115 C 
HETATM   12  C   UNL     1      -5.643   2.658 -30.056  1.00  0.00     0.138 C 
BRANCH  10  13
HETATM   13  C   UNL     1      -6.125   0.396 -33.022  1.00  0.00     0.044 A 
HETATM   14  C   UNL     1      -7.303  -0.108 -33.642  1.00  0.00     0.089 A 
HETATM   15  C   UNL     1      -7.260  -1.307 -34.370  1.00  0.00     0.038 A 
HETATM   16  C   UNL     1      -6.067  -2.017 -34.499  1.00  0.00     0.003 A 
HETATM   17  C   UNL     1      -4.908  -1.535 -33.909  1.00  0.00     0.002 A 
HETATM   18  C   UNL     1      -4.937  -0.341 -33.183  1.00  0.00     0.026 A 
BRANCH  14  19
HETATM   19  O   UNL     1      -8.441   0.655 -33.500  1.00  0.00    -0.354 OA
HETATM   20  C   UNL     1      -9.490   0.133 -32.699  1.00  0.00     0.210 C 
ENDBRANCH  14  19
ENDBRANCH  10  13
ENDBRANCH   2   7
BRANCH   1  21
HETATM   21  C   UNL     1      -2.968   5.588 -31.560  1.00  0.00     0.254 C 
HETATM   22  N   UNL     1      -3.166   6.483 -32.595  1.00  0.00    -0.353 N 
HETATM   23  H   UNL     1      -3.960   7.108 -32.519  1.00  0.00     0.163 HD
HETATM   24  O   UNL     1      -2.128   4.700 -31.553  1.00  0.00    -0.268 OA
BRANCH  22  25
HETATM   25  C   UNL     1      -2.380   6.569 -33.821  1.00  0.00     0.080 C 
HETATM   26  C   UNL     1      -0.927   6.973 -33.577  1.00  0.00     0.032 C 
BRANCH  25  27
HETATM   27  C   UNL     1      -2.550   5.357 -34.750  1.00  0.00     0.020 C 
HETATM   28  C   UNL     1      -3.952   5.101 -35.277  1.00  0.00     0.007 C 
ENDBRANCH  25  27
ENDBRANCH  22  25
ENDBRANCH   1  21
BRANCH   5  29
HETATM   29  N   UNL     1      -3.550   8.199 -27.539  1.00  0.00    -0.309 N 
HETATM   30  C   UNL     1      -2.625   8.016 -26.523  1.00  0.00     0.325 C 
HETATM   31  N   UNL     1      -2.053   9.233 -26.193  1.00  0.00    -0.307 N 
HETATM   32  O   UNL     1      -2.352   6.941 -26.009  1.00  0.00    -0.247 OA
HETATM   33  H   UNL     1      -2.059   9.927 -26.929  1.00  0.00     0.170 HD
HETATM   34  H   UNL     1      -3.942   9.127 -27.601  1.00  0.00     0.170 HD
BRANCH  31  35
HETATM   35  C   UNL     1      -1.164   9.502 -25.128  1.00  0.00     0.053 A 
HETATM   36  C   UNL     1       0.222   9.436 -25.366  1.00  0.00     0.037 A 
HETATM   37 BR   UNL     1       0.911   8.956 -27.074  1.00  0.00    -0.049 Br
HETATM   38  C   UNL     1       1.139   9.709 -24.348  1.00  0.00     0.021 A 
HETATM   39  C   UNL     1       0.682  10.063 -23.081  1.00  0.00     0.002 A 
HETATM   40  C   UNL     1      -0.687  10.145 -22.837  1.00  0.00     0.002 A 
HETATM   41  C   UNL     1      -1.605   9.866 -23.853  1.00  0.00     0.031 A 
ENDBRANCH  31  35
ENDBRANCH   5  29
TORSDOF 8
ENDMDL
MODEL 3
REMARK VINA RESULT:      -8.8      1.867      2.224
REMARK  8 active torsions:
REMARK  status: ('A' for Active; 'I' for Inactive)
REMARK    1  A    between atoms: C_2  and  C_3 
REMARK    2  A    between atoms: C_3  and  N_4 
REMARK       I    between atoms: N_4  and  C_5 
REMARK    3  A    between atoms: C_5  and  C_6 
REMARK    4  A    between atoms: C_7  and  N_8 
REMARK    5  A    between atoms: N_11  and  C_12 
REMARK    6  A    between atoms: C_13  and  O_14 
REMARK    7  A    between atoms: C_24  and  N_25 
REMARK       I    between atoms: N_25  and  C_26 
REMARK       I    between atoms: C_26  and  N_27 
REMARK    8  A    between atoms: N_27  and  C_28 
ROOT
HETATM    1  C   UNL     1      -5.984   3.638 -32.451  1.00  0.00     0.060 A 
HETATM    2  C   UNL     1      -7.089   4.439 -32.810  1.00  0.00     0.046 A 
HETATM    3  C   UNL     1      -6.833   5.815 -32.953  1.00  0.00     0.032 A 
HETATM    4  C   UNL     1      -5.573   6.379 -32.698  1.00  0.00     0.032 A 
HETATM    5  C   UNL     1      -4.519   5.581 -32.272  1.00  0.00     0.037 A 
HETATM    6  C   UNL     1      -4.725   4.208 -32.166  1.00  0.00     0.049 A 
ENDROOT
BRANCH   2   7
HETATM    7  N   UNL     1      -8.376   3.936 -32.958  1.00  0.00    -0.378 N 
HETATM    8  C   UNL     1      -9.107   4.192 -34.215  1.00  0.00     0.138 C 
HETATM    9  C   UNL     1     -10.159   3.077 -34.445  1.00  0.00     0.115 C 
HETATM   10  N   UNL     1     -11.084   2.973 -33.288  1.00  0.00    -0.278 NA
HETATM   11  C   UNL     1     -10.344   2.741 -32.017  1.00  0.00     0.115 C 
HETATM   12  C   UNL     1      -9.276   3.838 -31.789  1.00  0.00     0.138 C 
BRANCH  10  13
HETATM   13  C   UNL     1     -12.189   2.094 -33.406  1.00  0.00     0.044 A 
HETATM   14  C   UNL     1     -13.508   2.554 -33.134  1.00  0.00     0.089 A 
HETATM   15  C   UNL     1     -14.596   1.672 -33.220  1.00  0.00     0.038 A 
HETATM   16  C   UNL     1     -14.401   0.337 -33.574  1.00  0.00     0.003 A 
HETATM   17  C   UNL     1     -13.123  -0.125 -33.851  1.00  0.00     0.002 A 
HETATM   18  C   UNL     1     -12.032   0.745 -33.771  1.00  0.00     0.026 A 
BRANCH  14  19
HETATM   19  O   UNL     1     -13.636   3.889 -32.818  1.00  0.00    -0.354 OA
HETATM   20  C   UNL     1     -14.027   4.219 -31.493  1.00  0.00     0.210 C 
ENDBRANCH  14  19
ENDBRANCH  10  13
ENDBRANCH   2   7
BRANCH   1  21
HETATM   21  C   UNL     1      -6.070   2.167 -32.239  1.00  0.00     0.254 C 
HETATM   22  N   UNL     1      -6.021   1.440 -33.415  1.00  0.00    -0.353 N 
HETATM   23  H   UNL     1      -6.085   1.959 -34.282  1.00  0.00     0.163 HD
HETATM   24  O   UNL     1      -6.117   1.684 -31.118  1.00  0.00    -0.268 OA
BRANCH  22  25
HETATM   25  C   UNL     1      -5.953  -0.013 -33.525  1.00  0.00     0.080 C 
HETATM   26  C   UNL     1      -6.728  -0.563 -34.721  1.00  0.00     0.032 C 
BRANCH  25  27
HETATM   27  C   UNL     1      -4.530  -0.577 -33.382  1.00  0.00     0.020 C 
HETATM   28  C   UNL     1      -4.368  -2.069 -33.613  1.00  0.00     0.007 C 
ENDBRANCH  25  27
ENDBRANCH  22  25
ENDBRANCH   1  21
BRANCH   5  29
HETATM   29  N   UNL     1      -3.272   6.085 -31.859  1.00  0.00    -0.309 N 
HETATM   30  C   UNL     1      -2.941   6.599 -30.615  1.00  0.00     0.325 C 
HETATM   31  N   UNL     1      -1.564   6.635 -30.480  1.00  0.00    -0.307 N 
HETATM   32  O   UNL     1      -3.747   6.955 -29.767  1.00  0.00    -0.247 OA
HETATM   33  H   UNL     1      -1.057   5.967 -31.046  1.00  0.00     0.170 HD
HETATM   34  H   UNL     1      -2.562   6.190 -32.569  1.00  0.00     0.170 HD
BRANCH  31  35
HETATM   35  C   UNL     1      -0.820   7.204 -29.421  1.00  0.00     0.053 A 
HETATM   36  C   UNL     1       0.300   6.509 -28.926  1.00  0.00     0.037 A 
HETATM   37 BR   UNL     1       0.801   4.812 -29.627  1.00  0.00    -0.049 Br
HETATM   38  C   UNL     1       1.073   7.040 -27.891  1.00  0.00     0.021 A 
HETATM   39  C   UNL     1       0.745   8.278 -27.345  1.00  0.00     0.002 A 
HETATM   40  C   UNL     1      -0.353   8.981 -27.836  1.00  0.00     0.002 A 
HETATM   41  C   UNL     1      -1.132   8.448 -28.868  1.00  0.00     0.031 A 
ENDBRANCH  31  35
ENDBRANCH   5  29
TORSDOF 8
ENDMDL
MODEL 4
REMARK VINA RESULT:      -8.6      3.107      5.536
REMARK  8 active torsions:
REMARK  status: ('A' for Active; 'I' for Inactive)
REMARK    1  A    between atoms: C_2  and  C_3 
REMARK    2  A    between atoms: C_3  and  N_4 
REMARK       I    between atoms: N_4  and  C_5 
REMARK    3  A    between atoms: C_5  and  C_6 
REMARK    4  A    between atoms: C_7  and  N_8 
REMARK    5  A    between atoms: N_11  and  C_12 
REMARK    6  A    between atoms: C_13  and  O_14 
REMARK    7  A    between atoms: C_24  and  N_25 
REMARK       I    between atoms: N_25  and  C_26 
REMARK       I    between atoms: C_26  and  N_27 
REMARK    8  A    between atoms: N_27  and  C_28 
ROOT
HETATM    1  C   UNL     1      -4.530   6.207 -29.855  1.00  0.00     0.060 A 
HETATM    2  C   UNL     1      -5.347   5.156 -29.386  1.00  0.00     0.046 A 
HETATM    3  C   UNL     1      -5.733   5.230 -28.035  1.00  0.00     0.032 A 
HETATM    4  C   UNL     1      -5.289   6.250 -27.178  1.00  0.00     0.032 A 
HETATM    5  C   UNL     1      -4.424   7.231 -27.643  1.00  0.00     0.037 A 
HETATM    6  C   UNL     1      -4.060   7.215 -28.987  1.00  0.00     0.049 A 
ENDROOT
BRANCH   2   7
HETATM    7  N   UNL     1      -5.712   4.069 -30.171  1.00  0.00    -0.378 N 
HETATM    8  C   UNL     1      -7.081   3.525 -30.054  1.00  0.00     0.138 C 
HETATM    9  C   UNL     1      -7.479   2.822 -31.376  1.00  0.00     0.115 C 
HETATM   10  N   UNL     1      -6.500   1.763 -31.730  1.00  0.00    -0.278 NA
HETATM   11  C   UNL     1      -5.117   2.307 -31.822  1.00  0.00     0.115 C 
HETATM   12  C   UNL     1      -4.717   3.030 -30.514  1.00  0.00     0.138 C 
BRANCH  10  13
HETATM   13  C   UNL     1      -6.800   0.933 -32.839  1.00  0.00     0.044 A 
HETATM   14  C   UNL     1      -6.306  -0.400 -32.896  1.00  0.00     0.089 A 
HETATM   15  C   UNL     1      -6.578  -1.207 -34.012  1.00  0.00     0.038 A 
HETATM   16  C   UNL     1      -7.336  -0.717 -35.075  1.00  0.00     0.003 A 
HETATM   17  C   UNL     1      -7.833   0.578 -35.030  1.00  0.00     0.002 A 
HETATM   18  C   UNL     1      -7.571   1.390 -33.924  1.00  0.00     0.026 A 
BRANCH  14  19
HETATM   19  O   UNL     1      -5.589  -0.833 -31.802  1.00  0.00    -0.354 OA
HETATM   20  C   UNL     1      -4.265  -1.297 -32.023  1.00  0.00     0.210 C 
ENDBRANCH  14  19
ENDBRANCH  10  13
ENDBRANCH   2   7
BRANCH   1  21
HETATM   21  C   UNL     1      -4.014   6.286 -31.249  1.00  0.00     0.254 C 
HETATM   22  N   UNL     1      -2.635   6.203 -31.329  1.00  0.00    -0.353 N 
HETATM   23  H   UNL     1      -2.119   6.252 -30.459  1.00  0.00     0.163 HD
HETATM   24  O   UNL     1      -4.768   6.355 -32.207  1.00  0.00    -0.268 OA
BRANCH  22  25
HETATM   25  C   UNL     1      -1.848   6.120 -32.554  1.00  0.00     0.080 C 
HETATM   26  C   UNL     1      -1.616   7.478 -33.214  1.00  0.00     0.032 C 
BRANCH  25  27
HETATM   27  C   UNL     1      -0.581   5.260 -32.418  1.00  0.00     0.020 C 
HETATM   28  C   UNL     1       0.241   5.465 -31.158  1.00  0.00     0.007 C 
ENDBRANCH  25  27
ENDBRANCH  22  25
ENDBRANCH   1  21
BRANCH   5  29
HETATM   29  N   UNL     1      -3.821   8.199 -26.818  1.00  0.00    -0.309 N 
HETATM   30  C   UNL     1      -2.725   8.034 -25.987  1.00  0.00     0.325 C 
HETATM   31  N   UNL     1      -2.212   9.273 -25.644  1.00  0.00    -0.307 N 
HETATM   32  O   UNL     1      -2.277   6.955 -25.624  1.00  0.00    -0.247 OA
HETATM   33  H   UNL     1      -2.403  10.017 -26.303  1.00  0.00     0.170 HD
HETATM   34  H   UNL     1      -4.296   9.086 -26.731  1.00  0.00     0.170 HD
BRANCH  31  35
HETATM   35  C   UNL     1      -1.181   9.548 -24.717  1.00  0.00     0.053 A 
HETATM   36  C   UNL     1       0.153   9.551 -25.166  1.00  0.00     0.037 A 
HETATM   37 BR   UNL     1       0.591   9.155 -26.975  1.00  0.00    -0.049 Br
HETATM   38  C   UNL     1       1.204   9.833 -24.289  1.00  0.00     0.021 A 
HETATM   39  C   UNL     1       0.933  10.127 -22.955  1.00  0.00     0.002 A 
HETATM   40  C   UNL     1      -0.384  10.141 -22.503  1.00  0.00     0.002 A 
HETATM   41  C   UNL     1      -1.436   9.853 -23.378  1.00  0.00     0.031 A 
ENDBRANCH  31  35
ENDBRANCH   5  29
TORSDOF 8
ENDMDL
MODEL 5
REMARK VINA RESULT:      -8.4      5.524      8.756
REMARK  8 active torsions:
REMARK  status: ('A' for Active; 'I' for Inactive)
REMARK    1  A    between atoms: C_2  and  C_3 
REMARK    2  A    between atoms: C_3  and  N_4 
REMARK       I    between atoms: N_4  and  C_5 
REMARK    3  A    between atoms: C_5  and  C_6 
REMARK    4  A    between atoms: C_7  and  N_8 
REMARK    5  A    between atoms: N_11  and  C_12 
REMARK    6  A    between atoms: C_13  and  O_14 
REMARK    7  A    between atoms: C_24  and  N_25 
REMARK       I    between atoms: N_25  and  C_26 
REMARK       I    between atoms: C_26  and  N_27 
REMARK    8  A    between atoms: N_27  and  C_28 
ROOT
HETATM    1  C   UNL     1      -9.908   2.597 -33.474  1.00  0.00     0.060 A 
HETATM    2  C   UNL     1      -9.945   3.559 -32.442  1.00  0.00     0.046 A 
HETATM    3  C   UNL     1      -8.720   3.828 -31.804  1.00  0.00     0.032 A 
HETATM    4  C   UNL     1      -7.537   3.143 -32.123  1.00  0.00     0.032 A 
HETATM    5  C   UNL     1      -7.541   2.146 -33.090  1.00  0.00     0.037 A 
HETATM    6  C   UNL     1      -8.726   1.888 -33.774  1.00  0.00     0.049 A 
ENDROOT
BRANCH   2   7
HETATM    7  N   UNL     1     -11.117   4.174 -32.018  1.00  0.00    -0.378 N 
HETATM    8  C   UNL     1     -11.528   5.447 -32.645  1.00  0.00     0.138 C 
HETATM    9  C   UNL     1     -13.065   5.611 -32.537  1.00  0.00     0.115 C 
HETATM   10  N   UNL     1     -13.511   5.531 -31.123  1.00  0.00    -0.278 NA
HETATM   11  C   UNL     1     -13.073   4.259 -30.485  1.00  0.00     0.115 C 
HETATM   12  C   UNL     1     -11.541   4.075 -30.605  1.00  0.00     0.138 C 
BRANCH  10  13
HETATM   13  C   UNL     1     -14.873   5.803 -30.845  1.00  0.00     0.044 A 
HETATM   14  C   UNL     1     -15.231   6.710 -29.808  1.00  0.00     0.089 A 
HETATM   15  C   UNL     1     -16.582   6.950 -29.515  1.00  0.00     0.038 A 
HETATM   16  C   UNL     1     -17.590   6.309 -30.234  1.00  0.00     0.003 A 
HETATM   17  C   UNL     1     -17.258   5.430 -31.255  1.00  0.00     0.002 A 
HETATM   18  C   UNL     1     -15.916   5.184 -31.558  1.00  0.00     0.026 A 
BRANCH  14  19
HETATM   19  O   UNL     1     -14.189   7.331 -29.154  1.00  0.00    -0.354 OA
HETATM   20  C   UNL     1     -14.176   7.280 -27.736  1.00  0.00     0.210 C 
ENDBRANCH  14  19
ENDBRANCH  10  13
ENDBRANCH   2   7
BRANCH   1  21
HETATM   21  C   UNL     1     -11.108   2.176 -34.247  1.00  0.00     0.254 C 
HETATM   22  N   UNL     1     -11.853   1.198 -33.613  1.00  0.00    -0.353 N 
HETATM   23  H   UNL     1     -11.446   0.768 -32.792  1.00  0.00     0.163 HD
HETATM   24  O   UNL     1     -11.406   2.708 -35.305  1.00  0.00    -0.268 OA
BRANCH  22  25
HETATM   25  C   UNL     1     -13.143   0.678 -34.055  1.00  0.00     0.080 C 
HETATM   26  C   UNL     1     -13.446  -0.719 -33.516  1.00  0.00     0.032 C 
BRANCH  25  27
HETATM   27  C   UNL     1     -14.299   1.680 -33.897  1.00  0.00     0.020 C 
HETATM   28  C   UNL     1     -14.955   1.744 -32.528  1.00  0.00     0.007 C 
ENDBRANCH  25  27
ENDBRANCH  22  25
ENDBRANCH   1  21
BRANCH   5  29
HETATM   29  N   UNL     1      -6.437   1.318 -33.366  1.00  0.00    -0.309 N 
HETATM   30  C   UNL     1      -6.280  -0.016 -33.028  1.00  0.00     0.325 C 
HETATM   31  N   UNL     1      -5.260  -0.569 -33.784  1.00  0.00    -0.307 N 
HETATM   32  O   UNL     1      -6.950  -0.612 -32.196  1.00  0.00    -0.247 OA
HETATM   33  H   UNL     1      -5.084  -0.114 -34.670  1.00  0.00     0.170 HD
HETATM   34  H   UNL     1      -5.619   1.761 -33.756  1.00  0.00     0.170 HD
BRANCH  31  35
HETATM   35  C   UNL     1      -4.702  -1.861 -33.657  1.00  0.00     0.053 A 
HETATM   36  C   UNL     1      -3.718  -2.083 -32.675  1.00  0.00     0.037 A 
HETATM   37 BR   UNL     1      -3.102  -0.674 -31.554  1.00  0.00    -0.049 Br
HETATM   38  C   UNL     1      -3.148  -3.347 -32.503  1.00  0.00     0.021 A 
HETATM   39  C   UNL     1      -3.565  -4.410 -33.301  1.00  0.00     0.002 A 
HETATM   40  C   UNL     1      -4.549  -4.206 -34.266  1.00  0.00     0.002 A 
HETATM   41  C   UNL     1      -5.115  -2.939 -34.444  1.00  0.00     0.031 A 
ENDBRANCH  31  35
ENDBRANCH   5  29
TORSDOF 8
ENDMDL
MODEL 6
REMARK VINA RESULT:      -8.1      5.513     11.230
REMARK  8 active torsions:
REMARK  status: ('A' for Active; 'I' for Inactive)
REMARK    1  A    between atoms: C_2  and  C_3 
REMARK    2  A    between atoms: C_3  and  N_4 
REMARK       I    between atoms: N_4  and  C_5 
REMARK    3  A    between atoms: C_5  and  C_6 
REMARK    4  A    between atoms: C_7  and  N_8 
REMARK    5  A    between atoms: N_11  and  C_12 
REMARK    6  A    between atoms: C_13  and  O_14 
REMARK    7  A    between atoms: C_24  and  N_25 
REMARK       I    between atoms: N_25  and  C_26 
REMARK       I    between atoms: C_26  and  N_27 
REMARK    8  A    between atoms: N_27  and  C_28 
ROOT
HETATM    1  C   UNL     1     -10.579   3.156 -33.235  1.00  0.00     0.060 A 
HETATM    2  C   UNL     1     -10.353   1.769 -33.367  1.00  0.00     0.046 A 
HETATM    3  C   UNL     1     -11.489   0.982 -33.635  1.00  0.00     0.032 A 
HETATM    4  C   UNL     1     -12.782   1.524 -33.708  1.00  0.00     0.032 A 
HETATM    5  C   UNL     1     -12.989   2.881 -33.499  1.00  0.00     0.037 A 
HETATM    6  C   UNL     1     -11.881   3.696 -33.279  1.00  0.00     0.049 A 
ENDROOT
BRANCH   2   7
HETATM    7  N   UNL     1      -9.107   1.181 -33.186  1.00  0.00    -0.378 N 
HETATM    8  C   UNL     1      -8.288   0.854 -34.371  1.00  0.00     0.138 C 
HETATM    9  C   UNL     1      -6.788   0.840 -33.983  1.00  0.00     0.115 C 
HETATM   10  N   UNL     1      -6.537  -0.109 -32.868  1.00  0.00    -0.278 NA
HETATM   11  C   UNL     1      -7.383   0.205 -31.684  1.00  0.00     0.115 C 
HETATM   12  C   UNL     1      -8.882   0.243 -32.066  1.00  0.00     0.138 C 
BRANCH  10  13
HETATM   13  C   UNL     1      -5.191  -0.342 -32.491  1.00  0.00     0.044 A 
HETATM   14  C   UNL     1      -4.510  -1.510 -32.935  1.00  0.00     0.089 A 
HETATM   15  C   UNL     1      -3.188  -1.752 -32.531  1.00  0.00     0.038 A 
HETATM   16  C   UNL     1      -2.524  -0.854 -31.696  1.00  0.00     0.003 A 
HETATM   17  C   UNL     1      -3.171   0.295 -31.262  1.00  0.00     0.002 A 
HETATM   18  C   UNL     1      -4.488   0.548 -31.659  1.00  0.00     0.026 A 
BRANCH  14  19
HETATM   19  O   UNL     1      -5.210  -2.341 -33.780  1.00  0.00    -0.354 OA
HETATM   20  C   UNL     1      -4.477  -3.324 -34.496  1.00  0.00     0.210 C 
ENDBRANCH  14  19
ENDBRANCH  10  13
ENDBRANCH   2   7
BRANCH   1  21
HETATM   21  C   UNL     1      -9.501   4.138 -32.936  1.00  0.00     0.254 C 
HETATM   22  N   UNL     1      -9.295   4.332 -31.582  1.00  0.00    -0.353 N 
HETATM   23  H   UNL     1      -9.973   3.924 -30.950  1.00  0.00     0.163 HD
HETATM   24  O   UNL     1      -8.842   4.655 -33.826  1.00  0.00    -0.268 OA
BRANCH  22  25
HETATM   25  C   UNL     1      -8.231   5.127 -30.979  1.00  0.00     0.080 C 
HETATM   26  C   UNL     1      -8.732   6.081 -29.896  1.00  0.00     0.032 C 
BRANCH  25  27
HETATM   27  C   UNL     1      -6.998   4.303 -30.574  1.00  0.00     0.020 C 
HETATM   28  C   UNL     1      -6.032   3.941 -31.688  1.00  0.00     0.007 C 
ENDBRANCH  25  27
ENDBRANCH  22  25
ENDBRANCH   1  21
BRANCH   5  29
HETATM   29  N   UNL     1     -14.261   3.476 -33.413  1.00  0.00    -0.309 N 
HETATM   30  C   UNL     1     -14.939   3.852 -32.265  1.00  0.00     0.325 C 
HETATM   31  N   UNL     1     -15.961   4.725 -32.595  1.00  0.00    -0.307 N 
HETATM   32  O   UNL     1     -14.665   3.476 -31.134  1.00  0.00    -0.247 OA
HETATM   33  H   UNL     1     -15.824   5.247 -33.451  1.00  0.00     0.170 HD
HETATM   34  H   UNL     1     -14.795   3.541 -34.267  1.00  0.00     0.170 HD
BRANCH  31  35
HETATM   35  C   UNL     1     -16.961   5.239 -31.738  1.00  0.00     0.053 A 
HETATM   36  C   UNL     1     -18.245   4.662 -31.768  1.00  0.00     0.037 A 
HETATM   37 BR   UNL     1     -18.663   3.240 -32.963  1.00  0.00    -0.049 Br
HETATM   38  C   UNL     1     -19.260   5.126 -30.928  1.00  0.00     0.021 A 
HETATM   39  C   UNL     1     -19.001   6.166 -30.038  1.00  0.00     0.002 A 
HETATM   40  C   UNL     1     -17.731   6.735 -29.989  1.00  0.00     0.002 A 
HETATM   41  C   UNL     1     -16.716   6.275 -30.834  1.00  0.00     0.031 A 
ENDBRANCH  31  35
ENDBRANCH   5  29
TORSDOF 8
ENDMDL
MODEL 7
REMARK VINA RESULT:      -8.0      3.910     11.390
REMARK  8 active torsions:
REMARK  status: ('A' for Active; 'I' for Inactive)
REMARK    1  A    between atoms: C_2  and  C_3 
REMARK    2  A    between atoms: C_3  and  N_4 
REMARK       I    between atoms: N_4  and  C_5 
REMARK    3  A    between atoms: C_5  and  C_6 
REMARK    4  A    between atoms: C_7  and  N_8 
REMARK    5  A    between atoms: N_11  and  C_12 
REMARK    6  A    between atoms: C_13  and  O_14 
REMARK    7  A    between atoms: C_24  and  N_25 
REMARK       I    between atoms: N_25  and  C_26 
REMARK       I    between atoms: C_26  and  N_27 
REMARK    8  A    between atoms: N_27  and  C_28 
ROOT
HETATM    1  C   UNL     1      -5.802   5.566 -31.133  1.00  0.00     0.060 A 
HETATM    2  C   UNL     1      -5.851   6.415 -30.007  1.00  0.00     0.046 A 
HETATM    3  C   UNL     1      -7.135   6.718 -29.518  1.00  0.00     0.032 A 
HETATM    4  C   UNL     1      -8.308   6.261 -30.141  1.00  0.00     0.032 A 
HETATM    5  C   UNL     1      -8.236   5.490 -31.293  1.00  0.00     0.037 A 
HETATM    6  C   UNL     1      -6.980   5.131 -31.777  1.00  0.00     0.049 A 
ENDROOT
BRANCH   2   7
HETATM    7  N   UNL     1      -4.720   6.981 -29.432  1.00  0.00    -0.378 N 
HETATM    8  C   UNL     1      -4.534   6.890 -27.969  1.00  0.00     0.138 C 
HETATM    9  C   UNL     1      -3.025   6.967 -27.627  1.00  0.00     0.115 C 
HETATM   10  N   UNL     1      -2.418   8.205 -28.178  1.00  0.00    -0.278 NA
HETATM   11  C   UNL     1      -2.628   8.309 -29.648  1.00  0.00     0.115 C 
HETATM   12  C   UNL     1      -4.132   8.212 -30.002  1.00  0.00     0.138 C 
BRANCH  10  13
HETATM   13  C   UNL     1      -1.074   8.491 -27.830  1.00  0.00     0.044 A 
HETATM   14  C   UNL     1      -0.780   9.328 -26.716  1.00  0.00     0.089 A 
HETATM   15  C   UNL     1       0.551   9.635 -26.396  1.00  0.00     0.038 A 
HETATM   16  C   UNL     1       1.601   9.125 -27.160  1.00  0.00     0.003 A 
HETATM   17  C   UNL     1       1.332   8.301 -28.243  1.00  0.00     0.002 A 
HETATM   18  C   UNL     1       0.010   7.986 -28.570  1.00  0.00     0.026 A 
BRANCH  14  19
HETATM   19  O   UNL     1      -1.860   9.775 -25.987  1.00  0.00    -0.354 OA
HETATM   20  C   UNL     1      -1.965   9.350 -24.637  1.00  0.00     0.210 C 
ENDBRANCH  14  19
ENDBRANCH  10  13
ENDBRANCH   2   7
BRANCH   1  21
HETATM   21  C   UNL     1      -4.535   5.152 -31.795  1.00  0.00     0.254 C 
HETATM   22  N   UNL     1      -4.139   6.007 -32.807  1.00  0.00    -0.353 N 
HETATM   23  H   UNL     1      -4.801   6.718 -33.096  1.00  0.00     0.163 HD
HETATM   24  O   UNL     1      -3.901   4.180 -31.411  1.00  0.00    -0.268 OA
BRANCH  22  25
HETATM   25  C   UNL     1      -2.883   5.941 -33.547  1.00  0.00     0.080 C 
HETATM   26  C   UNL     1      -3.045   5.381 -34.959  1.00  0.00     0.032 C 
BRANCH  25  27
HETATM   27  C   UNL     1      -2.054   7.234 -33.472  1.00  0.00     0.020 C 
HETATM   28  C   UNL     1      -0.801   7.183 -32.617  1.00  0.00     0.007 C 
ENDBRANCH  25  27
ENDBRANCH  22  25
ENDBRANCH   1  21
BRANCH   5  29
HETATM   29  N   UNL     1      -9.357   5.115 -32.056  1.00  0.00    -0.309 N 
HETATM   30  C   UNL     1     -10.189   4.026 -31.851  1.00  0.00     0.325 C 
HETATM   31  N   UNL     1     -11.368   4.205 -32.555  1.00  0.00    -0.307 N 
HETATM   32  O   UNL     1      -9.923   3.063 -31.146  1.00  0.00    -0.247 OA
HETATM   33  H   UNL     1     -11.616   5.167 -32.745  1.00  0.00     0.170 HD
HETATM   34  H   UNL     1      -9.519   5.623 -32.913  1.00  0.00     0.170 HD
BRANCH  31  35
HETATM   35  C   UNL     1     -12.421   3.275 -32.716  1.00  0.00     0.053 A 
HETATM   36  C   UNL     1     -13.609   3.461 -31.984  1.00  0.00     0.037 A 
HETATM   37 BR   UNL     1     -13.804   4.908 -30.763  1.00  0.00    -0.049 Br
HETATM   38  C   UNL     1     -14.682   2.576 -32.122  1.00  0.00     0.021 A 
HETATM   39  C   UNL     1     -14.585   1.502 -33.002  1.00  0.00     0.002 A 
HETATM   40  C   UNL     1     -13.420   1.315 -33.742  1.00  0.00     0.002 A 
HETATM   41  C   UNL     1     -12.343   2.197 -33.600  1.00  0.00     0.031 A 
ENDBRANCH  31  35
ENDBRANCH   5  29
TORSDOF 8
ENDMDL
MODEL 8
REMARK VINA RESULT:      -7.8      4.545      7.558
REMARK  8 active torsions:
REMARK  status: ('A' for Active; 'I' for Inactive)
REMARK    1  A    between atoms: C_2  and  C_3 
REMARK    2  A    between atoms: C_3  and  N_4 
REMARK       I    between atoms: N_4  and  C_5 
REMARK    3  A    between atoms: C_5  and  C_6 
REMARK    4  A    between atoms: C_7  and  N_8 
REMARK    5  A    between atoms: N_11  and  C_12 
REMARK    6  A    between atoms: C_13  and  O_14 
REMARK    7  A    between atoms: C_24  and  N_25 
REMARK       I    between atoms: N_25  and  C_26 
REMARK       I    between atoms: C_26  and  N_27 
REMARK    8  A    between atoms: N_27  and  C_28 
ROOT
HETATM    1  C   UNL     1      -7.538   4.020 -32.716  1.00  0.00     0.060 A 
HETATM    2  C   UNL     1      -8.147   2.751 -32.608  1.00  0.00     0.046 A 
HETATM    3  C   UNL     1      -9.419   2.726 -32.006  1.00  0.00     0.032 A 
HETATM    4  C   UNL     1     -10.030   3.878 -31.484  1.00  0.00     0.032 A 
HETATM    5  C   UNL     1      -9.378   5.103 -31.534  1.00  0.00     0.037 A 
HETATM    6  C   UNL     1      -8.138   5.172 -32.166  1.00  0.00     0.049 A 
ENDROOT
BRANCH   2   7
HETATM    7  N   UNL     1      -7.526   1.573 -33.006  1.00  0.00    -0.378 N 
HETATM    8  C   UNL     1      -6.360   1.082 -32.243  1.00  0.00     0.138 C 
HETATM    9  C   UNL     1      -6.240  -0.455 -32.403  1.00  0.00     0.115 C 
HETATM   10  N   UNL     1      -6.153  -0.834 -33.836  1.00  0.00    -0.278 NA
HETATM   11  C   UNL     1      -7.315  -0.316 -34.609  1.00  0.00     0.115 C 
HETATM   12  C   UNL     1      -7.457   1.216 -34.439  1.00  0.00     0.138 C 
BRANCH  10  13
HETATM   13  C   UNL     1      -5.898  -2.194 -34.143  1.00  0.00     0.044 A 
HETATM   14  C   UNL     1      -4.622  -2.766 -33.876  1.00  0.00     0.089 A 
HETATM   15  C   UNL     1      -4.364  -4.103 -34.213  1.00  0.00     0.038 A 
HETATM   16  C   UNL     1      -5.350  -4.889 -34.809  1.00  0.00     0.003 A 
HETATM   17  C   UNL     1      -6.602  -4.350 -35.067  1.00  0.00     0.002 A 
HETATM   18  C   UNL     1      -6.872  -3.019 -34.734  1.00  0.00     0.026 A 
BRANCH  14  19
HETATM   19  O   UNL     1      -3.702  -1.946 -33.261  1.00  0.00    -0.354 OA
HETATM   20  C   UNL     1      -3.129  -2.394 -32.042  1.00  0.00     0.210 C 
ENDBRANCH  14  19
ENDBRANCH  10  13
ENDBRANCH   2   7
BRANCH   1  21
HETATM   21  C   UNL     1      -6.190   4.235 -33.309  1.00  0.00     0.254 C 
HETATM   22  N   UNL     1      -5.223   4.555 -32.373  1.00  0.00    -0.353 N 
HETATM   23  H   UNL     1      -5.541   4.757 -31.432  1.00  0.00     0.163 HD
HETATM   24  O   UNL     1      -5.983   4.075 -34.502  1.00  0.00    -0.268 OA
BRANCH  22  25
HETATM   25  C   UNL     1      -3.794   4.695 -32.626  1.00  0.00     0.080 C 
HETATM   26  C   UNL     1      -3.057   3.357 -32.675  1.00  0.00     0.032 C 
BRANCH  25  27
HETATM   27  C   UNL     1      -3.463   5.640 -33.792  1.00  0.00     0.020 C 
HETATM   28  C   UNL     1      -2.315   5.223 -34.695  1.00  0.00     0.007 C 
ENDBRANCH  25  27
ENDBRANCH  22  25
ENDBRANCH   1  21
BRANCH   5  29
HETATM   29  N   UNL     1      -9.854   6.270 -30.910  1.00  0.00    -0.309 N 
HETATM   30  C   UNL     1      -9.489   6.773 -29.671  1.00  0.00     0.325 C 
HETATM   31  N   UNL     1      -9.876   8.099 -29.576  1.00  0.00    -0.307 N 
HETATM   32  O   UNL     1      -8.903   6.141 -28.803  1.00  0.00    -0.247 OA
HETATM   33  H   UNL     1      -9.966   8.586 -30.458  1.00  0.00     0.170 HD
HETATM   34  H   UNL     1     -10.628   6.743 -31.353  1.00  0.00     0.170 HD
BRANCH  31  35
HETATM   35  C   UNL     1      -9.805   8.934 -28.438  1.00  0.00     0.053 A 
HETATM   36  C   UNL     1     -10.979   9.180 -27.702  1.00  0.00     0.037 A 
HETATM   37 BR   UNL     1     -12.653   8.448 -28.232  1.00  0.00    -0.049 Br
HETATM   38  C   UNL     1     -10.954   9.987 -26.561  1.00  0.00     0.021 A 
HETATM   39  C   UNL     1      -9.752  10.547 -26.134  1.00  0.00     0.002 A 
HETATM   40  C   UNL     1      -8.581  10.298 -26.847  1.00  0.00     0.002 A 
HETATM   41  C   UNL     1      -8.606   9.496 -27.992  1.00  0.00     0.031 A 
ENDBRANCH  31  35
ENDBRANCH   5  29
TORSDOF 8
ENDMDL
MODEL 9
REMARK VINA RESULT:      -7.7      3.722     11.446
REMARK  8 active torsions:
REMARK  status: ('A' for Active; 'I' for Inactive)
REMARK    1  A    between atoms: C_2  and  C_3 
REMARK    2  A    between atoms: C_3  and  N_4 
REMARK       I    between atoms: N_4  and  C_5 
REMARK    3  A    between atoms: C_5  and  C_6 
REMARK    4  A    between atoms: C_7  and  N_8 
REMARK    5  A    between atoms: N_11  and  C_12 
REMARK    6  A    between atoms: C_13  and  O_14 
REMARK    7  A    between atoms: C_24  and  N_25 
REMARK       I    between atoms: N_25  and  C_26 
REMARK       I    between atoms: C_26  and  N_27 
REMARK    8  A    between atoms: N_27  and  C_28 
ROOT
HETATM    1  C   UNL     1      -5.159   6.073 -30.246  1.00  0.00     0.060 A 
HETATM    2  C   UNL     1      -5.210   6.463 -28.891  1.00  0.00     0.046 A 
HETATM    3  C   UNL     1      -6.473   6.389 -28.275  1.00  0.00     0.032 A 
HETATM    4  C   UNL     1      -7.632   6.012 -28.973  1.00  0.00     0.032 A 
HETATM    5  C   UNL     1      -7.569   5.706 -30.326  1.00  0.00     0.037 A 
HETATM    6  C   UNL     1      -6.327   5.723 -30.955  1.00  0.00     0.049 A 
ENDROOT
BRANCH   2   7
HETATM    7  N   UNL     1      -4.109   6.952 -28.198  1.00  0.00    -0.378 N 
HETATM    8  C   UNL     1      -3.996   6.689 -26.749  1.00  0.00     0.138 C 
HETATM    9  C   UNL     1      -2.505   6.718 -26.327  1.00  0.00     0.115 C 
HETATM   10  N   UNL     1      -1.874   8.010 -26.697  1.00  0.00    -0.278 NA
HETATM   11  C   UNL     1      -2.012   8.287 -28.153  1.00  0.00     0.115 C 
HETATM   12  C   UNL     1      -3.496   8.239 -28.590  1.00  0.00     0.138 C 
BRANCH  10  13
HETATM   13  C   UNL     1      -0.550   8.247 -26.252  1.00  0.00     0.044 A 
HETATM   14  C   UNL     1      -0.287   9.240 -25.266  1.00  0.00     0.089 A 
HETATM   15  C   UNL     1       1.030   9.494 -24.854  1.00  0.00     0.038 A 
HETATM   16  C   UNL     1       2.096   8.778 -25.399  1.00  0.00     0.003 A 
HETATM   17  C   UNL     1       1.856   7.801 -26.353  1.00  0.00     0.002 A 
HETATM   18  C   UNL     1       0.548   7.537 -26.771  1.00  0.00     0.026 A 
BRANCH  14  19
HETATM   19  O   UNL     1      -1.385   9.891 -24.748  1.00  0.00    -0.354 OA
HETATM   20  C   UNL     1      -1.782   9.562 -23.425  1.00  0.00     0.210 C 
ENDBRANCH  14  19
ENDBRANCH  10  13
ENDBRANCH   2   7
BRANCH   1  21
HETATM   21  C   UNL     1      -3.914   6.101 -31.062  1.00  0.00     0.254 C 
HETATM   22  N   UNL     1      -3.079   5.023 -30.827  1.00  0.00    -0.353 N 
HETATM   23  H   UNL     1      -3.309   4.424 -30.044  1.00  0.00     0.163 HD
HETATM   24  O   UNL     1      -3.712   6.975 -31.892  1.00  0.00    -0.268 OA
BRANCH  22  25
HETATM   25  C   UNL     1      -1.859   4.705 -31.560  1.00  0.00     0.080 C 
HETATM   26  C   UNL     1      -2.108   4.383 -33.033  1.00  0.00     0.032 C 
BRANCH  25  27
HETATM   27  C   UNL     1      -0.714   5.701 -31.317  1.00  0.00     0.020 C 
HETATM   28  C   UNL     1       0.425   5.219 -30.435  1.00  0.00     0.007 C 
ENDBRANCH  25  27
ENDBRANCH  22  25
ENDBRANCH   1  21
BRANCH   5  29
HETATM   29  N   UNL     1      -8.700   5.460 -31.126  1.00  0.00    -0.309 N 
HETATM   30  C   UNL     1      -8.915   4.385 -31.973  1.00  0.00     0.325 C 
HETATM   31  N   UNL     1     -10.262   4.301 -32.284  1.00  0.00    -0.307 N 
HETATM   32  O   UNL     1      -8.046   3.622 -32.373  1.00  0.00    -0.247 OA
HETATM   33  H   UNL     1     -10.888   4.706 -31.601  1.00  0.00     0.170 HD
HETATM   34  H   UNL     1      -9.390   6.195 -31.183  1.00  0.00     0.170 HD
BRANCH  31  35
HETATM   35  C   UNL     1     -10.875   3.429 -33.212  1.00  0.00     0.053 A 
HETATM   36  C   UNL     1     -11.345   3.955 -34.430  1.00  0.00     0.037 A 
HETATM   37 BR   UNL     1     -11.205   5.811 -34.827  1.00  0.00    -0.049 Br
HETATM   38  C   UNL     1     -11.945   3.129 -35.384  1.00  0.00     0.021 A 
HETATM   39  C   UNL     1     -12.071   1.764 -35.138  1.00  0.00     0.002 A 
HETATM   40  C   UNL     1     -11.597   1.230 -33.942  1.00  0.00     0.002 A 
HETATM   41  C   UNL     1     -11.002   2.057 -32.983  1.00  0.00     0.031 A 
ENDBRANCH  31  35
ENDBRANCH   5  29
TORSDOF 8
ENDMDL
MODEL 10
REMARK VINA RESULT:      -7.6      3.976     10.909
REMARK  8 active torsions:
REMARK  status: ('A' for Active; 'I' for Inactive)
REMARK    1  A    between atoms: C_2  and  C_3 
REMARK    2  A    between atoms: C_3  and  N_4 
REMARK       I    between atoms: N_4  and  C_5 
REMARK    3  A    between atoms: C_5  and  C_6 
REMARK    4  A    between atoms: C_7  and  N_8 
REMARK    5  A    between atoms: N_11  and  C_12 
REMARK    6  A    between atoms: C_13  and  O_14 
REMARK    7  A    between atoms: C_24  and  N_25 
REMARK       I    between atoms: N_25  and  C_26 
REMARK       I    between atoms: C_26  and  N_27 
REMARK    8  A    between atoms: N_27  and  C_28 
ROOT
HETATM    1  C   UNL     1      -8.244   4.123 -31.368  1.00  0.00     0.060 A 
HETATM    2  C   UNL     1      -7.719   5.413 -31.593  1.00  0.00     0.046 A 
HETATM    3  C   UNL     1      -8.632   6.381 -32.051  1.00  0.00     0.032 A 
HETATM    4  C   UNL     1      -9.975   6.079 -32.330  1.00  0.00     0.032 A 
HETATM    5  C   UNL     1     -10.451   4.784 -32.173  1.00  0.00     0.037 A 
HETATM    6  C   UNL     1      -9.586   3.812 -31.676  1.00  0.00     0.049 A 
ENDROOT
BRANCH   2   7
HETATM    7  N   UNL     1      -6.373   5.723 -31.440  1.00  0.00    -0.378 N 
HETATM    8  C   UNL     1      -5.903   6.276 -30.153  1.00  0.00     0.138 C 
HETATM    9  C   UNL     1      -4.402   5.945 -29.957  1.00  0.00     0.115 C 
HETATM   10  N   UNL     1      -3.594   6.451 -31.095  1.00  0.00    -0.278 NA
HETATM   11  C   UNL     1      -4.084   5.913 -32.394  1.00  0.00     0.115 C 
HETATM   12  C   UNL     1      -5.588   6.221 -32.590  1.00  0.00     0.138 C 
BRANCH  10  13
HETATM   13  C   UNL     1      -2.184   6.350 -30.997  1.00  0.00     0.044 A 
HETATM   14  C   UNL     1      -1.434   7.357 -30.326  1.00  0.00     0.089 A 
HETATM   15  C   UNL     1      -0.035   7.270 -30.261  1.00  0.00     0.038 A 
HETATM   16  C   UNL     1       0.638   6.199 -30.848  1.00  0.00     0.003 A 
HETATM   17  C   UNL     1      -0.079   5.205 -31.498  1.00  0.00     0.002 A 
HETATM   18  C   UNL     1      -1.473   5.279 -31.568  1.00  0.00     0.026 A 
BRANCH  14  19
HETATM   19  O   UNL     1      -2.160   8.372 -29.743  1.00  0.00    -0.354 OA
HETATM   20  C   UNL     1      -1.531   9.132 -28.722  1.00  0.00     0.210 C 
ENDBRANCH  14  19
ENDBRANCH  10  13
ENDBRANCH   2   7
BRANCH   1  21
HETATM   21  C   UNL     1      -7.424   2.973 -30.899  1.00  0.00     0.254 C 
HETATM   22  N   UNL     1      -7.033   2.125 -31.921  1.00  0.00    -0.353 N 
HETATM   23  H   UNL     1      -7.453   2.274 -32.830  1.00  0.00     0.163 HD
HETATM   24  O   UNL     1      -7.096   2.856 -29.728  1.00  0.00    -0.268 OA
BRANCH  22  25
HETATM   25  C   UNL     1      -6.122   0.993 -31.797  1.00  0.00     0.080 C 
HETATM   26  C   UNL     1      -6.748  -0.211 -31.095  1.00  0.00     0.032 C 
BRANCH  25  27
HETATM   27  C   UNL     1      -5.383   0.650 -33.101  1.00  0.00     0.020 C 
HETATM   28  C   UNL     1      -4.546  -0.617 -33.089  1.00  0.00     0.007 C 
ENDBRANCH  25  27
ENDBRANCH  22  25
ENDBRANCH   1  21
BRANCH   5  29
HETATM   29  N   UNL     1     -11.737   4.369 -32.565  1.00  0.00    -0.309 N 
HETATM   30  C   UNL     1     -12.890   4.357 -31.796  1.00  0.00     0.325 C 
HETATM   31  N   UNL     1     -13.996   4.249 -32.620  1.00  0.00    -0.307 N 
HETATM   32  O   UNL     1     -12.919   4.441 -30.576  1.00  0.00    -0.247 OA
HETATM   33  H   UNL     1     -13.867   4.589 -33.564  1.00  0.00     0.170 HD
HETATM   34  H   UNL     1     -11.820   3.927 -33.468  1.00  0.00     0.170 HD
BRANCH  31  35
HETATM   35  C   UNL     1     -15.344   4.075 -32.229  1.00  0.00     0.053 A 
HETATM   36  C   UNL     1     -15.931   2.803 -32.362  1.00  0.00     0.037 A 
HETATM   37 BR   UNL     1     -14.963   1.335 -33.090  1.00  0.00    -0.049 Br
HETATM   38  C   UNL     1     -17.256   2.581 -31.974  1.00  0.00     0.021 A 
HETATM   39  C   UNL     1     -18.005   3.625 -31.437  1.00  0.00     0.002 A 
HETATM   40  C   UNL     1     -17.430   4.884 -31.289  1.00  0.00     0.002 A 
HETATM   41  C   UNL     1     -16.106   5.110 -31.682  1.00  0.00     0.031 A 
ENDBRANCH  31  35
ENDBRANCH   5  29
TORSDOF 8
ENDMDL
