MODEL 1
REMARK VINA RESULT:      -8.4      0.000      0.000
REMARK  5 active torsions:
REMARK  status: ('A' for Active; 'I' for Inactive)
REMARK    1  A    between atoms: N_1  and  C_5 
REMARK    2  A    between atoms: C_5  and  C_6 
REMARK    3  A    between atoms: C_6  and  C_7 
REMARK    4  A    between atoms: C_6  and  C_20 
REMARK       I    between atoms: C_7  and  N_9 
REMARK    5  A    between atoms: N_9  and  C_10 
ROOT
HETATM    1  C   UNL     1      -5.366   1.530 -32.143  1.00  0.00     0.232 C 
HETATM    2  O   UNL     1      -5.186   0.844 -31.136  1.00  0.00    -0.272 OA
HETATM    3  N   UNL     1      -5.521   1.073 -33.435  1.00  0.00    -0.327 N 
HETATM    4  H   UNL     1      -5.400   1.744 -34.190  1.00  0.00     0.169 HD
ENDROOT
BRANCH   1   5
HETATM    5  C   UNL     1      -5.366   3.051 -32.016  1.00  0.00     0.136 C 
BRANCH   5   6
HETATM    6  C   UNL     1      -5.110   3.441 -30.545  1.00  0.00     0.248 C 
BRANCH   6   7
HETATM    7  N   UNL     1      -6.228   3.035 -29.643  1.00  0.00    -0.078 N 
HETATM    8  H   UNL     1      -7.025   3.685 -29.793  1.00  0.00     0.274 HD
HETATM    9  H   UNL     1      -6.561   2.081 -29.834  1.00  0.00     0.274 HD
HETATM   10  H   UNL     1      -5.972   3.096 -28.650  1.00  0.00     0.274 HD
ENDBRANCH   6   7
ENDBRANCH   5   6
BRANCH   5  11
HETATM   11  C   UNL     1      -4.394   3.762 -32.944  1.00  0.00    -0.043 A 
HETATM   12  C   UNL     1      -4.910   4.532 -34.001  1.00  0.00     0.008 A 
HETATM   13  C   UNL     1      -4.058   5.229 -34.857  1.00  0.00     0.001 A 
HETATM   14  C   UNL     1      -2.680   5.167 -34.672  1.00  0.00     0.000 A 
HETATM   15  C   UNL     1      -2.153   4.407 -33.630  1.00  0.00     0.001 A 
HETATM   16  C   UNL     1      -3.001   3.710 -32.768  1.00  0.00     0.008 A 
ENDBRANCH   5  11
ENDBRANCH   1   5
BRANCH   3  17
HETATM   17  C   UNL     1      -5.696  -0.267 -33.842  1.00  0.00     0.035 A 
HETATM   18  C   UNL     1      -6.930  -0.611 -34.402  1.00  0.00     0.030 A 
HETATM   19  C   UNL     1      -7.187  -1.924 -34.807  1.00  0.00     0.016 A 
HETATM   20  C   UNL     1      -6.215  -2.921 -34.634  1.00  0.00    -0.008 A 
HETATM   21  C   UNL     1      -6.421  -4.254 -35.002  1.00  0.00     0.128 A 
HETATM   22  C   UNL     1      -4.974  -2.592 -34.057  1.00  0.00    -0.021 A 
HETATM   23  N   UNL     1      -5.515  -5.243 -34.832  1.00  0.00    -0.272 NA
HETATM   24  C   UNL     1      -4.341  -4.898 -34.267  1.00  0.00     0.117 A 
HETATM   25  C   UNL     1      -4.026  -3.607 -33.872  1.00  0.00     0.031 A 
HETATM   26  C   UNL     1      -4.725  -1.259 -33.673  1.00  0.00     0.042 A 
ENDBRANCH   3  17
TORSDOF 5
ENDMDL
MODEL 2
REMARK VINA RESULT:      -8.1      2.321      7.593
REMARK  5 active torsions:
REMARK  status: ('A' for Active; 'I' for Inactive)
REMARK    1  A    between atoms: N_1  and  C_5 
REMARK    2  A    between atoms: C_5  and  C_6 
REMARK    3  A    between atoms: C_6  and  C_7 
REMARK    4  A    between atoms: C_6  and  C_20 
REMARK       I    between atoms: C_7  and  N_9 
REMARK    5  A    between atoms: N_9  and  C_10 
ROOT
HETATM    1  C   UNL     1      -5.194   1.453 -32.203  1.00  0.00     0.232 C 
HETATM    2  O   UNL     1      -6.074   2.009 -32.862  1.00  0.00    -0.272 OA
HETATM    3  N   UNL     1      -3.968   1.980 -31.854  1.00  0.00    -0.327 N 
HETATM    4  H   UNL     1      -3.248   1.333 -31.542  1.00  0.00     0.169 HD
ENDROOT
BRANCH   1   5
HETATM    5  C   UNL     1      -5.402   0.010 -31.751  1.00  0.00     0.136 C 
BRANCH   5   6
HETATM    6  C   UNL     1      -6.625  -0.059 -30.811  1.00  0.00     0.248 C 
BRANCH   6   7
HETATM    7  N   UNL     1      -6.693   1.101 -29.875  1.00  0.00    -0.078 N 
HETATM    8  H   UNL     1      -7.067   1.921 -30.393  1.00  0.00     0.274 HD
HETATM    9  H   UNL     1      -7.314   0.926 -29.075  1.00  0.00     0.274 HD
HETATM   10  H   UNL     1      -5.769   1.368 -29.516  1.00  0.00     0.274 HD
ENDBRANCH   6   7
ENDBRANCH   5   6
BRANCH   5  11
HETATM   11  C   UNL     1      -5.530  -0.995 -32.886  1.00  0.00    -0.043 A 
HETATM   12  C   UNL     1      -4.385  -1.701 -33.293  1.00  0.00     0.008 A 
HETATM   13  C   UNL     1      -4.462  -2.656 -34.306  1.00  0.00     0.001 A 
HETATM   14  C   UNL     1      -5.679  -2.919 -34.927  1.00  0.00     0.000 A 
HETATM   15  C   UNL     1      -6.823  -2.226 -34.535  1.00  0.00     0.001 A 
HETATM   16  C   UNL     1      -6.753  -1.271 -33.519  1.00  0.00     0.008 A 
ENDBRANCH   5  11
ENDBRANCH   1   5
BRANCH   3  17
HETATM   17  C   UNL     1      -3.548   3.319 -32.012  1.00  0.00     0.035 A 
HETATM   18  C   UNL     1      -4.136   4.277 -31.181  1.00  0.00     0.030 A 
HETATM   19  C   UNL     1      -3.788   5.627 -31.295  1.00  0.00     0.016 A 
HETATM   20  C   UNL     1      -2.861   6.040 -32.263  1.00  0.00    -0.008 A 
HETATM   21  C   UNL     1      -2.488   7.377 -32.436  1.00  0.00     0.128 A 
HETATM   22  C   UNL     1      -2.274   5.087 -33.117  1.00  0.00    -0.021 A 
HETATM   23  N   UNL     1      -1.614   7.811 -33.370  1.00  0.00    -0.272 NA
HETATM   24  C   UNL     1      -1.077   6.877 -34.179  1.00  0.00     0.117 A 
HETATM   25  C   UNL     1      -1.367   5.524 -34.092  1.00  0.00     0.031 A 
HETATM   26  C   UNL     1      -2.620   3.729 -32.975  1.00  0.00     0.042 A 
ENDBRANCH   3  17
TORSDOF 5
ENDMDL
MODEL 3
REMARK VINA RESULT:      -8.0      4.117      7.331
REMARK  5 active torsions:
REMARK  status: ('A' for Active; 'I' for Inactive)
REMARK    1  A    between atoms: N_1  and  C_5 
REMARK    2  A    between atoms: C_5  and  C_6 
REMARK    3  A    between atoms: C_6  and  C_7 
REMARK    4  A    between atoms: C_6  and  C_20 
REMARK       I    between atoms: C_7  and  N_9 
REMARK    5  A    between atoms: N_9  and  C_10 
ROOT
HETATM    1  C   UNL     1      -6.992   0.148 -34.218  1.00  0.00     0.232 C 
HETATM    2  O   UNL     1      -7.045   0.494 -35.400  1.00  0.00    -0.272 OA
HETATM    3  N   UNL     1      -7.927   0.414 -33.239  1.00  0.00    -0.327 N 
HETATM    4  H   UNL     1      -7.639   0.300 -32.271  1.00  0.00     0.169 HD
ENDROOT
BRANCH   1   5
HETATM    5  C   UNL     1      -5.762  -0.602 -33.717  1.00  0.00     0.136 C 
BRANCH   5   6
HETATM    6  C   UNL     1      -5.658  -0.447 -32.184  1.00  0.00     0.248 C 
BRANCH   6   7
HETATM    7  N   UNL     1      -4.364   0.164 -31.758  1.00  0.00    -0.078 N 
HETATM    8  H   UNL     1      -3.619  -0.158 -32.407  1.00  0.00     0.274 HD
HETATM    9  H   UNL     1      -4.385   1.191 -31.788  1.00  0.00     0.274 HD
HETATM   10  H   UNL     1      -4.087  -0.127 -30.813  1.00  0.00     0.274 HD
ENDBRANCH   6   7
ENDBRANCH   5   6
BRANCH   5  11
HETATM   11  C   UNL     1      -5.708  -2.067 -34.120  1.00  0.00    -0.043 A 
HETATM   12  C   UNL     1      -4.486  -2.754 -34.006  1.00  0.00     0.008 A 
HETATM   13  C   UNL     1      -4.397  -4.107 -34.333  1.00  0.00     0.001 A 
HETATM   14  C   UNL     1      -5.523  -4.793 -34.778  1.00  0.00     0.000 A 
HETATM   15  C   UNL     1      -6.740  -4.126 -34.897  1.00  0.00     0.001 A 
HETATM   16  C   UNL     1      -6.837  -2.773 -34.569  1.00  0.00     0.008 A 
ENDBRANCH   5  11
ENDBRANCH   1   5
BRANCH   3  17
HETATM   17  C   UNL     1      -9.213   0.965 -33.426  1.00  0.00     0.035 A 
HETATM   18  C   UNL     1      -9.301   2.352 -33.573  1.00  0.00     0.030 A 
HETATM   19  C   UNL     1     -10.543   2.972 -33.738  1.00  0.00     0.016 A 
HETATM   20  C   UNL     1     -11.722   2.211 -33.735  1.00  0.00    -0.008 A 
HETATM   21  C   UNL     1     -12.992   2.777 -33.878  1.00  0.00     0.128 A 
HETATM   22  C   UNL     1     -11.648   0.814 -33.572  1.00  0.00    -0.021 A 
HETATM   23  N   UNL     1     -14.147   2.075 -33.860  1.00  0.00    -0.272 NA
HETATM   24  C   UNL     1     -14.044   0.742 -33.691  1.00  0.00     0.117 A 
HETATM   25  C   UNL     1     -12.837   0.075 -33.549  1.00  0.00     0.031 A 
HETATM   26  C   UNL     1     -10.387   0.203 -33.427  1.00  0.00     0.042 A 
ENDBRANCH   3  17
TORSDOF 5
ENDMDL
MODEL 4
REMARK VINA RESULT:      -7.2      4.326      7.324
REMARK  5 active torsions:
REMARK  status: ('A' for Active; 'I' for Inactive)
REMARK    1  A    between atoms: N_1  and  C_5 
REMARK    2  A    between atoms: C_5  and  C_6 
REMARK    3  A    between atoms: C_6  and  C_7 
REMARK    4  A    between atoms: C_6  and  C_20 
REMARK       I    between atoms: C_7  and  N_9 
REMARK    5  A    between atoms: N_9  and  C_10 
ROOT
HETATM    1  C   UNL     1      -7.989   0.823 -32.305  1.00  0.00     0.232 C 
HETATM    2  O   UNL     1      -8.883   0.568 -31.496  1.00  0.00    -0.272 OA
HETATM    3  N   UNL     1      -8.128   1.497 -33.501  1.00  0.00    -0.327 N 
HETATM    4  H   UNL     1      -7.377   1.410 -34.181  1.00  0.00     0.169 HD
ENDROOT
BRANCH   1   5
HETATM    5  C   UNL     1      -6.576   0.315 -32.038  1.00  0.00     0.136 C 
BRANCH   5   6
HETATM    6  C   UNL     1      -6.451  -0.090 -30.553  1.00  0.00     0.248 C 
BRANCH   6   7
HETATM    7  N   UNL     1      -6.482   1.087 -29.635  1.00  0.00    -0.078 N 
HETATM    8  H   UNL     1      -6.238   1.936 -30.181  1.00  0.00     0.274 HD
HETATM    9  H   UNL     1      -7.410   1.236 -29.218  1.00  0.00     0.274 HD
HETATM   10  H   UNL     1      -5.795   1.008 -28.876  1.00  0.00     0.274 HD
ENDBRANCH   6   7
ENDBRANCH   5   6
BRANCH   5  11
HETATM   11  C   UNL     1      -6.128  -0.817 -32.950  1.00  0.00    -0.043 A 
HETATM   12  C   UNL     1      -7.096  -1.486 -33.719  1.00  0.00     0.008 A 
HETATM   13  C   UNL     1      -6.728  -2.507 -34.594  1.00  0.00     0.001 A 
HETATM   14  C   UNL     1      -5.392  -2.876 -34.713  1.00  0.00     0.000 A 
HETATM   15  C   UNL     1      -4.421  -2.224 -33.956  1.00  0.00     0.001 A 
HETATM   16  C   UNL     1      -4.783  -1.198 -33.081  1.00  0.00     0.008 A 
ENDBRANCH   5  11
ENDBRANCH   1   5
BRANCH   3  17
HETATM   17  C   UNL     1      -9.271   2.193 -33.951  1.00  0.00     0.035 A 
HETATM   18  C   UNL     1     -10.399   1.433 -34.273  1.00  0.00     0.030 A 
HETATM   19  C   UNL     1     -11.561   2.050 -34.748  1.00  0.00     0.016 A 
HETATM   20  C   UNL     1     -11.601   3.440 -34.930  1.00  0.00    -0.008 A 
HETATM   21  C   UNL     1     -12.727   4.110 -35.419  1.00  0.00     0.128 A 
HETATM   22  C   UNL     1     -10.466   4.216 -34.625  1.00  0.00    -0.021 A 
HETATM   23  N   UNL     1     -12.792   5.444 -35.624  1.00  0.00    -0.272 NA
HETATM   24  C   UNL     1     -11.686   6.157 -35.333  1.00  0.00     0.117 A 
HETATM   25  C   UNL     1     -10.519   5.599 -34.836  1.00  0.00     0.031 A 
HETATM   26  C   UNL     1      -9.311   3.580 -34.128  1.00  0.00     0.042 A 
ENDBRANCH   3  17
TORSDOF 5
ENDMDL
MODEL 5
REMARK VINA RESULT:      -7.2      1.816      3.169
REMARK  5 active torsions:
REMARK  status: ('A' for Active; 'I' for Inactive)
REMARK    1  A    between atoms: N_1  and  C_5 
REMARK    2  A    between atoms: C_5  and  C_6 
REMARK    3  A    between atoms: C_6  and  C_7 
REMARK    4  A    between atoms: C_6  and  C_20 
REMARK       I    between atoms: C_7  and  N_9 
REMARK    5  A    between atoms: N_9  and  C_10 
ROOT
HETATM    1  C   UNL     1      -5.418   1.088 -31.074  1.00  0.00     0.232 C 
HETATM    2  O   UNL     1      -5.784   0.293 -30.208  1.00  0.00    -0.272 OA
HETATM    3  N   UNL     1      -5.174   0.805 -32.402  1.00  0.00    -0.327 N 
HETATM    4  H   UNL     1      -4.635   1.482 -32.936  1.00  0.00     0.169 HD
ENDROOT
BRANCH   1   5
HETATM    5  C   UNL     1      -5.131   2.535 -30.683  1.00  0.00     0.136 C 
BRANCH   5   6
HETATM    6  C   UNL     1      -4.220   3.182 -31.749  1.00  0.00     0.248 C 
BRANCH   6   7
HETATM    7  N   UNL     1      -2.846   3.457 -31.235  1.00  0.00    -0.078 N 
HETATM    8  H   UNL     1      -2.423   2.558 -30.928  1.00  0.00     0.274 HD
HETATM    9  H   UNL     1      -2.232   3.864 -31.953  1.00  0.00     0.274 HD
HETATM   10  H   UNL     1      -2.851   4.083 -30.421  1.00  0.00     0.274 HD
ENDBRANCH   6   7
ENDBRANCH   5   6
BRANCH   5  11
HETATM   11  C   UNL     1      -6.371   3.381 -30.440  1.00  0.00    -0.043 A 
HETATM   12  C   UNL     1      -7.514   3.142 -31.222  1.00  0.00     0.008 A 
HETATM   13  C   UNL     1      -8.684   3.871 -31.013  1.00  0.00     0.001 A 
HETATM   14  C   UNL     1      -8.730   4.848 -30.023  1.00  0.00     0.000 A 
HETATM   15  C   UNL     1      -7.605   5.097 -29.241  1.00  0.00     0.001 A 
HETATM   16  C   UNL     1      -6.432   4.369 -29.443  1.00  0.00     0.008 A 
ENDBRANCH   5  11
ENDBRANCH   1   5
BRANCH   3  17
HETATM   17  C   UNL     1      -5.474  -0.396 -33.079  1.00  0.00     0.035 A 
HETATM   18  C   UNL     1      -6.738  -0.501 -33.669  1.00  0.00     0.030 A 
HETATM   19  C   UNL     1      -7.116  -1.669 -34.337  1.00  0.00     0.016 A 
HETATM   20  C   UNL     1      -6.240  -2.764 -34.403  1.00  0.00    -0.008 A 
HETATM   21  C   UNL     1      -6.570  -3.964 -35.040  1.00  0.00     0.128 A 
HETATM   22  C   UNL     1      -4.971  -2.677 -33.799  1.00  0.00    -0.021 A 
HETATM   23  N   UNL     1      -5.758  -5.042 -35.105  1.00  0.00    -0.272 NA
HETATM   24  C   UNL     1      -4.555  -4.932 -34.509  1.00  0.00     0.117 A 
HETATM   25  C   UNL     1      -4.120  -3.788 -33.856  1.00  0.00     0.031 A 
HETATM   26  C   UNL     1      -4.598  -1.484 -33.148  1.00  0.00     0.042 A 
ENDBRANCH   3  17
TORSDOF 5
ENDMDL
MODEL 6
REMARK VINA RESULT:      -7.2      2.412      7.506
REMARK  5 active torsions:
REMARK  status: ('A' for Active; 'I' for Inactive)
REMARK    1  A    between atoms: N_1  and  C_5 
REMARK    2  A    between atoms: C_5  and  C_6 
REMARK    3  A    between atoms: C_6  and  C_7 
REMARK    4  A    between atoms: C_6  and  C_20 
REMARK       I    between atoms: C_7  and  N_9 
REMARK    5  A    between atoms: N_9  and  C_10 
ROOT
HETATM    1  C   UNL     1      -6.273   1.386 -31.211  1.00  0.00     0.232 C 
HETATM    2  O   UNL     1      -6.148   1.664 -30.017  1.00  0.00    -0.272 OA
HETATM    3  N   UNL     1      -5.781   2.105 -32.281  1.00  0.00    -0.327 N 
HETATM    4  H   UNL     1      -6.174   1.911 -33.199  1.00  0.00     0.169 HD
ENDROOT
BRANCH   1   5
HETATM    5  C   UNL     1      -7.098   0.165 -31.608  1.00  0.00     0.136 C 
BRANCH   5   6
HETATM    6  C   UNL     1      -8.501   0.622 -32.061  1.00  0.00     0.248 C 
BRANCH   6   7
HETATM    7  N   UNL     1      -9.249   1.331 -30.980  1.00  0.00    -0.078 N 
HETATM    8  H   UNL     1      -8.641   2.083 -30.600  1.00  0.00     0.274 HD
HETATM    9  H   UNL     1     -10.114   1.768 -31.321  1.00  0.00     0.274 HD
HETATM   10  H   UNL     1      -9.486   0.709 -30.198  1.00  0.00     0.274 HD
ENDBRANCH   6   7
ENDBRANCH   5   6
BRANCH   5  11
HETATM   11  C   UNL     1      -6.448  -0.721 -32.660  1.00  0.00    -0.043 A 
HETATM   12  C   UNL     1      -5.100  -1.084 -32.496  1.00  0.00     0.008 A 
HETATM   13  C   UNL     1      -4.473  -1.922 -33.418  1.00  0.00     0.001 A 
HETATM   14  C   UNL     1      -5.179  -2.408 -34.514  1.00  0.00     0.000 A 
HETATM   15  C   UNL     1      -6.516  -2.056 -34.690  1.00  0.00     0.001 A 
HETATM   16  C   UNL     1      -7.150  -1.220 -33.769  1.00  0.00     0.008 A 
ENDBRANCH   5  11
ENDBRANCH   1   5
BRANCH   3  17
HETATM   17  C   UNL     1      -4.880   3.191 -32.227  1.00  0.00     0.035 A 
HETATM   18  C   UNL     1      -3.524   2.908 -32.418  1.00  0.00     0.030 A 
HETATM   19  C   UNL     1      -2.570   3.928 -32.355  1.00  0.00     0.016 A 
HETATM   20  C   UNL     1      -2.958   5.246 -32.075  1.00  0.00    -0.008 A 
HETATM   21  C   UNL     1      -2.048   6.303 -31.982  1.00  0.00     0.128 A 
HETATM   22  C   UNL     1      -4.319   5.542 -31.865  1.00  0.00    -0.021 A 
HETATM   23  N   UNL     1      -2.386   7.580 -31.695  1.00  0.00    -0.272 NA
HETATM   24  C   UNL     1      -3.695   7.829 -31.489  1.00  0.00     0.117 A 
HETATM   25  C   UNL     1      -4.684   6.860 -31.565  1.00  0.00     0.031 A 
HETATM   26  C   UNL     1      -5.270   4.506 -31.952  1.00  0.00     0.042 A 
ENDBRANCH   3  17
TORSDOF 5
ENDMDL
MODEL 7
REMARK VINA RESULT:      -7.2     14.217     15.986
REMARK  5 active torsions:
REMARK  status: ('A' for Active; 'I' for Inactive)
REMARK    1  A    between atoms: N_1  and  C_5 
REMARK    2  A    between atoms: C_5  and  C_6 
REMARK    3  A    between atoms: C_6  and  C_7 
REMARK    4  A    between atoms: C_6  and  C_20 
REMARK       I    between atoms: C_7  and  N_9 
REMARK    5  A    between atoms: N_9  and  C_10 
ROOT
HETATM    1  C   UNL     1      -6.415 -13.368 -37.573  1.00  0.00     0.232 C 
HETATM    2  O   UNL     1      -5.515 -14.186 -37.776  1.00  0.00    -0.272 OA
HETATM    3  N   UNL     1      -7.070 -13.143 -36.380  1.00  0.00    -0.327 N 
HETATM    4  H   UNL     1      -7.951 -12.637 -36.416  1.00  0.00     0.169 HD
ENDROOT
BRANCH   1   5
HETATM    5  C   UNL     1      -6.939 -12.535 -38.739  1.00  0.00     0.136 C 
BRANCH   5   6
HETATM    6  C   UNL     1      -5.900 -12.543 -39.881  1.00  0.00     0.248 C 
BRANCH   6   7
HETATM    7  N   UNL     1      -4.594 -11.946 -39.469  1.00  0.00    -0.078 N 
HETATM    8  H   UNL     1      -4.434 -12.167 -38.467  1.00  0.00     0.274 HD
HETATM    9  H   UNL     1      -3.803 -12.324 -40.005  1.00  0.00     0.274 HD
HETATM   10  H   UNL     1      -4.587 -10.923 -39.559  1.00  0.00     0.274 HD
ENDBRANCH   6   7
ENDBRANCH   5   6
BRANCH   5  11
HETATM   11  C   UNL     1      -8.310 -12.954 -39.248  1.00  0.00    -0.043 A 
HETATM   12  C   UNL     1      -9.180 -11.963 -39.735  1.00  0.00     0.008 A 
HETATM   13  C   UNL     1     -10.433 -12.303 -40.243  1.00  0.00     0.001 A 
HETATM   14  C   UNL     1     -10.836 -13.635 -40.271  1.00  0.00     0.000 A 
HETATM   15  C   UNL     1      -9.986 -14.628 -39.791  1.00  0.00     0.001 A 
HETATM   16  C   UNL     1      -8.728 -14.294 -39.284  1.00  0.00     0.008 A 
ENDBRANCH   5  11
ENDBRANCH   1   5
BRANCH   3  17
HETATM   17  C   UNL     1      -6.720 -13.658 -35.113  1.00  0.00     0.035 A 
HETATM   18  C   UNL     1      -5.950 -12.841 -34.280  1.00  0.00     0.030 A 
HETATM   19  C   UNL     1      -5.545 -13.292 -33.020  1.00  0.00     0.016 A 
HETATM   20  C   UNL     1      -5.886 -14.581 -32.585  1.00  0.00    -0.008 A 
HETATM   21  C   UNL     1      -5.494 -15.093 -31.344  1.00  0.00     0.128 A 
HETATM   22  C   UNL     1      -6.647 -15.420 -33.421  1.00  0.00    -0.021 A 
HETATM   23  N   UNL     1      -5.788 -16.337 -30.903  1.00  0.00    -0.272 NA
HETATM   24  C   UNL     1      -6.509 -17.119 -31.731  1.00  0.00     0.117 A 
HETATM   25  C   UNL     1      -6.957 -16.712 -32.979  1.00  0.00     0.031 A 
HETATM   26  C   UNL     1      -7.064 -14.942 -34.680  1.00  0.00     0.042 A 
ENDBRANCH   3  17
TORSDOF 5
ENDMDL
MODEL 8
REMARK VINA RESULT:      -7.1      2.915      8.004
REMARK  5 active torsions:
REMARK  status: ('A' for Active; 'I' for Inactive)
REMARK    1  A    between atoms: N_1  and  C_5 
REMARK    2  A    between atoms: C_5  and  C_6 
REMARK    3  A    between atoms: C_6  and  C_7 
REMARK    4  A    between atoms: C_6  and  C_20 
REMARK       I    between atoms: C_7  and  N_9 
REMARK    5  A    between atoms: N_9  and  C_10 
ROOT
HETATM    1  C   UNL     1      -3.490   1.660 -32.073  1.00  0.00     0.232 C 
HETATM    2  O   UNL     1      -2.852   1.752 -31.023  1.00  0.00    -0.272 OA
HETATM    3  N   UNL     1      -3.818   2.689 -32.931  1.00  0.00    -0.327 N 
HETATM    4  H   UNL     1      -4.556   2.519 -33.609  1.00  0.00     0.169 HD
ENDROOT
BRANCH   1   5
HETATM    5  C   UNL     1      -4.052   0.303 -32.485  1.00  0.00     0.136 C 
BRANCH   5   6
HETATM    6  C   UNL     1      -3.609  -0.766 -31.462  1.00  0.00     0.248 C 
BRANCH   6   7
HETATM    7  N   UNL     1      -2.155  -1.089 -31.566  1.00  0.00    -0.078 N 
HETATM    8  H   UNL     1      -1.646  -0.551 -30.837  1.00  0.00     0.274 HD
HETATM    9  H   UNL     1      -1.962  -2.087 -31.413  1.00  0.00     0.274 HD
HETATM   10  H   UNL     1      -1.759  -0.817 -32.474  1.00  0.00     0.274 HD
ENDBRANCH   6   7
ENDBRANCH   5   6
BRANCH   5  11
HETATM   11  C   UNL     1      -5.560   0.276 -32.681  1.00  0.00    -0.043 A 
HETATM   12  C   UNL     1      -6.389   0.488 -31.565  1.00  0.00     0.008 A 
HETATM   13  C   UNL     1      -7.776   0.505 -31.703  1.00  0.00     0.001 A 
HETATM   14  C   UNL     1      -8.356   0.310 -32.952  1.00  0.00     0.000 A 
HETATM   15  C   UNL     1      -7.548   0.098 -34.067  1.00  0.00     0.001 A 
HETATM   16  C   UNL     1      -6.159   0.083 -33.937  1.00  0.00     0.008 A 
ENDBRANCH   5  11
ENDBRANCH   1   5
BRANCH   3  17
HETATM   17  C   UNL     1      -3.332   4.014 -32.886  1.00  0.00     0.035 A 
HETATM   18  C   UNL     1      -2.185   4.302 -33.631  1.00  0.00     0.030 A 
HETATM   19  C   UNL     1      -1.632   5.586 -33.617  1.00  0.00     0.016 A 
HETATM   20  C   UNL     1      -2.208   6.597 -32.835  1.00  0.00    -0.008 A 
HETATM   21  C   UNL     1      -1.689   7.894 -32.767  1.00  0.00     0.128 A 
HETATM   22  C   UNL     1      -3.355   6.317 -32.067  1.00  0.00    -0.021 A 
HETATM   23  N   UNL     1      -2.208   8.886 -32.010  1.00  0.00    -0.272 NA
HETATM   24  C   UNL     1      -3.299   8.583 -31.278  1.00  0.00     0.117 A 
HETATM   25  C   UNL     1      -3.901   7.334 -31.275  1.00  0.00     0.031 A 
HETATM   26  C   UNL     1      -3.911   5.023 -32.109  1.00  0.00     0.042 A 
ENDBRANCH   3  17
TORSDOF 5
ENDMDL
MODEL 9
REMARK VINA RESULT:      -7.0      3.900      5.628
REMARK  5 active torsions:
REMARK  status: ('A' for Active; 'I' for Inactive)
REMARK    1  A    between atoms: N_1  and  C_5 
REMARK    2  A    between atoms: C_5  and  C_6 
REMARK    3  A    between atoms: C_6  and  C_7 
REMARK    4  A    between atoms: C_6  and  C_20 
REMARK       I    between atoms: C_7  and  N_9 
REMARK    5  A    between atoms: N_9  and  C_10 
ROOT
HETATM    1  C   UNL     1      -2.236   5.340 -31.837  1.00  0.00     0.232 C 
HETATM    2  O   UNL     1      -3.145   5.912 -31.232  1.00  0.00    -0.272 OA
HETATM    3  N   UNL     1      -2.302   4.105 -32.446  1.00  0.00    -0.327 N 
HETATM    4  H   UNL     1      -1.424   3.646 -32.676  1.00  0.00     0.169 HD
ENDROOT
BRANCH   1   5
HETATM    5  C   UNL     1      -0.859   5.993 -31.899  1.00  0.00     0.136 C 
BRANCH   5   6
HETATM    6  C   UNL     1      -0.945   7.289 -32.734  1.00  0.00     0.248 C 
BRANCH   6   7
HETATM    7  N   UNL     1      -2.023   7.234 -33.765  1.00  0.00    -0.078 N 
HETATM    8  H   UNL     1      -2.755   6.572 -33.441  1.00  0.00     0.274 HD
HETATM    9  H   UNL     1      -2.470   8.148 -33.916  1.00  0.00     0.274 HD
HETATM   10  H   UNL     1      -1.681   6.888 -34.670  1.00  0.00     0.274 HD
ENDBRANCH   6   7
ENDBRANCH   5   6
BRANCH   5  11
HETATM   11  C   UNL     1      -0.224   6.261 -30.543  1.00  0.00    -0.043 A 
HETATM   12  C   UNL     1      -0.150   7.588 -30.084  1.00  0.00     0.008 A 
HETATM   13  C   UNL     1       0.393   7.878 -28.833  1.00  0.00     0.001 A 
HETATM   14  C   UNL     1       0.870   6.851 -28.024  1.00  0.00     0.000 A 
HETATM   15  C   UNL     1       0.804   5.531 -28.466  1.00  0.00     0.001 A 
HETATM   16  C   UNL     1       0.259   5.234 -29.716  1.00  0.00     0.008 A 
ENDBRANCH   5  11
ENDBRANCH   1   5
BRANCH   3  17
HETATM   17  C   UNL     1      -3.463   3.332 -32.666  1.00  0.00     0.035 A 
HETATM   18  C   UNL     1      -4.529   3.951 -33.325  1.00  0.00     0.030 A 
HETATM   19  C   UNL     1      -5.720   3.256 -33.558  1.00  0.00     0.016 A 
HETATM   20  C   UNL     1      -5.869   1.935 -33.112  1.00  0.00    -0.008 A 
HETATM   21  C   UNL     1      -7.042   1.197 -33.300  1.00  0.00     0.128 A 
HETATM   22  C   UNL     1      -4.808   1.305 -32.433  1.00  0.00    -0.021 A 
HETATM   23  N   UNL     1      -7.225  -0.070 -32.866  1.00  0.00    -0.272 NA
HETATM   24  C   UNL     1      -6.195  -0.641 -32.211  1.00  0.00     0.117 A 
HETATM   25  C   UNL     1      -4.985  -0.007 -31.976  1.00  0.00     0.031 A 
HETATM   26  C   UNL     1      -3.607   2.012 -32.225  1.00  0.00     0.042 A 
ENDBRANCH   3  17
TORSDOF 5
ENDMDL
MODEL 10
REMARK VINA RESULT:      -6.9      2.609      7.440
REMARK  5 active torsions:
REMARK  status: ('A' for Active; 'I' for Inactive)
REMARK    1  A    between atoms: N_1  and  C_5 
REMARK    2  A    between atoms: C_5  and  C_6 
REMARK    3  A    between atoms: C_6  and  C_7 
REMARK    4  A    between atoms: C_6  and  C_20 
REMARK       I    between atoms: C_7  and  N_9 
REMARK    5  A    between atoms: N_9  and  C_10 
ROOT
HETATM    1  C   UNL     1      -4.291   1.332 -31.976  1.00  0.00     0.232 C 
HETATM    2  O   UNL     1      -3.230   0.797 -32.303  1.00  0.00    -0.272 OA
HETATM    3  N   UNL     1      -4.500   2.676 -31.748  1.00  0.00    -0.327 N 
HETATM    4  H   UNL     1      -5.339   2.942 -31.239  1.00  0.00     0.169 HD
ENDROOT
BRANCH   1   5
HETATM    5  C   UNL     1      -5.517   0.459 -31.724  1.00  0.00     0.136 C 
BRANCH   5   6
HETATM    6  C   UNL     1      -6.452   1.169 -30.721  1.00  0.00     0.248 C 
BRANCH   6   7
HETATM    7  N   UNL     1      -6.212   0.739 -29.312  1.00  0.00    -0.078 N 
HETATM    8  H   UNL     1      -5.606   1.446 -28.851  1.00  0.00     0.274 HD
HETATM    9  H   UNL     1      -7.082   0.668 -28.769  1.00  0.00     0.274 HD
HETATM   10  H   UNL     1      -5.722  -0.162 -29.257  1.00  0.00     0.274 HD
ENDBRANCH   6   7
ENDBRANCH   5   6
BRANCH   5  11
HETATM   11  C   UNL     1      -6.272   0.053 -32.979  1.00  0.00    -0.043 A 
HETATM   12  C   UNL     1      -6.953   1.045 -33.707  1.00  0.00     0.008 A 
HETATM   13  C   UNL     1      -7.631   0.725 -34.883  1.00  0.00     0.001 A 
HETATM   14  C   UNL     1      -7.642  -0.586 -35.348  1.00  0.00     0.000 A 
HETATM   15  C   UNL     1      -6.973  -1.580 -34.637  1.00  0.00     0.001 A 
HETATM   16  C   UNL     1      -6.289  -1.266 -33.461  1.00  0.00     0.008 A 
ENDBRANCH   5  11
ENDBRANCH   1   5
BRANCH   3  17
HETATM   17  C   UNL     1      -3.604   3.730 -32.026  1.00  0.00     0.035 A 
HETATM   18  C   UNL     1      -3.766   4.407 -33.239  1.00  0.00     0.030 A 
HETATM   19  C   UNL     1      -2.901   5.447 -33.594  1.00  0.00     0.016 A 
HETATM   20  C   UNL     1      -1.843   5.809 -32.748  1.00  0.00    -0.008 A 
HETATM   21  C   UNL     1      -0.936   6.827 -33.059  1.00  0.00     0.128 A 
HETATM   22  C   UNL     1      -1.658   5.124 -31.531  1.00  0.00    -0.021 A 
HETATM   23  N   UNL     1       0.105   7.187 -32.276  1.00  0.00    -0.272 NA
HETATM   24  C   UNL     1       0.261   6.507 -31.123  1.00  0.00     0.117 A 
HETATM   25  C   UNL     1      -0.582   5.486 -30.711  1.00  0.00     0.031 A 
HETATM   26  C   UNL     1      -2.551   4.093 -31.179  1.00  0.00     0.042 A 
ENDBRANCH   3  17
TORSDOF 5
ENDMDL
