MODEL 1
REMARK VINA RESULT:      -8.8      0.000      0.000
REMARK  4 active torsions:
REMARK  status: ('A' for Active; 'I' for Inactive)
REMARK    1  A    between atoms: C_7  and  C_8 
REMARK    2  A    between atoms: C_8  and  N_9 
REMARK    3  A    between atoms: C_13  and  C_14 
REMARK    4  A    between atoms: C_16  and  C_17 
ROOT
HETATM    1  N   UNL     1      -4.279   0.557 -31.799  1.00  0.00    -0.067 N 
HETATM    2  H   UNL     1      -3.452   0.543 -31.192  1.00  0.00     0.280 HD
HETATM    3  C   UNL     1      -4.655   2.007 -32.018  1.00  0.00     0.236 C 
HETATM    4  C   UNL     1      -5.152   2.646 -30.726  1.00  0.00     0.040 C 
HETATM    5  C   UNL     1      -6.299   1.867 -30.077  1.00  0.00     0.058 C 
HETATM    6  C   UNL     1      -5.867   0.414 -29.864  1.00  0.00     0.040 C 
HETATM    7  C   UNL     1      -5.370  -0.255 -31.139  1.00  0.00     0.236 C 
ENDROOT
BRANCH   1   8
HETATM    8  C   UNL     1      -3.873  -0.120 -33.101  1.00  0.00     0.276 C 
BRANCH   8   9
HETATM    9  C   UNL     1      -4.967  -0.863 -33.767  1.00  0.00     0.003 A 
HETATM   10  C   UNL     1      -5.012  -2.269 -34.038  1.00  0.00     0.007 A 
HETATM   11  C   UNL     1      -4.159  -3.369 -33.819  1.00  0.00     0.015 A 
HETATM   12  C   UNL     1      -6.237  -2.499 -34.654  1.00  0.00     0.085 A 
HETATM   13  C   UNL     1      -4.583  -4.642 -34.224  1.00  0.00     0.001 A 
HETATM   14  C   UNL     1      -5.824  -4.828 -34.837  1.00  0.00     0.003 A 
HETATM   15  C   UNL     1      -6.685  -3.750 -35.068  1.00  0.00     0.038 A 
HETATM   16  O   UNL     1      -6.922  -1.332 -34.785  1.00  0.00    -0.321 OA
HETATM   17  C   UNL     1      -6.147  -0.348 -34.265  1.00  0.00     0.152 A 
ENDBRANCH   8   9
ENDBRANCH   1   8
BRANCH   5  18
HETATM   18  C   UNL     1      -7.541   1.950 -30.915  1.00  0.00     0.108 A 
HETATM   19  N   UNL     1      -8.107   0.942 -31.542  1.00  0.00    -0.229 NA
HETATM   20  C   UNL     1      -9.202   1.461 -32.225  1.00  0.00     0.157 A 
HETATM   21  C   UNL     1      -9.278   2.820 -31.975  1.00  0.00     0.126 A 
HETATM   22  N   UNL     1      -8.229   3.115 -31.146  1.00  0.00    -0.352 N 
HETATM   23  H   UNL     1      -8.000   4.033 -30.782  1.00  0.00     0.166 HD
BRANCH  20  24
HETATM   24  C   UNL     1     -10.099   0.610 -33.083  1.00  0.00     0.436 C 
HETATM   25  F   UNL     1     -11.323   1.180 -33.259  1.00  0.00    -0.165 F 
HETATM   26  F   UNL     1      -9.576   0.409 -34.318  1.00  0.00    -0.165 F 
HETATM   27  F   UNL     1     -10.312  -0.612 -32.532  1.00  0.00    -0.165 F 
ENDBRANCH  20  24
ENDBRANCH   5  18
TORSDOF 4
ENDMDL
MODEL 2
REMARK VINA RESULT:      -8.8      2.618      3.425
REMARK  4 active torsions:
REMARK  status: ('A' for Active; 'I' for Inactive)
REMARK    1  A    between atoms: C_7  and  C_8 
REMARK    2  A    between atoms: C_8  and  N_9 
REMARK    3  A    between atoms: C_13  and  C_14 
REMARK    4  A    between atoms: C_16  and  C_17 
ROOT
HETATM    1  N   UNL     1      -7.009   0.788 -33.146  1.00  0.00    -0.067 N 
HETATM    2  H   UNL     1      -6.332   0.755 -32.376  1.00  0.00     0.280 HD
HETATM    3  C   UNL     1      -7.353   2.243 -33.384  1.00  0.00     0.236 C 
HETATM    4  C   UNL     1      -8.128   2.822 -32.206  1.00  0.00     0.040 C 
HETATM    5  C   UNL     1      -9.375   2.008 -31.852  1.00  0.00     0.058 C 
HETATM    6  C   UNL     1      -8.974   0.551 -31.607  1.00  0.00     0.040 C 
HETATM    7  C   UNL     1      -8.202  -0.060 -32.771  1.00  0.00     0.236 C 
ENDROOT
BRANCH   1   8
HETATM    8  C   UNL     1      -6.320   0.170 -34.356  1.00  0.00     0.276 C 
BRANCH   8   9
HETATM    9  C   UNL     1      -5.363  -0.910 -34.024  1.00  0.00     0.003 A 
HETATM   10  C   UNL     1      -5.515  -2.309 -34.296  1.00  0.00     0.007 A 
HETATM   11  C   UNL     1      -6.496  -3.120 -34.901  1.00  0.00     0.015 A 
HETATM   12  C   UNL     1      -4.358  -2.917 -33.822  1.00  0.00     0.085 A 
HETATM   13  C   UNL     1      -6.261  -4.498 -35.003  1.00  0.00     0.001 A 
HETATM   14  C   UNL     1      -5.083  -5.067 -34.515  1.00  0.00     0.003 A 
HETATM   15  C   UNL     1      -4.098  -4.282 -33.908  1.00  0.00     0.038 A 
HETATM   16  O   UNL     1      -3.532  -1.989 -33.272  1.00  0.00    -0.321 OA
HETATM   17  C   UNL     1      -4.147  -0.785 -33.382  1.00  0.00     0.152 A 
ENDBRANCH   8   9
ENDBRANCH   1   8
BRANCH   5  18
HETATM   18  C   UNL     1     -10.407   2.116 -32.934  1.00  0.00     0.108 A 
HETATM   19  N   UNL     1     -10.509   3.106 -33.795  1.00  0.00    -0.229 NA
HETATM   20  C   UNL     1     -11.616   2.830 -34.590  1.00  0.00     0.157 A 
HETATM   21  C   UNL     1     -12.170   1.631 -34.180  1.00  0.00     0.126 A 
HETATM   22  N   UNL     1     -11.398   1.189 -33.139  1.00  0.00    -0.352 N 
HETATM   23  H   UNL     1     -11.545   0.337 -32.612  1.00  0.00     0.166 HD
BRANCH  20  24
HETATM   24  C   UNL     1     -12.072   3.752 -35.691  1.00  0.00     0.436 C 
HETATM   25  F   UNL     1     -11.129   4.686 -35.993  1.00  0.00    -0.165 F 
HETATM   26  F   UNL     1     -12.343   3.077 -36.835  1.00  0.00    -0.165 F 
HETATM   27  F   UNL     1     -13.197   4.429 -35.346  1.00  0.00    -0.165 F 
ENDBRANCH  20  24
ENDBRANCH   5  18
TORSDOF 4
ENDMDL
MODEL 3
REMARK VINA RESULT:      -8.5      5.064      6.336
REMARK  4 active torsions:
REMARK  status: ('A' for Active; 'I' for Inactive)
REMARK    1  A    between atoms: C_7  and  C_8 
REMARK    2  A    between atoms: C_8  and  N_9 
REMARK    3  A    between atoms: C_13  and  C_14 
REMARK    4  A    between atoms: C_16  and  C_17 
ROOT
HETATM    1  N   UNL     1      -5.368   2.360 -31.753  1.00  0.00    -0.067 N 
HETATM    2  H   UNL     1      -6.389   2.396 -31.650  1.00  0.00     0.280 HD
HETATM    3  C   UNL     1      -4.768   3.075 -30.562  1.00  0.00     0.236 C 
HETATM    4  C   UNL     1      -5.076   4.567 -30.605  1.00  0.00     0.040 C 
HETATM    5  C   UNL     1      -4.653   5.227 -31.920  1.00  0.00     0.058 C 
HETATM    6  C   UNL     1      -5.296   4.479 -33.091  1.00  0.00     0.040 C 
HETATM    7  C   UNL     1      -5.000   2.984 -33.080  1.00  0.00     0.236 C 
ENDROOT
BRANCH   1   8
HETATM    8  C   UNL     1      -4.986   0.886 -31.773  1.00  0.00     0.276 C 
BRANCH   8   9
HETATM    9  C   UNL     1      -5.917   0.027 -32.540  1.00  0.00     0.003 A 
HETATM   10  C   UNL     1      -5.578  -1.114 -33.337  1.00  0.00     0.007 A 
HETATM   11  C   UNL     1      -4.390  -1.793 -33.677  1.00  0.00     0.015 A 
HETATM   12  C   UNL     1      -6.780  -1.600 -33.839  1.00  0.00     0.085 A 
HETATM   13  C   UNL     1      -4.474  -2.926 -34.498  1.00  0.00     0.001 A 
HETATM   14  C   UNL     1      -5.703  -3.381 -34.977  1.00  0.00     0.003 A 
HETATM   15  C   UNL     1      -6.894  -2.721 -34.656  1.00  0.00     0.038 A 
HETATM   16  O   UNL     1      -7.813  -0.825 -33.413  1.00  0.00    -0.321 OA
HETATM   17  C   UNL     1      -7.288   0.161 -32.645  1.00  0.00     0.152 A 
ENDBRANCH   8   9
ENDBRANCH   1   8
BRANCH   5  18
HETATM   18  C   UNL     1      -3.159   5.257 -32.045  1.00  0.00     0.108 A 
HETATM   19  N   UNL     1      -2.314   5.447 -31.053  1.00  0.00    -0.229 NA
HETATM   20  C   UNL     1      -1.039   5.439 -31.609  1.00  0.00     0.157 A 
HETATM   21  C   UNL     1      -1.150   5.226 -32.972  1.00  0.00     0.126 A 
HETATM   22  N   UNL     1      -2.489   5.109 -33.233  1.00  0.00    -0.352 N 
HETATM   23  H   UNL     1      -2.904   4.954 -34.145  1.00  0.00     0.166 HD
BRANCH  20  24
HETATM   24  C   UNL     1       0.204   5.647 -30.786  1.00  0.00     0.436 C 
HETATM   25  F   UNL     1       0.695   6.911 -30.920  1.00  0.00    -0.165 F 
HETATM   26  F   UNL     1      -0.025   5.451 -29.464  1.00  0.00    -0.165 F 
HETATM   27  F   UNL     1       1.199   4.800 -31.153  1.00  0.00    -0.165 F 
ENDBRANCH  20  24
ENDBRANCH   5  18
TORSDOF 4
ENDMDL
MODEL 4
REMARK VINA RESULT:      -8.4      4.016      5.108
REMARK  4 active torsions:
REMARK  status: ('A' for Active; 'I' for Inactive)
REMARK    1  A    between atoms: C_7  and  C_8 
REMARK    2  A    between atoms: C_8  and  N_9 
REMARK    3  A    between atoms: C_13  and  C_14 
REMARK    4  A    between atoms: C_16  and  C_17 
ROOT
HETATM    1  N   UNL     1      -5.400   1.176 -32.269  1.00  0.00    -0.067 N 
HETATM    2  H   UNL     1      -6.251   0.734 -31.902  1.00  0.00     0.280 HD
HETATM    3  C   UNL     1      -4.564   1.601 -31.080  1.00  0.00     0.236 C 
HETATM    4  C   UNL     1      -5.243   2.725 -30.306  1.00  0.00     0.040 C 
HETATM    5  C   UNL     1      -5.606   3.923 -31.187  1.00  0.00     0.058 C 
HETATM    6  C   UNL     1      -6.461   3.446 -32.363  1.00  0.00     0.040 C 
HETATM    7  C   UNL     1      -5.806   2.326 -33.162  1.00  0.00     0.236 C 
ENDROOT
BRANCH   1   8
HETATM    8  C   UNL     1      -4.689   0.121 -33.106  1.00  0.00     0.276 C 
BRANCH   8   9
HETATM    9  C   UNL     1      -5.593  -0.873 -33.726  1.00  0.00     0.003 A 
HETATM   10  C   UNL     1      -5.299  -2.247 -34.009  1.00  0.00     0.007 A 
HETATM   11  C   UNL     1      -4.188  -3.097 -33.843  1.00  0.00     0.015 A 
HETATM   12  C   UNL     1      -6.456  -2.778 -34.568  1.00  0.00     0.085 A 
HETATM   13  C   UNL     1      -4.299  -4.437 -34.240  1.00  0.00     0.001 A 
HETATM   14  C   UNL     1      -5.482  -4.929 -34.794  1.00  0.00     0.003 A 
HETATM   15  C   UNL     1      -6.596  -4.102 -34.973  1.00  0.00     0.038 A 
HETATM   16  O   UNL     1      -7.417  -1.820 -34.654  1.00  0.00    -0.321 OA
HETATM   17  C   UNL     1      -6.889  -0.672 -34.162  1.00  0.00     0.152 A 
ENDBRANCH   8   9
ENDBRANCH   1   8
BRANCH   5  18
HETATM   18  C   UNL     1      -4.371   4.630 -31.660  1.00  0.00     0.108 A 
HETATM   19  N   UNL     1      -4.094   4.928 -32.912  1.00  0.00    -0.229 NA
HETATM   20  C   UNL     1      -2.845   5.539 -32.909  1.00  0.00     0.157 A 
HETATM   21  C   UNL     1      -2.386   5.607 -31.606  1.00  0.00     0.126 A 
HETATM   22  N   UNL     1      -3.357   5.034 -30.829  1.00  0.00    -0.352 N 
HETATM   23  H   UNL     1      -3.321   4.922 -29.822  1.00  0.00     0.166 HD
BRANCH  20  24
HETATM   24  C   UNL     1      -2.172   6.011 -34.171  1.00  0.00     0.436 C 
HETATM   25  F   UNL     1      -2.020   7.364 -34.190  1.00  0.00    -0.165 F 
HETATM   26  F   UNL     1      -0.936   5.472 -34.317  1.00  0.00    -0.165 F 
HETATM   27  F   UNL     1      -2.888   5.681 -35.277  1.00  0.00    -0.165 F 
ENDBRANCH  20  24
ENDBRANCH   5  18
TORSDOF 4
ENDMDL
MODEL 5
REMARK VINA RESULT:      -8.1      5.529      6.953
REMARK  4 active torsions:
REMARK  status: ('A' for Active; 'I' for Inactive)
REMARK    1  A    between atoms: C_7  and  C_8 
REMARK    2  A    between atoms: C_8  and  N_9 
REMARK    3  A    between atoms: C_13  and  C_14 
REMARK    4  A    between atoms: C_16  and  C_17 
ROOT
HETATM    1  N   UNL     1      -4.703   2.832 -31.769  1.00  0.00    -0.067 N 
HETATM    2  H   UNL     1      -5.422   2.573 -32.453  1.00  0.00     0.280 HD
HETATM    3  C   UNL     1      -5.218   4.034 -31.006  1.00  0.00     0.236 C 
HETATM    4  C   UNL     1      -5.306   5.260 -31.908  1.00  0.00     0.040 C 
HETATM    5  C   UNL     1      -3.987   5.576 -32.618  1.00  0.00     0.058 C 
HETATM    6  C   UNL     1      -3.517   4.337 -33.385  1.00  0.00     0.040 C 
HETATM    7  C   UNL     1      -3.412   3.096 -32.508  1.00  0.00     0.236 C 
ENDROOT
BRANCH   1   8
HETATM    8  C   UNL     1      -4.518   1.627 -30.857  1.00  0.00     0.276 C 
BRANCH   8   9
HETATM    9  C   UNL     1      -4.161   0.377 -31.566  1.00  0.00     0.003 A 
HETATM   10  C   UNL     1      -4.939  -0.302 -32.559  1.00  0.00     0.007 A 
HETATM   11  C   UNL     1      -6.187  -0.096 -33.181  1.00  0.00     0.015 A 
HETATM   12  C   UNL     1      -4.187  -1.407 -32.943  1.00  0.00     0.085 A 
HETATM   13  C   UNL     1      -6.611  -1.006 -34.159  1.00  0.00     0.001 A 
HETATM   14  C   UNL     1      -5.822  -2.102 -34.516  1.00  0.00     0.003 A 
HETATM   15  C   UNL     1      -4.582  -2.328 -33.909  1.00  0.00     0.038 A 
HETATM   16  O   UNL     1      -3.023  -1.448 -32.242  1.00  0.00    -0.321 OA
HETATM   17  C   UNL     1      -3.019  -0.382 -31.404  1.00  0.00     0.152 A 
ENDBRANCH   8   9
ENDBRANCH   1   8
BRANCH   5  18
HETATM   18  C   UNL     1      -2.952   6.037 -31.637  1.00  0.00     0.108 A 
HETATM   19  N   UNL     1      -1.649   5.932 -31.796  1.00  0.00    -0.229 NA
HETATM   20  C   UNL     1      -1.064   6.445 -30.643  1.00  0.00     0.157 A 
HETATM   21  C   UNL     1      -2.065   6.872 -29.789  1.00  0.00     0.126 A 
HETATM   22  N   UNL     1      -3.249   6.614 -30.427  1.00  0.00    -0.352 N 
HETATM   23  H   UNL     1      -4.174   6.805 -30.062  1.00  0.00     0.166 HD
BRANCH  20  24
HETATM   24  C   UNL     1       0.427   6.479 -30.438  1.00  0.00     0.436 C 
HETATM   25  F   UNL     1       1.066   7.094 -31.471  1.00  0.00    -0.165 F 
HETATM   26  F   UNL     1       0.767   7.146 -29.308  1.00  0.00    -0.165 F 
HETATM   27  F   UNL     1       0.950   5.229 -30.341  1.00  0.00    -0.165 F 
ENDBRANCH  20  24
ENDBRANCH   5  18
TORSDOF 4
ENDMDL
MODEL 6
REMARK VINA RESULT:      -8.0      2.759      4.377
REMARK  4 active torsions:
REMARK  status: ('A' for Active; 'I' for Inactive)
REMARK    1  A    between atoms: C_7  and  C_8 
REMARK    2  A    between atoms: C_8  and  N_9 
REMARK    3  A    between atoms: C_13  and  C_14 
REMARK    4  A    between atoms: C_16  and  C_17 
ROOT
HETATM    1  N   UNL     1      -6.884   4.232 -30.431  1.00  0.00    -0.067 N 
HETATM    2  H   UNL     1      -7.081   5.192 -30.126  1.00  0.00     0.280 HD
HETATM    3  C   UNL     1      -6.847   4.238 -31.945  1.00  0.00     0.236 C 
HETATM    4  C   UNL     1      -8.228   4.519 -32.525  1.00  0.00     0.040 C 
HETATM    5  C   UNL     1      -9.303   3.564 -32.000  1.00  0.00     0.058 C 
HETATM    6  C   UNL     1      -9.311   3.605 -30.470  1.00  0.00     0.040 C 
HETATM    7  C   UNL     1      -7.945   3.321 -29.858  1.00  0.00     0.236 C 
ENDROOT
BRANCH   1   8
HETATM    8  C   UNL     1      -5.532   3.857 -29.839  1.00  0.00     0.276 C 
BRANCH   8   9
HETATM    9  C   UNL     1      -4.674   3.056 -30.742  1.00  0.00     0.003 A 
HETATM   10  C   UNL     1      -4.869   1.690 -31.129  1.00  0.00     0.007 A 
HETATM   11  C   UNL     1      -5.818   0.686 -30.849  1.00  0.00     0.015 A 
HETATM   12  C   UNL     1      -3.826   1.387 -31.996  1.00  0.00     0.085 A 
HETATM   13  C   UNL     1      -5.673  -0.567 -31.460  1.00  0.00     0.001 A 
HETATM   14  C   UNL     1      -4.610  -0.827 -32.328  1.00  0.00     0.003 A 
HETATM   15  C   UNL     1      -3.655   0.153 -32.617  1.00  0.00     0.038 A 
HETATM   16  O   UNL     1      -3.012   2.465 -32.146  1.00  0.00    -0.321 OA
HETATM   17  C   UNL     1      -3.517   3.462 -31.377  1.00  0.00     0.152 A 
ENDBRANCH   8   9
ENDBRANCH   1   8
BRANCH   5  18
HETATM   18  C   UNL     1      -9.075   2.173 -32.509  1.00  0.00     0.108 A 
HETATM   19  N   UNL     1      -8.240   1.839 -33.470  1.00  0.00    -0.229 NA
HETATM   20  C   UNL     1      -8.368   0.466 -33.650  1.00  0.00     0.157 A 
HETATM   21  C   UNL     1      -9.305  -0.015 -32.753  1.00  0.00     0.126 A 
HETATM   22  N   UNL     1      -9.740   1.068 -32.037  1.00  0.00    -0.352 N 
HETATM   23  H   UNL     1     -10.436   1.052 -31.301  1.00  0.00     0.166 HD
BRANCH  20  24
HETATM   24  C   UNL     1      -7.582  -0.292 -34.687  1.00  0.00     0.436 C 
HETATM   25  F   UNL     1      -6.340   0.236 -34.867  1.00  0.00    -0.165 F 
HETATM   26  F   UNL     1      -7.413  -1.592 -34.344  1.00  0.00    -0.165 F 
HETATM   27  F   UNL     1      -8.196  -0.271 -35.898  1.00  0.00    -0.165 F 
ENDBRANCH  20  24
ENDBRANCH   5  18
TORSDOF 4
ENDMDL
MODEL 7
REMARK VINA RESULT:      -8.0      1.886      2.525
REMARK  4 active torsions:
REMARK  status: ('A' for Active; 'I' for Inactive)
REMARK    1  A    between atoms: C_7  and  C_8 
REMARK    2  A    between atoms: C_8  and  N_9 
REMARK    3  A    between atoms: C_13  and  C_14 
REMARK    4  A    between atoms: C_16  and  C_17 
ROOT
HETATM    1  N   UNL     1      -4.751   0.542 -31.805  1.00  0.00    -0.067 N 
HETATM    2  H   UNL     1      -4.002   0.466 -31.108  1.00  0.00     0.280 HD
HETATM    3  C   UNL     1      -5.008   2.017 -32.032  1.00  0.00     0.236 C 
HETATM    4  C   UNL     1      -5.611   2.665 -30.791  1.00  0.00     0.040 C 
HETATM    5  C   UNL     1      -6.871   1.951 -30.296  1.00  0.00     0.058 C 
HETATM    6  C   UNL     1      -6.557   0.470 -30.068  1.00  0.00     0.040 C 
HETATM    7  C   UNL     1      -5.959  -0.209 -31.294  1.00  0.00     0.236 C 
ENDROOT
BRANCH   1   8
HETATM    8  C   UNL     1      -4.239  -0.138 -33.068  1.00  0.00     0.276 C 
BRANCH   8   9
HETATM    9  C   UNL     1      -3.919  -1.574 -32.898  1.00  0.00     0.003 A 
HETATM   10  C   UNL     1      -4.459  -2.671 -33.644  1.00  0.00     0.007 A 
HETATM   11  C   UNL     1      -5.387  -2.820 -34.695  1.00  0.00     0.015 A 
HETATM   12  C   UNL     1      -3.847  -3.813 -33.141  1.00  0.00     0.085 A 
HETATM   13  C   UNL     1      -5.646  -4.106 -35.188  1.00  0.00     0.001 A 
HETATM   14  C   UNL     1      -5.005  -5.226 -34.655  1.00  0.00     0.003 A 
HETATM   15  C   UNL     1      -4.084  -5.102 -33.609  1.00  0.00     0.038 A 
HETATM   16  O   UNL     1      -2.991  -3.483 -32.138  1.00  0.00    -0.321 OA
HETATM   17  C   UNL     1      -3.050  -2.136 -31.984  1.00  0.00     0.152 A 
ENDBRANCH   8   9
ENDBRANCH   1   8
BRANCH   5  18
HETATM   18  C   UNL     1      -8.000   2.128 -31.267  1.00  0.00     0.108 A 
HETATM   19  N   UNL     1      -8.129   3.127 -32.114  1.00  0.00    -0.229 NA
HETATM   20  C   UNL     1      -9.325   2.923 -32.793  1.00  0.00     0.157 A 
HETATM   21  C   UNL     1      -9.906   1.756 -32.329  1.00  0.00     0.126 A 
HETATM   22  N   UNL     1      -9.060   1.262 -31.371  1.00  0.00    -0.352 N 
HETATM   23  H   UNL     1      -9.203   0.417 -30.832  1.00  0.00     0.166 HD
BRANCH  20  24
HETATM   24  C   UNL     1      -9.835   3.876 -33.841  1.00  0.00     0.436 C 
HETATM   25  F   UNL     1      -8.825   4.590 -34.411  1.00  0.00    -0.165 F 
HETATM   26  F   UNL     1     -10.477   3.229 -34.845  1.00  0.00    -0.165 F 
HETATM   27  F   UNL     1     -10.706   4.778 -33.320  1.00  0.00    -0.165 F 
ENDBRANCH  20  24
ENDBRANCH   5  18
TORSDOF 4
ENDMDL
MODEL 8
REMARK VINA RESULT:      -8.0      3.583      5.836
REMARK  4 active torsions:
REMARK  status: ('A' for Active; 'I' for Inactive)
REMARK    1  A    between atoms: C_7  and  C_8 
REMARK    2  A    between atoms: C_8  and  N_9 
REMARK    3  A    between atoms: C_13  and  C_14 
REMARK    4  A    between atoms: C_16  and  C_17 
ROOT
HETATM    1  N   UNL     1      -6.540   1.853 -32.662  1.00  0.00    -0.067 N 
HETATM    2  H   UNL     1      -5.747   1.204 -32.605  1.00  0.00     0.280 HD
HETATM    3  C   UNL     1      -7.699   1.217 -31.924  1.00  0.00     0.236 C 
HETATM    4  C   UNL     1      -8.201  -0.021 -32.658  1.00  0.00     0.040 C 
HETATM    5  C   UNL     1      -8.558   0.254 -34.121  1.00  0.00     0.058 C 
HETATM    6  C   UNL     1      -7.352   0.882 -34.825  1.00  0.00     0.040 C 
HETATM    7  C   UNL     1      -6.830   2.127 -34.120  1.00  0.00     0.236 C 
ENDROOT
BRANCH   1   8
HETATM    8  C   UNL     1      -6.091   3.145 -31.992  1.00  0.00     0.276 C 
BRANCH   8   9
HETATM    9  C   UNL     1      -4.638   3.412 -32.097  1.00  0.00     0.003 A 
HETATM   10  C   UNL     1      -3.969   4.144 -33.132  1.00  0.00     0.007 A 
HETATM   11  C   UNL     1      -4.358   4.813 -34.310  1.00  0.00     0.015 A 
HETATM   12  C   UNL     1      -2.622   4.144 -32.789  1.00  0.00     0.085 A 
HETATM   13  C   UNL     1      -3.375   5.452 -35.077  1.00  0.00     0.001 A 
HETATM   14  C   UNL     1      -2.032   5.430 -34.694  1.00  0.00     0.003 A 
HETATM   15  C   UNL     1      -1.624   4.768 -33.531  1.00  0.00     0.038 A 
HETATM   16  O   UNL     1      -2.433   3.454 -31.633  1.00  0.00    -0.321 OA
HETATM   17  C   UNL     1      -3.645   3.002 -31.229  1.00  0.00     0.152 A 
ENDBRANCH   8   9
ENDBRANCH   1   8
BRANCH   5  18
HETATM   18  C   UNL     1      -9.767   1.134 -34.218  1.00  0.00     0.108 A 
HETATM   19  N   UNL     1     -10.970   0.830 -33.777  1.00  0.00    -0.229 NA
HETATM   20  C   UNL     1     -11.796   1.901 -34.102  1.00  0.00     0.157 A 
HETATM   21  C   UNL     1     -11.041   2.865 -34.745  1.00  0.00     0.126 A 
HETATM   22  N   UNL     1      -9.765   2.373 -34.809  1.00  0.00    -0.352 N 
HETATM   23  H   UNL     1      -8.970   2.839 -35.229  1.00  0.00     0.166 HD
BRANCH  20  24
HETATM   24  C   UNL     1     -13.266   1.917 -33.776  1.00  0.00     0.436 C 
HETATM   25  F   UNL     1     -14.034   1.825 -34.896  1.00  0.00    -0.165 F 
HETATM   26  F   UNL     1     -13.617   0.885 -32.970  1.00  0.00    -0.165 F 
HETATM   27  F   UNL     1     -13.629   3.064 -33.146  1.00  0.00    -0.165 F 
ENDBRANCH  20  24
ENDBRANCH   5  18
TORSDOF 4
ENDMDL
MODEL 9
REMARK VINA RESULT:      -7.9      6.405      7.993
REMARK  4 active torsions:
REMARK  status: ('A' for Active; 'I' for Inactive)
REMARK    1  A    between atoms: C_7  and  C_8 
REMARK    2  A    between atoms: C_8  and  N_9 
REMARK    3  A    between atoms: C_13  and  C_14 
REMARK    4  A    between atoms: C_16  and  C_17 
ROOT
HETATM    1  N   UNL     1      -3.772   4.520 -32.610  1.00  0.00    -0.067 N 
HETATM    2  H   UNL     1      -4.287   4.687 -33.481  1.00  0.00     0.280 HD
HETATM    3  C   UNL     1      -3.775   5.816 -31.827  1.00  0.00     0.236 C 
HETATM    4  C   UNL     1      -2.945   6.883 -32.531  1.00  0.00     0.040 C 
HETATM    5  C   UNL     1      -1.518   6.424 -32.838  1.00  0.00     0.058 C 
HETATM    6  C   UNL     1      -1.567   5.122 -33.642  1.00  0.00     0.040 C 
HETATM    7  C   UNL     1      -2.385   4.031 -32.961  1.00  0.00     0.236 C 
ENDROOT
BRANCH   1   8
HETATM    8  C   UNL     1      -4.516   3.416 -31.870  1.00  0.00     0.276 C 
BRANCH   8   9
HETATM    9  C   UNL     1      -5.383   2.583 -32.735  1.00  0.00     0.003 A 
HETATM   10  C   UNL     1      -5.253   1.179 -32.988  1.00  0.00     0.007 A 
HETATM   11  C   UNL     1      -4.371   0.157 -32.583  1.00  0.00     0.015 A 
HETATM   12  C   UNL     1      -6.302   0.846 -33.838  1.00  0.00     0.085 A 
HETATM   13  C   UNL     1      -4.594  -1.147 -33.048  1.00  0.00     0.001 A 
HETATM   14  C   UNL     1      -5.662  -1.438 -33.898  1.00  0.00     0.003 A 
HETATM   15  C   UNL     1      -6.547  -0.438 -34.316  1.00  0.00     0.038 A 
HETATM   16  O   UNL     1      -7.042   1.950 -34.123  1.00  0.00    -0.321 OA
HETATM   17  C   UNL     1      -6.477   2.995 -33.471  1.00  0.00     0.152 A 
ENDBRANCH   8   9
ENDBRANCH   1   8
BRANCH   5  18
HETATM   18  C   UNL     1      -0.727   6.258 -31.575  1.00  0.00     0.108 A 
HETATM   19  N   UNL     1      -0.606   7.161 -30.626  1.00  0.00    -0.229 NA
HETATM   20  C   UNL     1       0.236   6.617 -29.662  1.00  0.00     0.157 A 
HETATM   21  C   UNL     1       0.610   5.347 -30.065  1.00  0.00     0.126 A 
HETATM   22  N   UNL     1      -0.006   5.131 -31.269  1.00  0.00    -0.352 N 
HETATM   23  H   UNL     1       0.071   4.292 -31.832  1.00  0.00     0.166 HD
BRANCH  20  24
HETATM   24  C   UNL     1       0.634   7.366 -28.418  1.00  0.00     0.436 C 
HETATM   25  F   UNL     1       1.525   8.360 -28.688  1.00  0.00    -0.165 F 
HETATM   26  F   UNL     1      -0.432   7.944 -27.813  1.00  0.00    -0.165 F 
HETATM   27  F   UNL     1       1.222   6.550 -27.506  1.00  0.00    -0.165 F 
ENDBRANCH  20  24
ENDBRANCH   5  18
TORSDOF 4
ENDMDL
MODEL 10
REMARK VINA RESULT:      -7.9      2.901      3.882
REMARK  4 active torsions:
REMARK  status: ('A' for Active; 'I' for Inactive)
REMARK    1  A    between atoms: C_7  and  C_8 
REMARK    2  A    between atoms: C_8  and  N_9 
REMARK    3  A    between atoms: C_13  and  C_14 
REMARK    4  A    between atoms: C_16  and  C_17 
ROOT
HETATM    1  N   UNL     1      -7.340   0.190 -33.672  1.00  0.00    -0.067 N 
HETATM    2  H   UNL     1      -7.564  -0.702 -34.126  1.00  0.00     0.280 HD
HETATM    3  C   UNL     1      -7.732   0.066 -32.214  1.00  0.00     0.236 C 
HETATM    4  C   UNL     1      -9.245  -0.040 -32.061  1.00  0.00     0.040 C 
HETATM    5  C   UNL     1      -9.996   1.107 -32.742  1.00  0.00     0.058 C 
HETATM    6  C   UNL     1      -9.578   1.182 -34.213  1.00  0.00     0.040 C 
HETATM    7  C   UNL     1      -8.070   1.296 -34.400  1.00  0.00     0.236 C 
ENDROOT
BRANCH   1   8
HETATM    8  C   UNL     1      -5.839   0.394 -33.833  1.00  0.00     0.276 C 
BRANCH   8   9
HETATM    9  C   UNL     1      -5.028  -0.811 -33.548  1.00  0.00     0.003 A 
HETATM   10  C   UNL     1      -5.260  -2.140 -34.030  1.00  0.00     0.007 A 
HETATM   11  C   UNL     1      -6.219  -2.763 -34.853  1.00  0.00     0.015 A 
HETATM   12  C   UNL     1      -4.230  -2.918 -33.514  1.00  0.00     0.085 A 
HETATM   13  C   UNL     1      -6.089  -4.133 -35.119  1.00  0.00     0.001 A 
HETATM   14  C   UNL     1      -5.037  -4.877 -34.583  1.00  0.00     0.003 A 
HETATM   15  C   UNL     1      -4.076  -4.279 -33.760  1.00  0.00     0.038 A 
HETATM   16  O   UNL     1      -3.406  -2.156 -32.747  1.00  0.00    -0.321 OA
HETATM   17  C   UNL     1      -3.899  -0.893 -32.756  1.00  0.00     0.152 A 
ENDBRANCH   8   9
ENDBRANCH   1   8
BRANCH   5  18
HETATM   18  C   UNL     1      -9.743   2.404 -32.034  1.00  0.00     0.108 A 
HETATM   19  N   UNL     1      -9.580   3.573 -32.618  1.00  0.00    -0.229 NA
HETATM   20  C   UNL     1      -9.334   4.493 -31.605  1.00  0.00     0.157 A 
HETATM   21  C   UNL     1      -9.366   3.835 -30.388  1.00  0.00     0.126 A 
HETATM   22  N   UNL     1      -9.629   2.521 -30.672  1.00  0.00    -0.352 N 
HETATM   23  H   UNL     1      -9.710   1.773 -29.993  1.00  0.00     0.166 HD
BRANCH  20  24
HETATM   24  C   UNL     1      -9.074   5.950 -31.880  1.00  0.00     0.436 C 
HETATM   25  F   UNL     1      -7.938   6.387 -31.270  1.00  0.00    -0.165 F 
HETATM   26  F   UNL     1      -8.930   6.197 -33.206  1.00  0.00    -0.165 F 
HETATM   27  F   UNL     1     -10.086   6.736 -31.432  1.00  0.00    -0.165 F 
ENDBRANCH  20  24
ENDBRANCH   5  18
TORSDOF 4
ENDMDL
