MODEL 1
REMARK VINA RESULT:     -10.5      0.000      0.000
REMARK  8 active torsions:
REMARK  status: ('A' for Active; 'I' for Inactive)
REMARK    1  A    between atoms: C_2  and  O_3 
REMARK    2  A    between atoms: O_3  and  C_4 
REMARK    3  A    between atoms: C_7  and  N_8 
REMARK       I    between atoms: N_8  and  C_9 
REMARK       I    between atoms: C_9  and  N_10 
REMARK    4  A    between atoms: N_10  and  C_11 
REMARK    5  A    between atoms: C_12  and  N_13 
REMARK    6  A    between atoms: C_29  and  C_30 
REMARK       I    between atoms: C_30  and  N_31 
REMARK    7  A    between atoms: N_31  and  C_32 
REMARK    8  A    between atoms: C_32  and  C_33 
ROOT
HETATM    1  C   UNL     1      -5.525   3.539 -30.727  1.00  0.00     0.043 A 
HETATM    2  C   UNL     1      -4.664   4.662 -30.754  1.00  0.00     0.052 A 
HETATM    3  C   UNL     1      -3.316   4.375 -31.052  1.00  0.00     0.032 A 
HETATM    4  C   UNL     1      -2.859   3.079 -31.357  1.00  0.00     0.019 A 
HETATM    5  C   UNL     1      -3.742   2.006 -31.365  1.00  0.00     0.033 A 
HETATM    6  C   UNL     1      -5.067   2.238 -31.021  1.00  0.00     0.043 A 
ENDROOT
BRANCH   1   7
HETATM    7  N   UNL     1      -6.906   3.627 -30.394  1.00  0.00    -0.213 NA
HETATM    8  C   UNL     1      -7.772   3.508 -31.474  1.00  0.00     0.281 C 
HETATM    9  N   UNL     1      -8.991   2.945 -31.118  1.00  0.00    -0.215 NA
HETATM   10  O   UNL     1      -7.429   3.785 -32.623  1.00  0.00    -0.260 OA
HETATM   11  H   UNL     1      -8.895   2.376 -30.287  1.00  0.00     0.138 HD
HETATM   12  H   UNL     1      -7.131   4.416 -29.801  1.00  0.00     0.138 HD
BRANCH   9  13
HETATM   13  C   UNL     1      -9.727   2.361 -32.182  1.00  0.00     0.016 C 
HETATM   14  C   UNL     1     -10.807   3.069 -32.711  1.00  0.00     0.026 C 
HETATM   15  C   UNL     1     -11.811   2.373 -33.386  1.00  0.00     0.038 C 
HETATM   16  C   UNL     1     -11.703   0.991 -33.537  1.00  0.00     0.068 C 
HETATM   17  C   UNL     1     -10.533   0.320 -33.193  1.00  0.00     0.038 C 
HETATM   18  C   UNL     1      -9.539   1.011 -32.510  1.00  0.00     0.026 C 
BRANCH  16  19
HETATM   19  O   UNL     1     -12.821   0.296 -33.925  1.00  0.00    -0.352 OA
BRANCH  19  20
HETATM   20  C   UNL     1     -13.725   1.197 -34.594  1.00  0.00     0.171 C 
HETATM   21  C   UNL     1     -15.151   0.788 -34.283  1.00  0.00     0.034 C 
ENDBRANCH  19  20
ENDBRANCH  16  19
ENDBRANCH   9  13
ENDBRANCH   1   7
BRANCH   2  22
HETATM   22  N   UNL     1      -5.106   5.972 -30.539  1.00  0.00    -0.378 N 
HETATM   23  C   UNL     1      -4.906   6.634 -29.236  1.00  0.00     0.133 C 
HETATM   24  C   UNL     1      -3.930   7.834 -29.301  1.00  0.00     0.054 C 
HETATM   25  C   UNL     1      -4.418   8.817 -30.360  1.00  0.00     0.020 C 
HETATM   26  C   UNL     1      -2.494   7.430 -29.592  1.00  0.00     0.020 A 
HETATM   27  C   UNL     1      -4.370   8.092 -31.694  1.00  0.00     0.023 C 
HETATM   28  C   UNL     1      -2.928   7.704 -32.038  1.00  0.00     0.138 C 
HETATM   29  C   UNL     1      -5.300   6.872 -31.692  1.00  0.00     0.129 C 
HETATM   30  N   UNL     1      -2.063   7.340 -30.918  1.00  0.00    -0.317 N 
HETATM   31  C   UNL     1      -0.753   6.983 -31.260  1.00  0.00     0.247 A 
HETATM   32  O   UNL     1      -0.316   6.930 -32.407  1.00  0.00    -0.268 OA
HETATM   33  C   UNL     1       0.161   6.681 -30.131  1.00  0.00     0.074 A 
HETATM   34  C   UNL     1      -0.270   6.790 -28.871  1.00  0.00     0.007 A 
HETATM   35  C   UNL     1      -1.627   7.183 -28.593  1.00  0.00     0.026 A 
ENDBRANCH   2  22
BRANCH   5  36
HETATM   36  C   UNL     1      -3.253   0.638 -31.700  1.00  0.00     0.251 C 
HETATM   37  N   UNL     1      -3.843   0.032 -32.788  1.00  0.00    -0.353 N 
HETATM   38  H   UNL     1      -4.361   0.596 -33.448  1.00  0.00     0.163 HD
HETATM   39  O   UNL     1      -2.370   0.117 -31.027  1.00  0.00    -0.268 OA
BRANCH  37  40
HETATM   40  C   UNL     1      -3.447  -1.285 -33.232  1.00  0.00     0.161 C 
BRANCH  40  41
HETATM   41  C   UNL     1      -4.629  -2.040 -33.788  1.00  0.00    -0.041 A 
HETATM   42  C   UNL     1      -4.477  -3.320 -34.337  1.00  0.00     0.009 A 
HETATM   43  C   UNL     1      -5.583  -4.013 -34.835  1.00  0.00     0.001 A 
HETATM   44  C   UNL     1      -6.850  -3.434 -34.792  1.00  0.00     0.000 A 
HETATM   45  C   UNL     1      -7.014  -2.161 -34.251  1.00  0.00     0.001 A 
HETATM   46  C   UNL     1      -5.911  -1.468 -33.751  1.00  0.00     0.009 A 
ENDBRANCH  40  41
ENDBRANCH  37  40
ENDBRANCH   5  36
TORSDOF 8
ENDMDL
MODEL 2
REMARK VINA RESULT:     -10.3      2.619      8.521
REMARK  8 active torsions:
REMARK  status: ('A' for Active; 'I' for Inactive)
REMARK    1  A    between atoms: C_2  and  O_3 
REMARK    2  A    between atoms: O_3  and  C_4 
REMARK    3  A    between atoms: C_7  and  N_8 
REMARK       I    between atoms: N_8  and  C_9 
REMARK       I    between atoms: C_9  and  N_10 
REMARK    4  A    between atoms: N_10  and  C_11 
REMARK    5  A    between atoms: C_12  and  N_13 
REMARK    6  A    between atoms: C_29  and  C_30 
REMARK       I    between atoms: C_30  and  N_31 
REMARK    7  A    between atoms: N_31  and  C_32 
REMARK    8  A    between atoms: C_32  and  C_33 
ROOT
HETATM    1  C   UNL     1      -6.857   3.718 -33.518  1.00  0.00     0.043 A 
HETATM    2  C   UNL     1      -8.127   3.940 -32.937  1.00  0.00     0.052 A 
HETATM    3  C   UNL     1      -8.658   2.846 -32.223  1.00  0.00     0.032 A 
HETATM    4  C   UNL     1      -7.961   1.637 -32.047  1.00  0.00     0.019 A 
HETATM    5  C   UNL     1      -6.694   1.469 -32.594  1.00  0.00     0.033 A 
HETATM    6  C   UNL     1      -6.160   2.502 -33.353  1.00  0.00     0.043 A 
ENDROOT
BRANCH   1   7
HETATM    7  N   UNL     1      -6.188   4.687 -34.317  1.00  0.00    -0.213 NA
HETATM    8  C   UNL     1      -5.089   5.282 -33.710  1.00  0.00     0.281 C 
HETATM    9  N   UNL     1      -4.117   5.663 -34.626  1.00  0.00    -0.215 NA
HETATM   10  O   UNL     1      -4.976   5.355 -32.487  1.00  0.00    -0.260 OA
HETATM   11  H   UNL     1      -4.181   5.109 -35.470  1.00  0.00     0.138 HD
HETATM   12  H   UNL     1      -6.810   5.363 -34.742  1.00  0.00     0.138 HD
BRANCH   9  13
HETATM   13  C   UNL     1      -2.810   5.829 -34.096  1.00  0.00     0.016 C 
HETATM   14  C   UNL     1      -2.199   4.737 -33.478  1.00  0.00     0.026 C 
HETATM   15  C   UNL     1      -1.175   4.964 -32.557  1.00  0.00     0.038 C 
HETATM   16  C   UNL     1      -0.768   6.271 -32.292  1.00  0.00     0.068 C 
HETATM   17  C   UNL     1      -1.234   7.337 -33.058  1.00  0.00     0.038 C 
HETATM   18  C   UNL     1      -2.262   7.113 -33.966  1.00  0.00     0.026 C 
BRANCH  16  19
HETATM   19  O   UNL     1       0.011   6.491 -31.185  1.00  0.00    -0.352 OA
BRANCH  19  20
HETATM   20  C   UNL     1       0.663   5.260 -30.816  1.00  0.00     0.171 C 
HETATM   21  C   UNL     1       0.687   5.146 -29.305  1.00  0.00     0.034 C 
ENDBRANCH  19  20
ENDBRANCH  16  19
ENDBRANCH   9  13
ENDBRANCH   1   7
BRANCH   2  22
HETATM   22  N   UNL     1      -8.807   5.161 -33.023  1.00  0.00    -0.378 N 
HETATM   23  C   UNL     1      -9.175   5.732 -34.332  1.00  0.00     0.133 C 
HETATM   24  C   UNL     1     -10.703   5.788 -34.568  1.00  0.00     0.054 C 
HETATM   25  C   UNL     1     -11.359   6.550 -33.421  1.00  0.00     0.020 C 
HETATM   26  C   UNL     1     -11.344   4.417 -34.712  1.00  0.00     0.020 A 
HETATM   27  C   UNL     1     -11.102   5.751 -32.154  1.00  0.00     0.023 C 
HETATM   28  C   UNL     1     -11.769   4.375 -32.250  1.00  0.00     0.138 C 
HETATM   29  C   UNL     1      -9.599   5.634 -31.871  1.00  0.00     0.129 C 
HETATM   30  N   UNL     1     -11.806   3.754 -33.572  1.00  0.00    -0.317 N 
HETATM   31  C   UNL     1     -12.414   2.494 -33.630  1.00  0.00     0.247 A 
HETATM   32  O   UNL     1     -12.872   1.890 -32.663  1.00  0.00    -0.268 OA
HETATM   33  C   UNL     1     -12.526   1.881 -34.976  1.00  0.00     0.074 A 
HETATM   34  C   UNL     1     -12.092   2.542 -36.053  1.00  0.00     0.007 A 
HETATM   35  C   UNL     1     -11.495   3.846 -35.920  1.00  0.00     0.026 A 
ENDBRANCH   2  22
BRANCH   5  36
HETATM   36  C   UNL     1      -5.957   0.189 -32.394  1.00  0.00     0.251 C 
HETATM   37  N   UNL     1      -5.012  -0.123 -33.348  1.00  0.00    -0.353 N 
HETATM   38  H   UNL     1      -4.675   0.603 -33.966  1.00  0.00     0.163 HD
HETATM   39  O   UNL     1      -6.199  -0.517 -31.421  1.00  0.00    -0.268 OA
BRANCH  37  40
HETATM   40  C   UNL     1      -4.213  -1.324 -33.262  1.00  0.00     0.161 C 
BRANCH  40  41
HETATM   41  C   UNL     1      -4.921  -2.484 -33.917  1.00  0.00    -0.041 A 
HETATM   42  C   UNL     1      -4.330  -3.753 -33.975  1.00  0.00     0.009 A 
HETATM   43  C   UNL     1      -5.002  -4.822 -34.572  1.00  0.00     0.001 A 
HETATM   44  C   UNL     1      -6.270  -4.634 -35.120  1.00  0.00     0.000 A 
HETATM   45  C   UNL     1      -6.868  -3.376 -35.071  1.00  0.00     0.001 A 
HETATM   46  C   UNL     1      -6.198  -2.308 -34.473  1.00  0.00     0.009 A 
ENDBRANCH  40  41
ENDBRANCH  37  40
ENDBRANCH   5  36
TORSDOF 8
ENDMDL
MODEL 3
REMARK VINA RESULT:      -9.3      3.310      8.100
REMARK  8 active torsions:
REMARK  status: ('A' for Active; 'I' for Inactive)
REMARK    1  A    between atoms: C_2  and  O_3 
REMARK    2  A    between atoms: O_3  and  C_4 
REMARK    3  A    between atoms: C_7  and  N_8 
REMARK       I    between atoms: N_8  and  C_9 
REMARK       I    between atoms: C_9  and  N_10 
REMARK    4  A    between atoms: N_10  and  C_11 
REMARK    5  A    between atoms: C_12  and  N_13 
REMARK    6  A    between atoms: C_29  and  C_30 
REMARK       I    between atoms: C_30  and  N_31 
REMARK    7  A    between atoms: N_31  and  C_32 
REMARK    8  A    between atoms: C_32  and  C_33 
ROOT
HETATM    1  C   UNL     1      -7.395   4.870 -33.164  1.00  0.00     0.043 A 
HETATM    2  C   UNL     1      -7.578   3.506 -33.491  1.00  0.00     0.052 A 
HETATM    3  C   UNL     1      -6.484   2.894 -34.137  1.00  0.00     0.032 A 
HETATM    4  C   UNL     1      -5.275   3.565 -34.395  1.00  0.00     0.019 A 
HETATM    5  C   UNL     1      -5.114   4.894 -34.019  1.00  0.00     0.033 A 
HETATM    6  C   UNL     1      -6.188   5.549 -33.431  1.00  0.00     0.043 A 
ENDROOT
BRANCH   1   7
HETATM    7  N   UNL     1      -8.407   5.665 -32.556  1.00  0.00    -0.213 NA
HETATM    8  C   UNL     1      -9.412   6.086 -33.419  1.00  0.00     0.281 C 
HETATM    9  N   UNL     1     -10.633   6.243 -32.776  1.00  0.00    -0.215 NA
HETATM   10  O   UNL     1      -9.231   6.197 -34.631  1.00  0.00    -0.260 OA
HETATM   11  H   UNL     1     -10.679   5.669 -31.945  1.00  0.00     0.138 HD
HETATM   12  H   UNL     1      -8.045   6.419 -31.987  1.00  0.00     0.138 HD
BRANCH   9  13
HETATM   13  C   UNL     1     -11.776   6.202 -33.618  1.00  0.00     0.016 C 
HETATM   14  C   UNL     1     -12.004   5.050 -34.374  1.00  0.00     0.026 C 
HETATM   15  C   UNL     1     -12.793   5.138 -35.522  1.00  0.00     0.038 C 
HETATM   16  C   UNL     1     -13.355   6.364 -35.876  1.00  0.00     0.068 C 
HETATM   17  C   UNL     1     -13.297   7.456 -35.014  1.00  0.00     0.038 C 
HETATM   18  C   UNL     1     -12.501   7.372 -33.877  1.00  0.00     0.026 C 
BRANCH  16  19
HETATM   19  O   UNL     1     -13.863   6.498 -37.143  1.00  0.00    -0.352 OA
BRANCH  19  20
HETATM   20  C   UNL     1     -14.131   7.891 -37.397  1.00  0.00     0.171 C 
HETATM   21  C   UNL     1     -13.400   8.316 -38.654  1.00  0.00     0.034 C 
ENDBRANCH  19  20
ENDBRANCH  16  19
ENDBRANCH   9  13
ENDBRANCH   1   7
BRANCH   2  22
HETATM   22  N   UNL     1      -8.737   2.789 -33.171  1.00  0.00    -0.378 N 
HETATM   23  C   UNL     1      -9.372   1.898 -34.160  1.00  0.00     0.133 C 
HETATM   24  C   UNL     1      -9.311   0.403 -33.766  1.00  0.00     0.054 C 
HETATM   25  C   UNL     1      -9.921   0.225 -32.380  1.00  0.00     0.020 C 
HETATM   26  C   UNL     1      -7.904  -0.172 -33.790  1.00  0.00     0.020 A 
HETATM   27  C   UNL     1      -9.052   1.008 -31.410  1.00  0.00     0.023 C 
HETATM   28  C   UNL     1      -7.634   0.430 -31.380  1.00  0.00     0.138 C 
HETATM   29  C   UNL     1      -9.047   2.503 -31.757  1.00  0.00     0.129 C 
HETATM   30  N   UNL     1      -7.117  -0.104 -32.638  1.00  0.00    -0.317 N 
HETATM   31  C   UNL     1      -5.816  -0.620 -32.585  1.00  0.00     0.247 A 
HETATM   32  O   UNL     1      -5.101  -0.620 -31.586  1.00  0.00    -0.268 OA
HETATM   33  C   UNL     1      -5.301  -1.232 -33.835  1.00  0.00     0.074 A 
HETATM   34  C   UNL     1      -6.080  -1.300 -34.919  1.00  0.00     0.007 A 
HETATM   35  C   UNL     1      -7.417  -0.767 -34.895  1.00  0.00     0.026 A 
ENDBRANCH   2  22
BRANCH   5  36
HETATM   36  C   UNL     1      -3.826   5.595 -34.285  1.00  0.00     0.251 C 
HETATM   37  N   UNL     1      -3.396   6.468 -33.308  1.00  0.00    -0.353 N 
HETATM   38  H   UNL     1      -3.798   6.409 -32.382  1.00  0.00     0.163 HD
HETATM   39  O   UNL     1      -3.207   5.378 -35.322  1.00  0.00    -0.268 OA
BRANCH  37  40
HETATM   40  C   UNL     1      -2.155   7.196 -33.432  1.00  0.00     0.161 C 
BRANCH  40  41
HETATM   41  C   UNL     1      -1.465   7.308 -32.095  1.00  0.00    -0.041 A 
HETATM   42  C   UNL     1      -2.060   7.994 -31.028  1.00  0.00     0.009 A 
HETATM   43  C   UNL     1      -1.416   8.077 -29.791  1.00  0.00     0.001 A 
HETATM   44  C   UNL     1      -0.171   7.479 -29.608  1.00  0.00     0.000 A 
HETATM   45  C   UNL     1       0.433   6.796 -30.662  1.00  0.00     0.001 A 
HETATM   46  C   UNL     1      -0.209   6.710 -31.898  1.00  0.00     0.009 A 
ENDBRANCH  40  41
ENDBRANCH  37  40
ENDBRANCH   5  36
TORSDOF 8
ENDMDL
MODEL 4
REMARK VINA RESULT:      -9.3      3.093      8.607
REMARK  8 active torsions:
REMARK  status: ('A' for Active; 'I' for Inactive)
REMARK    1  A    between atoms: C_2  and  O_3 
REMARK    2  A    between atoms: O_3  and  C_4 
REMARK    3  A    between atoms: C_7  and  N_8 
REMARK       I    between atoms: N_8  and  C_9 
REMARK       I    between atoms: C_9  and  N_10 
REMARK    4  A    between atoms: N_10  and  C_11 
REMARK    5  A    between atoms: C_12  and  N_13 
REMARK    6  A    between atoms: C_29  and  C_30 
REMARK       I    between atoms: C_30  and  N_31 
REMARK    7  A    between atoms: N_31  and  C_32 
REMARK    8  A    between atoms: C_32  and  C_33 
ROOT
HETATM    1  C   UNL     1      -7.005   4.785 -33.711  1.00  0.00     0.043 A 
HETATM    2  C   UNL     1      -7.124   3.425 -33.340  1.00  0.00     0.052 A 
HETATM    3  C   UNL     1      -5.902   2.753 -33.129  1.00  0.00     0.032 A 
HETATM    4  C   UNL     1      -4.652   3.392 -33.224  1.00  0.00     0.019 A 
HETATM    5  C   UNL     1      -4.574   4.742 -33.546  1.00  0.00     0.033 A 
HETATM    6  C   UNL     1      -5.753   5.425 -33.817  1.00  0.00     0.043 A 
ENDROOT
BRANCH   1   7
HETATM    7  N   UNL     1      -8.126   5.608 -34.014  1.00  0.00    -0.213 NA
HETATM    8  C   UNL     1      -8.574   6.391 -32.957  1.00  0.00     0.281 C 
HETATM    9  N   UNL     1      -9.147   7.583 -33.385  1.00  0.00    -0.215 NA
HETATM   10  O   UNL     1      -8.377   6.082 -31.783  1.00  0.00    -0.260 OA
HETATM   11  H   UNL     1      -8.791   7.847 -34.294  1.00  0.00     0.138 HD
HETATM   12  H   UNL     1      -8.878   5.115 -34.478  1.00  0.00     0.138 HD
BRANCH   9  13
HETATM   13  C   UNL     1      -9.193   8.619 -32.416  1.00  0.00     0.016 C 
HETATM   14  C   UNL     1      -8.059   9.413 -32.236  1.00  0.00     0.026 C 
HETATM   15  C   UNL     1      -7.888  10.088 -31.026  1.00  0.00     0.038 C 
HETATM   16  C   UNL     1      -8.862   9.976 -30.035  1.00  0.00     0.068 C 
HETATM   17  C   UNL     1     -10.082   9.356 -30.294  1.00  0.00     0.038 C 
HETATM   18  C   UNL     1     -10.247   8.673 -31.494  1.00  0.00     0.026 C 
BRANCH  16  19
HETATM   19  O   UNL     1      -8.542  10.388 -28.767  1.00  0.00    -0.352 OA
BRANCH  19  20
HETATM   20  C   UNL     1      -8.693   9.278 -27.860  1.00  0.00     0.171 C 
HETATM   21  C   UNL     1      -7.397   8.494 -27.815  1.00  0.00     0.034 C 
ENDBRANCH  19  20
ENDBRANCH  16  19
ENDBRANCH   9  13
ENDBRANCH   1   7
BRANCH   2  22
HETATM   22  N   UNL     1      -8.355   2.785 -33.154  1.00  0.00    -0.378 N 
HETATM   23  C   UNL     1      -8.961   1.984 -34.235  1.00  0.00     0.133 C 
HETATM   24  C   UNL     1      -9.042   0.474 -33.905  1.00  0.00     0.054 C 
HETATM   25  C   UNL     1      -9.785   0.289 -32.586  1.00  0.00     0.020 C 
HETATM   26  C   UNL     1      -7.683  -0.203 -33.833  1.00  0.00     0.020 A 
HETATM   27  C   UNL     1      -8.953   0.966 -31.510  1.00  0.00     0.023 C 
HETATM   28  C   UNL     1      -7.589   0.282 -31.384  1.00  0.00     0.138 C 
HETATM   29  C   UNL     1      -8.811   2.468 -31.788  1.00  0.00     0.129 C 
HETATM   30  N   UNL     1      -7.000  -0.239 -32.615  1.00  0.00    -0.317 N 
HETATM   31  C   UNL     1      -5.749  -0.853 -32.472  1.00  0.00     0.247 A 
HETATM   32  O   UNL     1      -5.129  -0.946 -31.416  1.00  0.00    -0.268 OA
HETATM   33  C   UNL     1      -5.169  -1.453 -33.699  1.00  0.00     0.074 A 
HETATM   34  C   UNL     1      -5.850  -1.421 -34.848  1.00  0.00     0.007 A 
HETATM   35  C   UNL     1      -7.142  -0.790 -34.917  1.00  0.00     0.026 A 
ENDBRANCH   2  22
BRANCH   5  36
HETATM   36  C   UNL     1      -3.247   5.415 -33.634  1.00  0.00     0.251 C 
HETATM   37  N   UNL     1      -2.270   4.944 -32.783  1.00  0.00    -0.353 N 
HETATM   38  H   UNL     1      -2.389   4.040 -32.346  1.00  0.00     0.163 HD
HETATM   39  O   UNL     1      -3.070   6.328 -34.434  1.00  0.00    -0.268 OA
BRANCH  37  40
HETATM   40  C   UNL     1      -0.934   5.496 -32.781  1.00  0.00     0.161 C 
BRANCH  40  41
HETATM   41  C   UNL     1      -0.530   5.912 -31.388  1.00  0.00    -0.041 A 
HETATM   42  C   UNL     1       0.181   5.042 -30.551  1.00  0.00     0.009 A 
HETATM   43  C   UNL     1       0.561   5.446 -29.268  1.00  0.00     0.001 A 
HETATM   44  C   UNL     1       0.232   6.719 -28.809  1.00  0.00     0.000 A 
HETATM   45  C   UNL     1      -0.477   7.593 -29.631  1.00  0.00     0.001 A 
HETATM   46  C   UNL     1      -0.856   7.192 -30.913  1.00  0.00     0.009 A 
ENDBRANCH  40  41
ENDBRANCH  37  40
ENDBRANCH   5  36
TORSDOF 8
ENDMDL
MODEL 5
REMARK VINA RESULT:      -9.3      2.749      9.128
REMARK  8 active torsions:
REMARK  status: ('A' for Active; 'I' for Inactive)
REMARK    1  A    between atoms: C_2  and  O_3 
REMARK    2  A    between atoms: O_3  and  C_4 
REMARK    3  A    between atoms: C_7  and  N_8 
REMARK       I    between atoms: N_8  and  C_9 
REMARK       I    between atoms: C_9  and  N_10 
REMARK    4  A    between atoms: N_10  and  C_11 
REMARK    5  A    between atoms: C_12  and  N_13 
REMARK    6  A    between atoms: C_29  and  C_30 
REMARK       I    between atoms: C_30  and  N_31 
REMARK    7  A    between atoms: N_31  and  C_32 
REMARK    8  A    between atoms: C_32  and  C_33 
ROOT
HETATM    1  C   UNL     1      -6.207   5.434 -32.972  1.00  0.00     0.043 A 
HETATM    2  C   UNL     1      -6.759   4.149 -33.188  1.00  0.00     0.052 A 
HETATM    3  C   UNL     1      -5.823   3.139 -33.491  1.00  0.00     0.032 A 
HETATM    4  C   UNL     1      -4.435   3.367 -33.525  1.00  0.00     0.019 A 
HETATM    5  C   UNL     1      -3.924   4.634 -33.263  1.00  0.00     0.033 A 
HETATM    6  C   UNL     1      -4.817   5.669 -33.016  1.00  0.00     0.043 A 
ENDROOT
BRANCH   1   7
HETATM    7  N   UNL     1      -7.000   6.585 -32.706  1.00  0.00    -0.213 NA
HETATM    8  C   UNL     1      -6.970   7.019 -31.386  1.00  0.00     0.281 C 
HETATM    9  N   UNL     1      -7.147   8.392 -31.274  1.00  0.00    -0.215 NA
HETATM   10  O   UNL     1      -6.709   6.261 -30.453  1.00  0.00    -0.260 OA
HETATM   11  H   UNL     1      -6.871   8.862 -32.126  1.00  0.00     0.138 HD
HETATM   12  H   UNL     1      -7.942   6.524 -33.072  1.00  0.00     0.138 HD
BRANCH   9  13
HETATM   13  C   UNL     1      -6.671   8.973 -30.069  1.00  0.00     0.016 C 
HETATM   14  C   UNL     1      -5.327   9.341 -29.993  1.00  0.00     0.026 C 
HETATM   15  C   UNL     1      -4.724   9.455 -28.740  1.00  0.00     0.038 C 
HETATM   16  C   UNL     1      -5.480   9.223 -27.591  1.00  0.00     0.068 C 
HETATM   17  C   UNL     1      -6.862   9.061 -27.662  1.00  0.00     0.038 C 
HETATM   18  C   UNL     1      -7.460   8.935 -28.911  1.00  0.00     0.026 C 
BRANCH  16  19
HETATM   19  O   UNL     1      -4.814   9.043 -26.406  1.00  0.00    -0.352 OA
BRANCH  19  20
HETATM   20  C   UNL     1      -4.469   7.651 -26.268  1.00  0.00     0.171 C 
HETATM   21  C   UNL     1      -2.967   7.525 -26.117  1.00  0.00     0.034 C 
ENDBRANCH  19  20
ENDBRANCH  16  19
ENDBRANCH   9  13
ENDBRANCH   1   7
BRANCH   2  22
HETATM   22  N   UNL     1      -8.127   3.873 -33.077  1.00  0.00    -0.378 N 
HETATM   23  C   UNL     1      -8.890   3.355 -34.228  1.00  0.00     0.133 C 
HETATM   24  C   UNL     1      -9.406   1.911 -34.020  1.00  0.00     0.054 C 
HETATM   25  C   UNL     1     -10.224   1.852 -32.734  1.00  0.00     0.020 C 
HETATM   26  C   UNL     1      -8.297   0.873 -33.976  1.00  0.00     0.020 A 
HETATM   27  C   UNL     1      -9.280   2.189 -31.593  1.00  0.00     0.023 C 
HETATM   28  C   UNL     1      -8.169   1.138 -31.494  1.00  0.00     0.138 C 
HETATM   29  C   UNL     1      -8.708   3.604 -31.748  1.00  0.00     0.129 C 
HETATM   30  N   UNL     1      -7.701   0.559 -32.751  1.00  0.00    -0.317 N 
HETATM   31  C   UNL     1      -6.681  -0.393 -32.634  1.00  0.00     0.247 A 
HETATM   32  O   UNL     1      -6.155  -0.732 -31.577  1.00  0.00    -0.268 OA
HETATM   33  C   UNL     1      -6.243  -1.045 -33.892  1.00  0.00     0.074 A 
HETATM   34  C   UNL     1      -6.841  -0.741 -35.049  1.00  0.00     0.007 A 
HETATM   35  C   UNL     1      -7.899   0.234 -35.092  1.00  0.00     0.026 A 
ENDBRANCH   2  22
BRANCH   5  36
HETATM   36  C   UNL     1      -2.452   4.866 -33.289  1.00  0.00     0.251 C 
HETATM   37  N   UNL     1      -1.841   5.029 -32.065  1.00  0.00    -0.353 N 
HETATM   38  H   UNL     1      -2.326   4.737 -31.227  1.00  0.00     0.163 HD
HETATM   39  O   UNL     1      -1.851   4.897 -34.358  1.00  0.00    -0.268 OA
BRANCH  37  40
HETATM   40  C   UNL     1      -0.416   5.242 -31.948  1.00  0.00     0.161 C 
BRANCH  40  41
HETATM   41  C   UNL     1      -0.078   5.890 -30.629  1.00  0.00    -0.041 A 
HETATM   42  C   UNL     1      -0.334   7.250 -30.404  1.00  0.00     0.009 A 
HETATM   43  C   UNL     1      -0.029   7.834 -29.172  1.00  0.00     0.001 A 
HETATM   44  C   UNL     1       0.537   7.068 -28.155  1.00  0.00     0.000 A 
HETATM   45  C   UNL     1       0.798   5.716 -28.366  1.00  0.00     0.001 A 
HETATM   46  C   UNL     1       0.492   5.130 -29.595  1.00  0.00     0.009 A 
ENDBRANCH  40  41
ENDBRANCH  37  40
ENDBRANCH   5  36
TORSDOF 8
ENDMDL
MODEL 6
REMARK VINA RESULT:      -9.2      2.697      7.636
REMARK  8 active torsions:
REMARK  status: ('A' for Active; 'I' for Inactive)
REMARK    1  A    between atoms: C_2  and  O_3 
REMARK    2  A    between atoms: O_3  and  C_4 
REMARK    3  A    between atoms: C_7  and  N_8 
REMARK       I    between atoms: N_8  and  C_9 
REMARK       I    between atoms: C_9  and  N_10 
REMARK    4  A    between atoms: N_10  and  C_11 
REMARK    5  A    between atoms: C_12  and  N_13 
REMARK    6  A    between atoms: C_29  and  C_30 
REMARK       I    between atoms: C_30  and  N_31 
REMARK    7  A    between atoms: N_31  and  C_32 
REMARK    8  A    between atoms: C_32  and  C_33 
ROOT
HETATM    1  C   UNL     1      -7.453   4.776 -32.821  1.00  0.00     0.043 A 
HETATM    2  C   UNL     1      -7.652   3.464 -33.310  1.00  0.00     0.052 A 
HETATM    3  C   UNL     1      -6.607   2.959 -34.111  1.00  0.00     0.032 A 
HETATM    4  C   UNL     1      -5.424   3.677 -34.367  1.00  0.00     0.019 A 
HETATM    5  C   UNL     1      -5.243   4.947 -33.832  1.00  0.00     0.033 A 
HETATM    6  C   UNL     1      -6.273   5.503 -33.084  1.00  0.00     0.043 A 
ENDROOT
BRANCH   1   7
HETATM    7  N   UNL     1      -8.420   5.469 -32.039  1.00  0.00    -0.213 NA
HETATM    8  C   UNL     1      -9.660   5.619 -32.650  1.00  0.00     0.281 C 
HETATM    9  N   UNL     1     -10.703   5.658 -31.733  1.00  0.00    -0.215 NA
HETATM   10  O   UNL     1      -9.793   5.612 -33.873  1.00  0.00    -0.260 OA
HETATM   11  H   UNL     1     -10.446   5.187 -30.875  1.00  0.00     0.138 HD
HETATM   12  H   UNL     1      -8.077   6.333 -31.640  1.00  0.00     0.138 HD
BRANCH   9  13
HETATM   13  C   UNL     1     -11.984   5.336 -32.252  1.00  0.00     0.016 C 
HETATM   14  C   UNL     1     -12.906   6.369 -32.436  1.00  0.00     0.026 C 
HETATM   15  C   UNL     1     -14.267   6.064 -32.477  1.00  0.00     0.038 C 
HETATM   16  C   UNL     1     -14.677   4.737 -32.356  1.00  0.00     0.068 C 
HETATM   17  C   UNL     1     -13.752   3.695 -32.380  1.00  0.00     0.038 C 
HETATM   18  C   UNL     1     -12.397   3.999 -32.328  1.00  0.00     0.026 C 
BRANCH  16  19
HETATM   19  O   UNL     1     -16.001   4.492 -32.096  1.00  0.00    -0.352 OA
BRANCH  19  20
HETATM   20  C   UNL     1     -16.221   3.068 -32.080  1.00  0.00     0.171 C 
HETATM   21  C   UNL     1     -17.706   2.798 -31.940  1.00  0.00     0.034 C 
ENDBRANCH  19  20
ENDBRANCH  16  19
ENDBRANCH   9  13
ENDBRANCH   1   7
BRANCH   2  22
HETATM   22  N   UNL     1      -8.779   2.693 -33.002  1.00  0.00    -0.378 N 
HETATM   23  C   UNL     1      -9.401   1.823 -34.018  1.00  0.00     0.133 C 
HETATM   24  C   UNL     1      -9.280   0.315 -33.690  1.00  0.00     0.054 C 
HETATM   25  C   UNL     1      -9.859   0.058 -32.302  1.00  0.00     0.020 C 
HETATM   26  C   UNL     1      -7.854  -0.207 -33.760  1.00  0.00     0.020 A 
HETATM   27  C   UNL     1      -9.001   0.830 -31.314  1.00  0.00     0.023 C 
HETATM   28  C   UNL     1      -7.563   0.302 -31.331  1.00  0.00     0.138 C 
HETATM   29  C   UNL     1      -9.055   2.337 -31.597  1.00  0.00     0.129 C 
HETATM   30  N   UNL     1      -7.050  -0.159 -32.619  1.00  0.00    -0.317 N 
HETATM   31  C   UNL     1      -5.731  -0.631 -32.609  1.00  0.00     0.247 A 
HETATM   32  O   UNL     1      -4.999  -0.647 -31.622  1.00  0.00    -0.268 OA
HETATM   33  C   UNL     1      -5.217  -1.171 -33.891  1.00  0.00     0.074 A 
HETATM   34  C   UNL     1      -6.011  -1.222 -34.965  1.00  0.00     0.007 A 
HETATM   35  C   UNL     1      -7.366  -0.738 -34.897  1.00  0.00     0.026 A 
ENDBRANCH   2  22
BRANCH   5  36
HETATM   36  C   UNL     1      -3.983   5.698 -34.098  1.00  0.00     0.251 C 
HETATM   37  N   UNL     1      -3.446   6.381 -33.029  1.00  0.00    -0.353 N 
HETATM   38  H   UNL     1      -3.750   6.151 -32.092  1.00  0.00     0.163 HD
HETATM   39  O   UNL     1      -3.478   5.679 -35.216  1.00  0.00    -0.268 OA
BRANCH  37  40
HETATM   40  C   UNL     1      -2.217   7.132 -33.146  1.00  0.00     0.161 C 
BRANCH  40  41
HETATM   41  C   UNL     1      -1.284   6.812 -32.004  1.00  0.00    -0.041 A 
HETATM   42  C   UNL     1      -0.502   5.650 -32.011  1.00  0.00     0.009 A 
HETATM   43  C   UNL     1       0.368   5.374 -30.954  1.00  0.00     0.001 A 
HETATM   44  C   UNL     1       0.463   6.253 -29.877  1.00  0.00     0.000 A 
HETATM   45  C   UNL     1      -0.311   7.412 -29.856  1.00  0.00     0.001 A 
HETATM   46  C   UNL     1      -1.179   7.691 -30.913  1.00  0.00     0.009 A 
ENDBRANCH  40  41
ENDBRANCH  37  40
ENDBRANCH   5  36
TORSDOF 8
ENDMDL
MODEL 7
REMARK VINA RESULT:      -9.1      1.536      1.864
REMARK  8 active torsions:
REMARK  status: ('A' for Active; 'I' for Inactive)
REMARK    1  A    between atoms: C_2  and  O_3 
REMARK    2  A    between atoms: O_3  and  C_4 
REMARK    3  A    between atoms: C_7  and  N_8 
REMARK       I    between atoms: N_8  and  C_9 
REMARK       I    between atoms: C_9  and  N_10 
REMARK    4  A    between atoms: N_10  and  C_11 
REMARK    5  A    between atoms: C_12  and  N_13 
REMARK    6  A    between atoms: C_29  and  C_30 
REMARK       I    between atoms: C_30  and  N_31 
REMARK    7  A    between atoms: N_31  and  C_32 
REMARK    8  A    between atoms: C_32  and  C_33 
ROOT
HETATM    1  C   UNL     1      -6.309   4.402 -30.455  1.00  0.00     0.043 A 
HETATM    2  C   UNL     1      -5.642   5.615 -30.166  1.00  0.00     0.052 A 
HETATM    3  C   UNL     1      -4.273   5.640 -30.503  1.00  0.00     0.032 A 
HETATM    4  C   UNL     1      -3.620   4.563 -31.130  1.00  0.00     0.019 A 
HETATM    5  C   UNL     1      -4.318   3.401 -31.440  1.00  0.00     0.033 A 
HETATM    6  C   UNL     1      -5.655   3.316 -31.074  1.00  0.00     0.043 A 
ENDROOT
BRANCH   1   7
HETATM    7  N   UNL     1      -7.678   4.174 -30.139  1.00  0.00    -0.213 NA
HETATM    8  C   UNL     1      -8.520   4.079 -31.241  1.00  0.00     0.281 C 
HETATM    9  N   UNL     1      -9.608   3.246 -31.008  1.00  0.00    -0.215 NA
HETATM   10  O   UNL     1      -8.249   4.603 -32.320  1.00  0.00    -0.260 OA
HETATM   11  H   UNL     1      -9.398   2.574 -30.281  1.00  0.00     0.138 HD
HETATM   12  H   UNL     1      -8.040   4.796 -29.427  1.00  0.00     0.138 HD
BRANCH   9  13
HETATM   13  C   UNL     1     -10.235   2.722 -32.168  1.00  0.00     0.016 C 
HETATM   14  C   UNL     1     -11.434   3.297 -32.593  1.00  0.00     0.026 C 
HETATM   15  C   UNL     1     -12.299   2.548 -33.394  1.00  0.00     0.038 C 
HETATM   16  C   UNL     1     -11.938   1.256 -33.771  1.00  0.00     0.068 C 
HETATM   17  C   UNL     1     -10.659   0.766 -33.520  1.00  0.00     0.038 C 
HETATM   18  C   UNL     1      -9.803   1.505 -32.713  1.00  0.00     0.026 C 
BRANCH  16  19
HETATM   19  O   UNL     1     -12.911   0.440 -34.291  1.00  0.00    -0.352 OA
BRANCH  19  20
HETATM   20  C   UNL     1     -14.095   0.545 -33.477  1.00  0.00     0.171 C 
HETATM   21  C   UNL     1     -15.301   0.722 -34.377  1.00  0.00     0.034 C 
ENDBRANCH  19  20
ENDBRANCH  16  19
ENDBRANCH   9  13
ENDBRANCH   1   7
BRANCH   2  22
HETATM   22  N   UNL     1      -6.284   6.733 -29.622  1.00  0.00    -0.378 N 
HETATM   23  C   UNL     1      -6.524   6.835 -28.170  1.00  0.00     0.133 C 
HETATM   24  C   UNL     1      -5.723   7.975 -27.495  1.00  0.00     0.054 C 
HETATM   25  C   UNL     1      -6.028   9.289 -28.207  1.00  0.00     0.020 C 
HETATM   26  C   UNL     1      -4.223   7.731 -27.478  1.00  0.00     0.020 A 
HETATM   27  C   UNL     1      -5.536   9.144 -29.636  1.00  0.00     0.023 C 
HETATM   28  C   UNL     1      -4.018   8.935 -29.658  1.00  0.00     0.138 C 
HETATM   29  C   UNL     1      -6.273   8.010 -30.361  1.00  0.00     0.129 C 
HETATM   30  N   UNL     1      -3.445   8.172 -28.552  1.00  0.00    -0.317 N 
HETATM   31  C   UNL     1      -2.058   7.990 -28.599  1.00  0.00     0.247 A 
HETATM   32  O   UNL     1      -1.327   8.394 -29.500  1.00  0.00    -0.268 OA
HETATM   33  C   UNL     1      -1.449   7.280 -27.447  1.00  0.00     0.074 A 
HETATM   34  C   UNL     1      -2.212   6.884 -26.424  1.00  0.00     0.007 A 
HETATM   35  C   UNL     1      -3.631   7.123 -26.433  1.00  0.00     0.026 A 
ENDBRANCH   2  22
BRANCH   5  36
HETATM   36  C   UNL     1      -3.623   2.269 -32.115  1.00  0.00     0.251 C 
HETATM   37  N   UNL     1      -4.188   1.023 -31.947  1.00  0.00    -0.353 N 
HETATM   38  H   UNL     1      -5.142   0.952 -31.621  1.00  0.00     0.163 HD
HETATM   39  O   UNL     1      -2.612   2.473 -32.779  1.00  0.00    -0.268 OA
BRANCH  37  40
HETATM   40  C   UNL     1      -3.625  -0.157 -32.564  1.00  0.00     0.161 C 
BRANCH  40  41
HETATM   41  C   UNL     1      -4.689  -0.937 -33.296  1.00  0.00    -0.041 A 
HETATM   42  C   UNL     1      -4.379  -2.123 -33.974  1.00  0.00     0.009 A 
HETATM   43  C   UNL     1      -5.377  -2.843 -34.635  1.00  0.00     0.001 A 
HETATM   44  C   UNL     1      -6.693  -2.385 -34.627  1.00  0.00     0.000 A 
HETATM   45  C   UNL     1      -7.014  -1.205 -33.958  1.00  0.00     0.001 A 
HETATM   46  C   UNL     1      -6.019  -0.486 -33.296  1.00  0.00     0.009 A 
ENDBRANCH  40  41
ENDBRANCH  37  40
ENDBRANCH   5  36
TORSDOF 8
ENDMDL
MODEL 8
REMARK VINA RESULT:      -9.0      2.763      8.268
REMARK  8 active torsions:
REMARK  status: ('A' for Active; 'I' for Inactive)
REMARK    1  A    between atoms: C_2  and  O_3 
REMARK    2  A    between atoms: O_3  and  C_4 
REMARK    3  A    between atoms: C_7  and  N_8 
REMARK       I    between atoms: N_8  and  C_9 
REMARK       I    between atoms: C_9  and  N_10 
REMARK    4  A    between atoms: N_10  and  C_11 
REMARK    5  A    between atoms: C_12  and  N_13 
REMARK    6  A    between atoms: C_29  and  C_30 
REMARK       I    between atoms: C_30  and  N_31 
REMARK    7  A    between atoms: N_31  and  C_32 
REMARK    8  A    between atoms: C_32  and  C_33 
ROOT
HETATM    1  C   UNL     1      -8.697   3.185 -31.197  1.00  0.00     0.043 A 
HETATM    2  C   UNL     1      -9.817   3.995 -31.495  1.00  0.00     0.052 A 
HETATM    3  C   UNL     1      -9.606   5.383 -31.355  1.00  0.00     0.032 A 
HETATM    4  C   UNL     1      -8.362   5.935 -31.001  1.00  0.00     0.019 A 
HETATM    5  C   UNL     1      -7.269   5.110 -30.759  1.00  0.00     0.033 A 
HETATM    6  C   UNL     1      -7.451   3.735 -30.830  1.00  0.00     0.043 A 
ENDROOT
BRANCH   1   7
HETATM    7  N   UNL     1      -8.736   1.762 -31.231  1.00  0.00    -0.213 NA
HETATM    8  C   UNL     1      -8.146   1.193 -32.353  1.00  0.00     0.281 C 
HETATM    9  N   UNL     1      -7.606  -0.060 -32.092  1.00  0.00    -0.215 NA
HETATM   10  O   UNL     1      -8.040   1.800 -33.418  1.00  0.00    -0.260 OA
HETATM   11  H   UNL     1      -7.381  -0.157 -31.110  1.00  0.00     0.138 HD
HETATM   12  H   UNL     1      -9.650   1.376 -31.035  1.00  0.00     0.138 HD
BRANCH   9  13
HETATM   13  C   UNL     1      -6.605  -0.495 -32.999  1.00  0.00     0.016 C 
HETATM   14  C   UNL     1      -6.977  -1.344 -34.044  1.00  0.00     0.026 C 
HETATM   15  C   UNL     1      -6.008  -2.151 -34.641  1.00  0.00     0.038 C 
HETATM   16  C   UNL     1      -4.687  -2.077 -34.199  1.00  0.00     0.068 C 
HETATM   17  C   UNL     1      -4.283  -1.087 -33.306  1.00  0.00     0.038 C 
HETATM   18  C   UNL     1      -5.251  -0.292 -32.703  1.00  0.00     0.026 C 
BRANCH  16  19
HETATM   19  O   UNL     1      -3.824  -3.073 -34.578  1.00  0.00    -0.352 OA
BRANCH  19  20
HETATM   20  C   UNL     1      -3.816  -4.098 -33.564  1.00  0.00     0.171 C 
HETATM   21  C   UNL     1      -4.520  -5.329 -34.098  1.00  0.00     0.034 C 
ENDBRANCH  19  20
ENDBRANCH  16  19
ENDBRANCH   9  13
ENDBRANCH   1   7
BRANCH   2  22
HETATM   22  N   UNL     1     -11.043   3.479 -31.932  1.00  0.00    -0.378 N 
HETATM   23  C   UNL     1     -12.307   4.178 -31.635  1.00  0.00     0.133 C 
HETATM   24  C   UNL     1     -13.010   4.734 -32.897  1.00  0.00     0.054 C 
HETATM   25  C   UNL     1     -13.219   3.599 -33.894  1.00  0.00     0.020 C 
HETATM   26  C   UNL     1     -12.253   5.873 -33.559  1.00  0.00     0.020 A 
HETATM   27  C   UNL     1     -11.840   3.105 -34.297  1.00  0.00     0.023 C 
HETATM   28  C   UNL     1     -11.062   4.219 -35.005  1.00  0.00     0.138 C 
HETATM   29  C   UNL     1     -11.074   2.560 -33.085  1.00  0.00     0.129 C 
HETATM   30  N   UNL     1     -11.298   5.582 -34.537  1.00  0.00    -0.317 N 
HETATM   31  C   UNL     1     -10.569   6.581 -35.195  1.00  0.00     0.247 A 
HETATM   32  O   UNL     1      -9.749   6.378 -36.088  1.00  0.00    -0.268 OA
HETATM   33  C   UNL     1     -10.849   7.978 -34.784  1.00  0.00     0.074 A 
HETATM   34  C   UNL     1     -11.779   8.231 -33.859  1.00  0.00     0.007 A 
HETATM   35  C   UNL     1     -12.506   7.155 -33.237  1.00  0.00     0.026 A 
ENDBRANCH   2  22
BRANCH   5  36
HETATM   36  C   UNL     1      -5.951   5.703 -30.395  1.00  0.00     0.251 C 
HETATM   37  N   UNL     1      -4.863   5.250 -31.108  1.00  0.00    -0.353 N 
HETATM   38  H   UNL     1      -5.013   4.763 -31.982  1.00  0.00     0.163 HD
HETATM   39  O   UNL     1      -5.878   6.549 -29.509  1.00  0.00    -0.268 OA
BRANCH  37  40
HETATM   40  C   UNL     1      -3.531   5.757 -30.869  1.00  0.00     0.161 C 
BRANCH  40  41
HETATM   41  C   UNL     1      -2.731   5.785 -32.148  1.00  0.00    -0.041 A 
HETATM   42  C   UNL     1      -2.765   4.709 -33.046  1.00  0.00     0.009 A 
HETATM   43  C   UNL     1      -2.030   4.755 -34.233  1.00  0.00     0.001 A 
HETATM   44  C   UNL     1      -1.253   5.872 -34.534  1.00  0.00     0.000 A 
HETATM   45  C   UNL     1      -1.210   6.947 -33.648  1.00  0.00     0.001 A 
HETATM   46  C   UNL     1      -1.945   6.904 -32.463  1.00  0.00     0.009 A 
ENDBRANCH  40  41
ENDBRANCH  37  40
ENDBRANCH   5  36
TORSDOF 8
ENDMDL
MODEL 9
REMARK VINA RESULT:      -8.8      2.947      7.611
REMARK  8 active torsions:
REMARK  status: ('A' for Active; 'I' for Inactive)
REMARK    1  A    between atoms: C_2  and  O_3 
REMARK    2  A    between atoms: O_3  and  C_4 
REMARK    3  A    between atoms: C_7  and  N_8 
REMARK       I    between atoms: N_8  and  C_9 
REMARK       I    between atoms: C_9  and  N_10 
REMARK    4  A    between atoms: N_10  and  C_11 
REMARK    5  A    between atoms: C_12  and  N_13 
REMARK    6  A    between atoms: C_29  and  C_30 
REMARK       I    between atoms: C_30  and  N_31 
REMARK    7  A    between atoms: N_31  and  C_32 
REMARK    8  A    between atoms: C_32  and  C_33 
ROOT
HETATM    1  C   UNL     1      -6.128   3.956 -31.354  1.00  0.00     0.043 A 
HETATM    2  C   UNL     1      -6.788   5.188 -31.575  1.00  0.00     0.052 A 
HETATM    3  C   UNL     1      -5.946   6.319 -31.613  1.00  0.00     0.032 A 
HETATM    4  C   UNL     1      -4.547   6.236 -31.494  1.00  0.00     0.019 A 
HETATM    5  C   UNL     1      -3.928   5.003 -31.322  1.00  0.00     0.033 A 
HETATM    6  C   UNL     1      -4.726   3.871 -31.223  1.00  0.00     0.043 A 
ENDROOT
BRANCH   1   7
HETATM    7  N   UNL     1      -6.817   2.717 -31.234  1.00  0.00    -0.213 NA
HETATM    8  C   UNL     1      -6.806   1.934 -32.382  1.00  0.00     0.281 C 
HETATM    9  N   UNL     1      -6.855   0.574 -32.098  1.00  0.00    -0.215 NA
HETATM   10  O   UNL     1      -6.665   2.417 -33.504  1.00  0.00    -0.260 OA
HETATM   11  H   UNL     1      -6.494   0.387 -31.172  1.00  0.00     0.138 HD
HETATM   12  H   UNL     1      -7.742   2.803 -30.832  1.00  0.00     0.138 HD
BRANCH   9  13
HETATM   13  C   UNL     1      -6.381  -0.281 -33.128  1.00  0.00     0.016 C 
HETATM   14  C   UNL     1      -7.310  -1.048 -33.834  1.00  0.00     0.026 C 
HETATM   15  C   UNL     1      -6.879  -2.205 -34.485  1.00  0.00     0.038 C 
HETATM   16  C   UNL     1      -5.530  -2.558 -34.437  1.00  0.00     0.068 C 
HETATM   17  C   UNL     1      -4.579  -1.687 -33.910  1.00  0.00     0.038 C 
HETATM   18  C   UNL     1      -5.010  -0.541 -33.251  1.00  0.00     0.026 C 
BRANCH  16  19
HETATM   19  O   UNL     1      -5.183  -3.830 -34.813  1.00  0.00    -0.352 OA
BRANCH  19  20
HETATM   20  C   UNL     1      -3.847  -4.109 -34.349  1.00  0.00     0.171 C 
HETATM   21  C   UNL     1      -3.910  -5.175 -33.274  1.00  0.00     0.034 C 
ENDBRANCH  19  20
ENDBRANCH  16  19
ENDBRANCH   9  13
ENDBRANCH   1   7
BRANCH   2  22
HETATM   22  N   UNL     1      -8.168   5.292 -31.782  1.00  0.00    -0.378 N 
HETATM   23  C   UNL     1      -9.118   5.071 -30.675  1.00  0.00     0.133 C 
HETATM   24  C   UNL     1      -9.898   6.347 -30.274  1.00  0.00     0.054 C 
HETATM   25  C   UNL     1     -10.596   6.914 -31.506  1.00  0.00     0.020 C 
HETATM   26  C   UNL     1      -9.024   7.415 -29.637  1.00  0.00     0.020 A 
HETATM   27  C   UNL     1      -9.508   7.311 -32.488  1.00  0.00     0.023 C 
HETATM   28  C   UNL     1      -8.630   8.417 -31.892  1.00  0.00     0.138 C 
HETATM   29  C   UNL     1      -8.675   6.094 -32.912  1.00  0.00     0.129 C 
HETATM   30  N   UNL     1      -8.401   8.365 -30.450  1.00  0.00    -0.317 N 
HETATM   31  C   UNL     1      -7.591   9.383 -29.931  1.00  0.00     0.247 A 
HETATM   32  O   UNL     1      -7.056  10.263 -30.599  1.00  0.00    -0.268 OA
HETATM   33  C   UNL     1      -7.406   9.389 -28.459  1.00  0.00     0.074 A 
HETATM   34  C   UNL     1      -8.027   8.480 -27.701  1.00  0.00     0.007 A 
HETATM   35  C   UNL     1      -8.864   7.474 -28.302  1.00  0.00     0.026 A 
ENDBRANCH   2  22
BRANCH   5  36
HETATM   36  C   UNL     1      -2.444   4.921 -31.209  1.00  0.00     0.251 C 
HETATM   37  N   UNL     1      -1.849   5.822 -30.352  1.00  0.00    -0.353 N 
HETATM   38  H   UNL     1      -2.417   6.300 -29.666  1.00  0.00     0.163 HD
HETATM   39  O   UNL     1      -1.821   4.082 -31.852  1.00  0.00    -0.268 OA
BRANCH  37  40
HETATM   40  C   UNL     1      -0.421   5.836 -30.136  1.00  0.00     0.161 C 
BRANCH  40  41
HETATM   41  C   UNL     1      -0.058   6.787 -29.022  1.00  0.00    -0.041 A 
HETATM   42  C   UNL     1       0.846   6.416 -28.018  1.00  0.00     0.009 A 
HETATM   43  C   UNL     1       1.183   7.312 -27.001  1.00  0.00     0.001 A 
HETATM   44  C   UNL     1       0.619   8.586 -26.974  1.00  0.00     0.000 A 
HETATM   45  C   UNL     1      -0.283   8.967 -27.965  1.00  0.00     0.001 A 
HETATM   46  C   UNL     1      -0.620   8.074 -28.984  1.00  0.00     0.009 A 
ENDBRANCH  40  41
ENDBRANCH  37  40
ENDBRANCH   5  36
TORSDOF 8
ENDMDL
MODEL 10
REMARK VINA RESULT:      -8.8      2.907      8.201
REMARK  8 active torsions:
REMARK  status: ('A' for Active; 'I' for Inactive)
REMARK    1  A    between atoms: C_2  and  O_3 
REMARK    2  A    between atoms: O_3  and  C_4 
REMARK    3  A    between atoms: C_7  and  N_8 
REMARK       I    between atoms: N_8  and  C_9 
REMARK       I    between atoms: C_9  and  N_10 
REMARK    4  A    between atoms: N_10  and  C_11 
REMARK    5  A    between atoms: C_12  and  N_13 
REMARK    6  A    between atoms: C_29  and  C_30 
REMARK       I    between atoms: C_30  and  N_31 
REMARK    7  A    between atoms: N_31  and  C_32 
REMARK    8  A    between atoms: C_32  and  C_33 
ROOT
HETATM    1  C   UNL     1      -7.360   3.736 -31.971  1.00  0.00     0.043 A 
HETATM    2  C   UNL     1      -8.438   4.649 -31.897  1.00  0.00     0.052 A 
HETATM    3  C   UNL     1      -8.141   5.960 -32.324  1.00  0.00     0.032 A 
HETATM    4  C   UNL     1      -6.886   6.332 -32.840  1.00  0.00     0.019 A 
HETATM    5  C   UNL     1      -5.863   5.396 -32.941  1.00  0.00     0.033 A 
HETATM    6  C   UNL     1      -6.097   4.108 -32.478  1.00  0.00     0.043 A 
ENDROOT
BRANCH   1   7
HETATM    7  N   UNL     1      -7.456   2.385 -31.536  1.00  0.00    -0.213 NA
HETATM    8  C   UNL     1      -7.436   1.443 -32.558  1.00  0.00     0.281 C 
HETATM    9  N   UNL     1      -6.876   0.236 -32.158  1.00  0.00    -0.215 NA
HETATM   10  O   UNL     1      -7.787   1.713 -33.706  1.00  0.00    -0.260 OA
HETATM   11  H   UNL     1      -6.247   0.372 -31.378  1.00  0.00     0.138 HD
HETATM   12  H   UNL     1      -8.204   2.223 -30.874  1.00  0.00     0.138 HD
BRANCH   9  13
HETATM   13  C   UNL     1      -6.389  -0.588 -33.206  1.00  0.00     0.016 C 
HETATM   14  C   UNL     1      -7.281  -1.454 -33.841  1.00  0.00     0.026 C 
HETATM   15  C   UNL     1      -6.781  -2.576 -34.505  1.00  0.00     0.038 C 
HETATM   16  C   UNL     1      -5.405  -2.795 -34.540  1.00  0.00     0.068 C 
HETATM   17  C   UNL     1      -4.512  -1.827 -34.087  1.00  0.00     0.038 C 
HETATM   18  C   UNL     1      -5.009  -0.717 -33.415  1.00  0.00     0.026 C 
BRANCH  16  19
HETATM   19  O   UNL     1      -4.959  -4.034 -34.924  1.00  0.00    -0.352 OA
BRANCH  19  20
HETATM   20  C   UNL     1      -3.678  -4.283 -34.312  1.00  0.00     0.171 C 
HETATM   21  C   UNL     1      -3.864  -5.221 -33.137  1.00  0.00     0.034 C 
ENDBRANCH  19  20
ENDBRANCH  16  19
ENDBRANCH   9  13
ENDBRANCH   1   7
BRANCH   2  22
HETATM   22  N   UNL     1      -9.720   4.289 -31.469  1.00  0.00    -0.378 N 
HETATM   23  C   UNL     1     -10.456   5.122 -30.499  1.00  0.00     0.133 C 
HETATM   24  C   UNL     1     -11.720   5.785 -31.096  1.00  0.00     0.054 C 
HETATM   25  C   UNL     1     -12.614   4.706 -31.698  1.00  0.00     0.020 C 
HETATM   26  C   UNL     1     -11.411   6.844 -32.141  1.00  0.00     0.020 A 
HETATM   27  C   UNL     1     -11.832   4.066 -32.833  1.00  0.00     0.023 C 
HETATM   28  C   UNL     1     -11.537   5.099 -33.925  1.00  0.00     0.138 C 
HETATM   29  C   UNL     1     -10.547   3.407 -32.314  1.00  0.00     0.129 C 
HETATM   30  N   UNL     1     -11.291   6.469 -33.482  1.00  0.00    -0.317 N 
HETATM   31  C   UNL     1     -11.017   7.392 -34.499  1.00  0.00     0.247 A 
HETATM   32  O   UNL     1     -10.943   7.118 -35.694  1.00  0.00    -0.268 OA
HETATM   33  C   UNL     1     -10.837   8.802 -34.075  1.00  0.00     0.074 A 
HETATM   34  C   UNL     1     -10.974   9.139 -32.789  1.00  0.00     0.007 A 
HETATM   35  C   UNL     1     -11.277   8.139 -31.799  1.00  0.00     0.026 A 
ENDBRANCH   2  22
BRANCH   5  36
HETATM   36  C   UNL     1      -4.539   5.793 -33.499  1.00  0.00     0.251 C 
HETATM   37  N   UNL     1      -3.693   6.461 -32.640  1.00  0.00    -0.353 N 
HETATM   38  H   UNL     1      -3.870   6.426 -31.645  1.00  0.00     0.163 HD
HETATM   39  O   UNL     1      -4.251   5.519 -34.660  1.00  0.00    -0.268 OA
BRANCH  37  40
HETATM   40  C   UNL     1      -2.373   6.884 -33.049  1.00  0.00     0.161 C 
BRANCH  40  41
HETATM   41  C   UNL     1      -1.367   6.628 -31.954  1.00  0.00    -0.041 A 
HETATM   42  C   UNL     1      -0.562   5.481 -31.965  1.00  0.00     0.009 A 
HETATM   43  C   UNL     1       0.375   5.263 -30.952  1.00  0.00     0.001 A 
HETATM   44  C   UNL     1       0.517   6.187 -29.918  1.00  0.00     0.000 A 
HETATM   45  C   UNL     1      -0.279   7.331 -29.895  1.00  0.00     0.001 A 
HETATM   46  C   UNL     1      -1.215   7.551 -30.907  1.00  0.00     0.009 A 
ENDBRANCH  40  41
ENDBRANCH  37  40
ENDBRANCH   5  36
TORSDOF 8
ENDMDL
