MODEL 1
REMARK VINA RESULT:      -9.4      0.000      0.000
REMARK  4 active torsions:
REMARK  status: ('A' for Active; 'I' for Inactive)
REMARK    1  A    between atoms: N_8  and  C_10 
REMARK    2  A    between atoms: C_10  and  C_11 
REMARK    3  A    between atoms: C_14  and  C_15 
REMARK    4  A    between atoms: C_22  and  C_23 
ROOT
HETATM    1  C   UNL     1      -3.738   2.853 -31.748  1.00  0.00     0.269 C 
HETATM    2  N   UNL     1      -4.622   1.864 -32.485  1.00  0.00    -0.073 N 
HETATM    3  H   UNL     1      -4.579   2.157 -33.470  1.00  0.00     0.279 HD
HETATM    4  C   UNL     1      -6.045   1.930 -31.989  1.00  0.00     0.244 C 
HETATM    5  C   UNL     1      -6.982   0.973 -32.781  1.00  0.00    -0.013 C 
HETATM    6  C   UNL     1      -8.362   0.956 -32.063  1.00  0.00     0.039 C 
HETATM    7  C   UNL     1      -9.449   0.193 -32.820  1.00  0.00     0.236 C 
HETATM    8  N   UNL     1      -9.588   0.726 -34.221  1.00  0.00    -0.064 N 
HETATM    9  H   UNL     1     -10.222   0.054 -34.693  1.00  0.00     0.280 HD
HETATM   10  C   UNL     1      -8.308   0.731 -34.995  1.00  0.00     0.236 C 
HETATM   11  C   UNL     1      -7.213   1.485 -34.230  1.00  0.00     0.039 C 
HETATM   12  C   UNL     1      -6.369  -0.454 -32.756  1.00  0.00     0.022 C 
HETATM   13  C   UNL     1      -4.896  -0.503 -33.209  1.00  0.00     0.045 C 
HETATM   14  C   UNL     1      -4.033   0.467 -32.393  1.00  0.00     0.243 C 
ENDROOT
BRANCH  13  15
HETATM   15  C   UNL     1      -4.347  -1.915 -33.149  1.00  0.00    -0.052 A 
HETATM   16  C   UNL     1      -4.665  -2.827 -34.168  1.00  0.00     0.007 A 
HETATM   17  C   UNL     1      -4.170  -4.131 -34.136  1.00  0.00     0.001 A 
HETATM   18  C   UNL     1      -3.353  -4.543 -33.088  1.00  0.00     0.000 A 
HETATM   19  C   UNL     1      -3.027  -3.651 -32.071  1.00  0.00     0.001 A 
HETATM   20  C   UNL     1      -3.519  -2.345 -32.099  1.00  0.00     0.007 A 
ENDBRANCH  13  15
BRANCH   8  21
HETATM   21  C   UNL     1     -10.407   2.023 -34.330  1.00  0.00     0.317 C 
BRANCH  21  22
HETATM   22  C   UNL     1     -11.873   1.787 -34.215  1.00  0.00     0.181 A 
HETATM   23  N   UNL     1     -12.645   1.480 -35.257  1.00  0.00    -0.109 NA
HETATM   24  O   UNL     1     -13.922   1.422 -34.690  1.00  0.00    -0.196 OA
HETATM   25  C   UNL     1     -13.784   1.739 -33.364  1.00  0.00     0.177 A 
HETATM   26  N   UNL     1     -12.532   2.005 -33.032  1.00  0.00    -0.207 NA
BRANCH  25  27
HETATM   27  C   UNL     1     -14.961   1.790 -32.403  1.00  0.00     0.065 A 
HETATM   28  C   UNL     1     -15.584   3.135 -32.087  1.00  0.00     0.013 A 
HETATM   29  C   UNL     1     -16.327   2.166 -32.941  1.00  0.00     0.013 A 
ENDBRANCH  25  27
ENDBRANCH  21  22
ENDBRANCH   8  21
TORSDOF 4
ENDMDL
MODEL 2
REMARK VINA RESULT:      -9.3      4.719      9.264
REMARK  4 active torsions:
REMARK  status: ('A' for Active; 'I' for Inactive)
REMARK    1  A    between atoms: N_8  and  C_10 
REMARK    2  A    between atoms: C_10  and  C_11 
REMARK    3  A    between atoms: C_14  and  C_15 
REMARK    4  A    between atoms: C_22  and  C_23 
ROOT
HETATM    1  C   UNL     1      -9.058   2.284 -31.027  1.00  0.00     0.269 C 
HETATM    2  N   UNL     1      -7.612   1.983 -31.372  1.00  0.00    -0.073 N 
HETATM    3  H   UNL     1      -7.160   1.800 -30.467  1.00  0.00     0.279 HD
HETATM    4  C   UNL     1      -6.955   3.160 -32.048  1.00  0.00     0.244 C 
HETATM    5  C   UNL     1      -5.451   2.897 -32.346  1.00  0.00    -0.013 C 
HETATM    6  C   UNL     1      -4.926   4.069 -33.222  1.00  0.00     0.039 C 
HETATM    7  C   UNL     1      -3.415   4.045 -33.457  1.00  0.00     0.236 C 
HETATM    8  N   UNL     1      -2.680   3.995 -32.146  1.00  0.00    -0.064 N 
HETATM    9  H   UNL     1      -1.691   3.822 -32.408  1.00  0.00     0.280 HD
HETATM   10  C   UNL     1      -3.097   2.862 -31.262  1.00  0.00     0.236 C 
HETATM   11  C   UNL     1      -4.614   2.878 -31.036  1.00  0.00     0.039 C 
HETATM   12  C   UNL     1      -5.329   1.565 -33.137  1.00  0.00     0.022 C 
HETATM   13  C   UNL     1      -6.053   0.379 -32.468  1.00  0.00     0.045 C 
HETATM   14  C   UNL     1      -7.525   0.710 -32.197  1.00  0.00     0.243 C 
ENDROOT
BRANCH  13  15
HETATM   15  C   UNL     1      -5.913  -0.887 -33.290  1.00  0.00    -0.052 A 
HETATM   16  C   UNL     1      -4.643  -1.455 -33.479  1.00  0.00     0.007 A 
HETATM   17  C   UNL     1      -4.489  -2.621 -34.230  1.00  0.00     0.001 A 
HETATM   18  C   UNL     1      -5.599  -3.235 -34.802  1.00  0.00     0.000 A 
HETATM   19  C   UNL     1      -6.865  -2.686 -34.623  1.00  0.00     0.001 A 
HETATM   20  C   UNL     1      -7.024  -1.520 -33.872  1.00  0.00     0.007 A 
ENDBRANCH  13  15
BRANCH   8  21
HETATM   21  C   UNL     1      -2.557   5.352 -31.432  1.00  0.00     0.317 C 
BRANCH  21  22
HETATM   22  C   UNL     1      -1.261   5.508 -30.717  1.00  0.00     0.181 A 
HETATM   23  N   UNL     1      -0.163   4.825 -31.041  1.00  0.00    -0.109 NA
HETATM   24  O   UNL     1       0.759   5.243 -30.075  1.00  0.00    -0.196 OA
HETATM   25  C   UNL     1       0.099   6.114 -29.246  1.00  0.00     0.177 A 
HETATM   26  N   UNL     1      -1.166   6.282 -29.589  1.00  0.00    -0.207 NA
BRANCH  25  27
HETATM   27  C   UNL     1       0.769   6.784 -28.057  1.00  0.00     0.065 A 
HETATM   28  C   UNL     1       1.215   8.227 -28.192  1.00  0.00     0.013 A 
HETATM   29  C   UNL     1       0.037   7.900 -27.340  1.00  0.00     0.013 A 
ENDBRANCH  25  27
ENDBRANCH  21  22
ENDBRANCH   8  21
TORSDOF 4
ENDMDL
MODEL 3
REMARK VINA RESULT:      -9.1      0.874      1.008
REMARK  4 active torsions:
REMARK  status: ('A' for Active; 'I' for Inactive)
REMARK    1  A    between atoms: N_8  and  C_10 
REMARK    2  A    between atoms: C_10  and  C_11 
REMARK    3  A    between atoms: C_14  and  C_15 
REMARK    4  A    between atoms: C_22  and  C_23 
ROOT
HETATM    1  C   UNL     1      -4.168   2.224 -31.869  1.00  0.00     0.269 C 
HETATM    2  N   UNL     1      -5.174   1.405 -32.655  1.00  0.00    -0.073 N 
HETATM    3  H   UNL     1      -5.192   1.838 -33.588  1.00  0.00     0.279 HD
HETATM    4  C   UNL     1      -6.544   1.474 -32.029  1.00  0.00     0.244 C 
HETATM    5  C   UNL     1      -7.606   0.698 -32.861  1.00  0.00    -0.013 C 
HETATM    6  C   UNL     1      -8.921   0.651 -32.031  1.00  0.00     0.039 C 
HETATM    7  C   UNL     1     -10.115   0.070 -32.788  1.00  0.00     0.236 C 
HETATM    8  N   UNL     1     -10.331   0.811 -34.079  1.00  0.00    -0.064 N 
HETATM    9  H   UNL     1     -11.045   0.252 -34.583  1.00  0.00     0.280 HD
HETATM   10  C   UNL     1      -9.121   0.860 -34.957  1.00  0.00     0.236 C 
HETATM   11  C   UNL     1      -7.918   1.431 -34.196  1.00  0.00     0.039 C 
HETATM   12  C   UNL     1      -7.090  -0.748 -33.095  1.00  0.00     0.022 C 
HETATM   13  C   UNL     1      -5.666  -0.811 -33.682  1.00  0.00     0.045 C 
HETATM   14  C   UNL     1      -4.675  -0.021 -32.818  1.00  0.00     0.243 C 
ENDROOT
BRANCH  13  15
HETATM   15  C   UNL     1      -5.210  -2.244 -33.874  1.00  0.00    -0.052 A 
HETATM   16  C   UNL     1      -5.993  -3.124 -34.638  1.00  0.00     0.007 A 
HETATM   17  C   UNL     1      -5.595  -4.447 -34.831  1.00  0.00     0.001 A 
HETATM   18  C   UNL     1      -4.410  -4.910 -34.264  1.00  0.00     0.000 A 
HETATM   19  C   UNL     1      -3.622  -4.050 -33.506  1.00  0.00     0.001 A 
HETATM   20  C   UNL     1      -4.017  -2.725 -33.311  1.00  0.00     0.007 A 
ENDBRANCH  13  15
BRANCH   8  21
HETATM   21  C   UNL     1     -11.067   2.153 -33.928  1.00  0.00     0.317 C 
BRANCH  21  22
HETATM   22  C   UNL     1     -12.535   1.985 -33.751  1.00  0.00     0.181 A 
HETATM   23  N   UNL     1     -13.335   1.511 -34.706  1.00  0.00    -0.109 NA
HETATM   24  O   UNL     1     -14.602   1.597 -34.121  1.00  0.00    -0.196 OA
HETATM   25  C   UNL     1     -14.430   2.151 -32.879  1.00  0.00     0.177 A 
HETATM   26  N   UNL     1     -13.166   2.437 -32.620  1.00  0.00    -0.207 NA
BRANCH  25  27
HETATM   27  C   UNL     1     -15.588   2.414 -31.928  1.00  0.00     0.065 A 
HETATM   28  C   UNL     1     -16.299   3.750 -32.001  1.00  0.00     0.013 A 
HETATM   29  C   UNL     1     -16.988   2.527 -32.496  1.00  0.00     0.013 A 
ENDBRANCH  25  27
ENDBRANCH  21  22
ENDBRANCH   8  21
TORSDOF 4
ENDMDL
MODEL 4
REMARK VINA RESULT:      -8.7      2.139      2.496
REMARK  4 active torsions:
REMARK  status: ('A' for Active; 'I' for Inactive)
REMARK    1  A    between atoms: N_8  and  C_10 
REMARK    2  A    between atoms: C_10  and  C_11 
REMARK    3  A    between atoms: C_14  and  C_15 
REMARK    4  A    between atoms: C_22  and  C_23 
ROOT
HETATM    1  C   UNL     1      -3.362   1.692 -32.071  1.00  0.00     0.269 C 
HETATM    2  N   UNL     1      -4.589   1.083 -32.724  1.00  0.00    -0.073 N 
HETATM    3  H   UNL     1      -4.685   1.583 -33.617  1.00  0.00     0.279 HD
HETATM    4  C   UNL     1      -5.819   1.295 -31.878  1.00  0.00     0.244 C 
HETATM    5  C   UNL     1      -7.101   0.739 -32.565  1.00  0.00    -0.013 C 
HETATM    6  C   UNL     1      -8.264   0.813 -31.535  1.00  0.00     0.039 C 
HETATM    7  C   UNL     1      -9.634   0.463 -32.114  1.00  0.00     0.236 C 
HETATM    8  N   UNL     1      -9.934   1.322 -33.313  1.00  0.00    -0.064 N 
HETATM    9  H   UNL     1     -10.792   0.908 -33.721  1.00  0.00     0.280 HD
HETATM   10  C   UNL     1      -8.880   1.269 -34.373  1.00  0.00     0.236 C 
HETATM   11  C   UNL     1      -7.503   1.608 -33.790  1.00  0.00     0.039 C 
HETATM   12  C   UNL     1      -6.850  -0.743 -32.956  1.00  0.00     0.022 C 
HETATM   13  C   UNL     1      -5.559  -0.959 -33.771  1.00  0.00     0.045 C 
HETATM   14  C   UNL     1      -4.339  -0.382 -33.040  1.00  0.00     0.243 C 
ENDROOT
BRANCH  13  15
HETATM   15  C   UNL     1      -5.358  -2.422 -34.109  1.00  0.00    -0.052 A 
HETATM   16  C   UNL     1      -6.376  -3.127 -34.772  1.00  0.00     0.007 A 
HETATM   17  C   UNL     1      -6.214  -4.474 -35.097  1.00  0.00     0.001 A 
HETATM   18  C   UNL     1      -5.036  -5.137 -34.764  1.00  0.00     0.000 A 
HETATM   19  C   UNL     1      -4.017  -4.452 -34.109  1.00  0.00     0.001 A 
HETATM   20  C   UNL     1      -4.174  -3.104 -33.783  1.00  0.00     0.007 A 
ENDBRANCH  13  15
BRANCH   8  21
HETATM   21  C   UNL     1     -10.428   2.738 -32.972  1.00  0.00     0.317 C 
BRANCH  21  22
HETATM   22  C   UNL     1     -11.478   3.220 -33.912  1.00  0.00     0.181 A 
HETATM   23  N   UNL     1     -12.341   2.405 -34.519  1.00  0.00    -0.109 NA
HETATM   24  O   UNL     1     -13.070   3.277 -35.334  1.00  0.00    -0.196 OA
HETATM   25  C   UNL     1     -12.539   4.528 -35.153  1.00  0.00     0.177 A 
HETATM   26  N   UNL     1     -11.527   4.533 -34.303  1.00  0.00    -0.207 NA
BRANCH  25  27
HETATM   27  C   UNL     1     -13.063   5.757 -35.880  1.00  0.00     0.065 A 
HETATM   28  C   UNL     1     -14.000   6.693 -35.142  1.00  0.00     0.013 A 
HETATM   29  C   UNL     1     -12.603   7.127 -35.422  1.00  0.00     0.013 A 
ENDBRANCH  25  27
ENDBRANCH  21  22
ENDBRANCH   8  21
TORSDOF 4
ENDMDL
MODEL 5
REMARK VINA RESULT:      -8.5      5.524      8.389
REMARK  4 active torsions:
REMARK  status: ('A' for Active; 'I' for Inactive)
REMARK    1  A    between atoms: N_8  and  C_10 
REMARK    2  A    between atoms: C_10  and  C_11 
REMARK    3  A    between atoms: C_14  and  C_15 
REMARK    4  A    between atoms: C_22  and  C_23 
ROOT
HETATM    1  C   UNL     1      -6.029   0.616 -28.954  1.00  0.00     0.269 C 
HETATM    2  N   UNL     1      -5.490   0.916 -30.340  1.00  0.00    -0.073 N 
HETATM    3  H   UNL     1      -4.477   1.040 -30.207  1.00  0.00     0.279 HD
HETATM    4  C   UNL     1      -6.094   2.180 -30.899  1.00  0.00     0.244 C 
HETATM    5  C   UNL     1      -5.501   2.544 -32.291  1.00  0.00    -0.013 C 
HETATM    6  C   UNL     1      -6.330   3.726 -32.869  1.00  0.00     0.039 C 
HETATM    7  C   UNL     1      -5.762   4.314 -34.160  1.00  0.00     0.236 C 
HETATM    8  N   UNL     1      -4.326   4.721 -33.966  1.00  0.00    -0.064 N 
HETATM    9  H   UNL     1      -3.990   4.953 -34.920  1.00  0.00     0.280 HD
HETATM   10  C   UNL     1      -3.451   3.621 -33.455  1.00  0.00     0.236 C 
HETATM   11  C   UNL     1      -4.026   3.021 -32.166  1.00  0.00     0.039 C 
HETATM   12  C   UNL     1      -5.638   1.311 -33.226  1.00  0.00     0.022 C 
HETATM   13  C   UNL     1      -5.070   0.010 -32.622  1.00  0.00     0.045 C 
HETATM   14  C   UNL     1      -5.692  -0.283 -31.251  1.00  0.00     0.243 C 
ENDROOT
BRANCH  13  15
HETATM   15  C   UNL     1      -5.246  -1.160 -33.569  1.00  0.00    -0.052 A 
HETATM   16  C   UNL     1      -6.496  -1.385 -34.170  1.00  0.00     0.007 A 
HETATM   17  C   UNL     1      -6.682  -2.455 -35.047  1.00  0.00     0.001 A 
HETATM   18  C   UNL     1      -5.626  -3.314 -35.336  1.00  0.00     0.000 A 
HETATM   19  C   UNL     1      -4.381  -3.104 -34.750  1.00  0.00     0.001 A 
HETATM   20  C   UNL     1      -4.190  -2.035 -33.873  1.00  0.00     0.007 A 
ENDBRANCH  13  15
BRANCH   8  21
HETATM   21  C   UNL     1      -4.137   6.072 -33.255  1.00  0.00     0.317 C 
BRANCH  21  22
HETATM   22  C   UNL     1      -2.708   6.479 -33.168  1.00  0.00     0.181 A 
HETATM   23  N   UNL     1      -2.049   7.044 -34.180  1.00  0.00    -0.109 NA
HETATM   24  O   UNL     1      -0.754   7.181 -33.669  1.00  0.00    -0.196 OA
HETATM   25  C   UNL     1      -0.767   6.647 -32.406  1.00  0.00     0.177 A 
HETATM   26  N   UNL     1      -1.952   6.170 -32.067  1.00  0.00    -0.207 NA
BRANCH  25  27
HETATM   27  C   UNL     1       0.468   6.603 -31.519  1.00  0.00     0.065 A 
HETATM   28  C   UNL     1       0.390   7.211 -30.133  1.00  0.00     0.013 A 
HETATM   29  C   UNL     1       0.447   5.730 -30.280  1.00  0.00     0.013 A 
ENDBRANCH  25  27
ENDBRANCH  21  22
ENDBRANCH   8  21
TORSDOF 4
ENDMDL
MODEL 6
REMARK VINA RESULT:      -8.2      5.333      9.754
REMARK  4 active torsions:
REMARK  status: ('A' for Active; 'I' for Inactive)
REMARK    1  A    between atoms: N_8  and  C_10 
REMARK    2  A    between atoms: C_10  and  C_11 
REMARK    3  A    between atoms: C_14  and  C_15 
REMARK    4  A    between atoms: C_22  and  C_23 
ROOT
HETATM    1  C   UNL     1      -8.251   5.772 -32.340  1.00  0.00     0.269 C 
HETATM    2  N   UNL     1      -7.013   4.906 -32.485  1.00  0.00    -0.073 N 
HETATM    3  H   UNL     1      -6.664   4.785 -31.525  1.00  0.00     0.279 HD
HETATM    4  C   UNL     1      -5.968   5.586 -33.333  1.00  0.00     0.244 C 
HETATM    5  C   UNL     1      -4.663   4.745 -33.435  1.00  0.00    -0.013 C 
HETATM    6  C   UNL     1      -3.741   5.421 -34.489  1.00  0.00     0.039 C 
HETATM    7  C   UNL     1      -2.343   4.808 -34.580  1.00  0.00     0.236 C 
HETATM    8  N   UNL     1      -1.683   4.800 -33.227  1.00  0.00    -0.064 N 
HETATM    9  H   UNL     1      -0.825   4.232 -33.360  1.00  0.00     0.280 HD
HETATM   10  C   UNL     1      -2.490   4.123 -32.166  1.00  0.00     0.236 C 
HETATM   11  C   UNL     1      -3.897   4.728 -32.082  1.00  0.00     0.039 C 
HETATM   12  C   UNL     1      -5.033   3.314 -33.914  1.00  0.00     0.022 C 
HETATM   13  C   UNL     1      -6.144   2.648 -33.078  1.00  0.00     0.045 C 
HETATM   14  C   UNL     1      -7.395   3.534 -33.013  1.00  0.00     0.243 C 
ENDROOT
BRANCH  13  15
HETATM   15  C   UNL     1      -6.474   1.264 -33.600  1.00  0.00    -0.052 A 
HETATM   16  C   UNL     1      -6.015   0.133 -32.905  1.00  0.00     0.007 A 
HETATM   17  C   UNL     1      -6.307  -1.152 -33.365  1.00  0.00     0.001 A 
HETATM   18  C   UNL     1      -7.060  -1.325 -34.523  1.00  0.00     0.000 A 
HETATM   19  C   UNL     1      -7.524  -0.215 -35.221  1.00  0.00     0.001 A 
HETATM   20  C   UNL     1      -7.234   1.072 -34.765  1.00  0.00     0.007 A 
ENDBRANCH  13  15
BRANCH   8  21
HETATM   21  C   UNL     1      -1.076   6.150 -32.807  1.00  0.00     0.317 C 
BRANCH  21  22
HETATM   22  C   UNL     1      -0.453   6.101 -31.456  1.00  0.00     0.181 A 
HETATM   23  N   UNL     1       0.400   5.148 -31.081  1.00  0.00    -0.109 NA
HETATM   24  O   UNL     1       0.658   5.471 -29.744  1.00  0.00    -0.196 OA
HETATM   25  C   UNL     1      -0.101   6.573 -29.448  1.00  0.00     0.177 A 
HETATM   26  N   UNL     1      -0.832   6.978 -30.472  1.00  0.00    -0.207 NA
BRANCH  25  27
HETATM   27  C   UNL     1      -0.100   7.227 -28.075  1.00  0.00     0.065 A 
HETATM   28  C   UNL     1      -0.185   6.342 -26.847  1.00  0.00     0.013 A 
HETATM   29  C   UNL     1       1.099   7.024 -27.170  1.00  0.00     0.013 A 
ENDBRANCH  25  27
ENDBRANCH  21  22
ENDBRANCH   8  21
TORSDOF 4
ENDMDL
MODEL 7
REMARK VINA RESULT:      -8.1      4.659      8.246
REMARK  4 active torsions:
REMARK  status: ('A' for Active; 'I' for Inactive)
REMARK    1  A    between atoms: N_8  and  C_10 
REMARK    2  A    between atoms: C_10  and  C_11 
REMARK    3  A    between atoms: C_14  and  C_15 
REMARK    4  A    between atoms: C_22  and  C_23 
ROOT
HETATM    1  C   UNL     1      -1.146   5.508 -34.884  1.00  0.00     0.269 C 
HETATM    2  N   UNL     1      -1.735   5.213 -33.517  1.00  0.00    -0.073 N 
HETATM    3  H   UNL     1      -1.587   4.204 -33.380  1.00  0.00     0.279 HD
HETATM    4  C   UNL     1      -3.209   5.528 -33.478  1.00  0.00     0.244 C 
HETATM    5  C   UNL     1      -3.847   5.165 -32.106  1.00  0.00    -0.013 C 
HETATM    6  C   UNL     1      -5.300   5.717 -32.094  1.00  0.00     0.039 C 
HETATM    7  C   UNL     1      -6.120   5.291 -30.876  1.00  0.00     0.236 C 
HETATM    8  N   UNL     1      -6.123   3.792 -30.742  1.00  0.00    -0.064 N 
HETATM    9  H   UNL     1      -6.559   3.614 -29.818  1.00  0.00     0.280 HD
HETATM   10  C   UNL     1      -4.756   3.187 -30.699  1.00  0.00     0.236 C 
HETATM   11  C   UNL     1      -3.928   3.624 -31.914  1.00  0.00     0.039 C 
HETATM   12  C   UNL     1      -3.024   5.851 -30.981  1.00  0.00     0.022 C 
HETATM   13  C   UNL     1      -1.509   5.571 -31.062  1.00  0.00     0.045 C 
HETATM   14  C   UNL     1      -0.951   5.944 -32.441  1.00  0.00     0.243 C 
ENDROOT
BRANCH  13  15
HETATM   15  C   UNL     1      -0.757   6.278 -29.952  1.00  0.00    -0.052 A 
HETATM   16  C   UNL     1      -1.025   7.630 -29.684  1.00  0.00     0.007 A 
HETATM   17  C   UNL     1      -0.347   8.301 -28.666  1.00  0.00     0.001 A 
HETATM   18  C   UNL     1       0.607   7.634 -27.902  1.00  0.00     0.000 A 
HETATM   19  C   UNL     1       0.882   6.294 -28.155  1.00  0.00     0.001 A 
HETATM   20  C   UNL     1       0.206   5.618 -29.172  1.00  0.00     0.007 A 
ENDBRANCH  13  15
BRANCH   8  21
HETATM   21  C   UNL     1      -7.113   3.072 -31.674  1.00  0.00     0.317 C 
BRANCH  21  22
HETATM   22  C   UNL     1      -6.849   1.610 -31.769  1.00  0.00     0.181 A 
HETATM   23  N   UNL     1      -6.844   0.800 -30.711  1.00  0.00    -0.109 NA
HETATM   24  O   UNL     1      -6.490  -0.435 -31.266  1.00  0.00    -0.196 OA
HETATM   25  C   UNL     1      -6.285  -0.224 -32.605  1.00  0.00     0.177 A 
HETATM   26  N   UNL     1      -6.465   1.038 -32.955  1.00  0.00    -0.207 NA
BRANCH  25  27
HETATM   27  C   UNL     1      -5.876  -1.335 -33.560  1.00  0.00     0.065 A 
HETATM   28  C   UNL     1      -6.951  -2.244 -34.121  1.00  0.00     0.013 A 
HETATM   29  C   UNL     1      -6.300  -1.243 -35.012  1.00  0.00     0.013 A 
ENDBRANCH  25  27
ENDBRANCH  21  22
ENDBRANCH   8  21
TORSDOF 4
ENDMDL
MODEL 8
REMARK VINA RESULT:      -8.0      4.547      7.727
REMARK  4 active torsions:
REMARK  status: ('A' for Active; 'I' for Inactive)
REMARK    1  A    between atoms: N_8  and  C_10 
REMARK    2  A    between atoms: C_10  and  C_11 
REMARK    3  A    between atoms: C_14  and  C_15 
REMARK    4  A    between atoms: C_22  and  C_23 
ROOT
HETATM    1  C   UNL     1      -7.074   7.280 -32.293  1.00  0.00     0.269 C 
HETATM    2  N   UNL     1      -6.104   6.115 -32.222  1.00  0.00    -0.073 N 
HETATM    3  H   UNL     1      -6.048   5.762 -33.186  1.00  0.00     0.279 HD
HETATM    4  C   UNL     1      -6.616   5.033 -31.305  1.00  0.00     0.244 C 
HETATM    5  C   UNL     1      -5.670   3.799 -31.274  1.00  0.00    -0.013 C 
HETATM    6  C   UNL     1      -6.169   2.843 -30.153  1.00  0.00     0.039 C 
HETATM    7  C   UNL     1      -5.443   1.498 -30.111  1.00  0.00     0.236 C 
HETATM    8  N   UNL     1      -5.511   0.821 -31.453  1.00  0.00    -0.064 N 
HETATM    9  H   UNL     1      -4.868   0.012 -31.369  1.00  0.00     0.280 HD
HETATM   10  C   UNL     1      -5.004   1.662 -32.581  1.00  0.00     0.236 C 
HETATM   11  C   UNL     1      -5.722   3.016 -32.617  1.00  0.00     0.039 C 
HETATM   12  C   UNL     1      -4.233   4.285 -30.937  1.00  0.00     0.022 C 
HETATM   13  C   UNL     1      -3.739   5.432 -31.842  1.00  0.00     0.045 C 
HETATM   14  C   UNL     1      -4.722   6.609 -31.831  1.00  0.00     0.243 C 
ENDROOT
BRANCH  13  15
HETATM   15  C   UNL     1      -2.341   5.875 -31.458  1.00  0.00    -0.052 A 
HETATM   16  C   UNL     1      -1.240   5.075 -31.802  1.00  0.00     0.007 A 
HETATM   17  C   UNL     1       0.056   5.462 -31.461  1.00  0.00     0.001 A 
HETATM   18  C   UNL     1       0.271   6.652 -30.772  1.00  0.00     0.000 A 
HETATM   19  C   UNL     1      -0.809   7.457 -30.425  1.00  0.00     0.001 A 
HETATM   20  C   UNL     1      -2.107   7.074 -30.764  1.00  0.00     0.007 A 
ENDBRANCH  13  15
BRANCH   8  21
HETATM   21  C   UNL     1      -6.843   0.105 -31.737  1.00  0.00     0.317 C 
BRANCH  21  22
HETATM   22  C   UNL     1      -6.809  -0.689 -32.996  1.00  0.00     0.181 A 
HETATM   23  N   UNL     1      -7.739  -0.589 -33.946  1.00  0.00    -0.109 NA
HETATM   24  O   UNL     1      -7.335  -1.550 -34.878  1.00  0.00    -0.196 OA
HETATM   25  C   UNL     1      -6.215  -2.154 -34.367  1.00  0.00     0.177 A 
HETATM   26  N   UNL     1      -5.872  -1.672 -33.185  1.00  0.00    -0.207 NA
BRANCH  25  27
HETATM   27  C   UNL     1      -5.477  -3.268 -35.093  1.00  0.00     0.065 A 
HETATM   28  C   UNL     1      -5.467  -4.654 -34.479  1.00  0.00     0.013 A 
HETATM   29  C   UNL     1      -6.280  -4.400 -35.702  1.00  0.00     0.013 A 
ENDBRANCH  25  27
ENDBRANCH  21  22
ENDBRANCH   8  21
TORSDOF 4
ENDMDL
MODEL 9
REMARK VINA RESULT:      -7.9      3.032      4.918
REMARK  4 active torsions:
REMARK  status: ('A' for Active; 'I' for Inactive)
REMARK    1  A    between atoms: N_8  and  C_10 
REMARK    2  A    between atoms: C_10  and  C_11 
REMARK    3  A    between atoms: C_14  and  C_15 
REMARK    4  A    between atoms: C_22  and  C_23 
ROOT
HETATM    1  C   UNL     1      -3.221   0.917 -31.256  1.00  0.00     0.269 C 
HETATM    2  N   UNL     1      -4.397   0.591 -32.158  1.00  0.00    -0.073 N 
HETATM    3  H   UNL     1      -4.269   1.193 -32.983  1.00  0.00     0.279 HD
HETATM    4  C   UNL     1      -5.708   0.911 -31.484  1.00  0.00     0.244 C 
HETATM    5  C   UNL     1      -6.923   0.650 -32.419  1.00  0.00    -0.013 C 
HETATM    6  C   UNL     1      -8.219   0.804 -31.572  1.00  0.00     0.039 C 
HETATM    7  C   UNL     1      -9.509   0.748 -32.390  1.00  0.00     0.236 C 
HETATM    8  N   UNL     1      -9.477   1.767 -33.496  1.00  0.00    -0.064 N 
HETATM    9  H   UNL     1     -10.306   1.546 -34.078  1.00  0.00     0.280 HD
HETATM   10  C   UNL     1      -8.280   1.654 -34.386  1.00  0.00     0.236 C 
HETATM   11  C   UNL     1      -6.985   1.698 -33.566  1.00  0.00     0.039 C 
HETATM   12  C   UNL     1      -6.829  -0.803 -32.960  1.00  0.00     0.022 C 
HETATM   13  C   UNL     1      -5.465  -1.140 -33.596  1.00  0.00     0.045 C 
HETATM   14  C   UNL     1      -4.314  -0.853 -32.624  1.00  0.00     0.243 C 
ENDROOT
BRANCH  13  15
HETATM   15  C   UNL     1      -5.426  -2.572 -34.090  1.00  0.00    -0.052 A 
HETATM   16  C   UNL     1      -4.279  -3.352 -33.867  1.00  0.00     0.007 A 
HETATM   17  C   UNL     1      -4.220  -4.673 -34.311  1.00  0.00     0.001 A 
HETATM   18  C   UNL     1      -5.302  -5.235 -34.983  1.00  0.00     0.000 A 
HETATM   19  C   UNL     1      -6.446  -4.476 -35.210  1.00  0.00     0.001 A 
HETATM   20  C   UNL     1      -6.510  -3.154 -34.768  1.00  0.00     0.007 A 
ENDBRANCH  13  15
BRANCH   8  21
HETATM   21  C   UNL     1      -9.809   3.201 -33.050  1.00  0.00     0.317 C 
BRANCH  21  22
HETATM   22  C   UNL     1      -8.650   4.126 -33.182  1.00  0.00     0.181 A 
HETATM   23  N   UNL     1      -8.348   4.758 -34.316  1.00  0.00    -0.109 NA
HETATM   24  O   UNL     1      -7.172   5.441 -33.987  1.00  0.00    -0.196 OA
HETATM   25  C   UNL     1      -6.873   5.115 -32.689  1.00  0.00     0.177 A 
HETATM   26  N   UNL     1      -7.747   4.275 -32.161  1.00  0.00    -0.207 NA
BRANCH  25  27
HETATM   27  C   UNL     1      -5.652   5.659 -31.964  1.00  0.00     0.065 A 
HETATM   28  C   UNL     1      -4.374   4.844 -31.980  1.00  0.00     0.013 A 
HETATM   29  C   UNL     1      -4.453   6.097 -32.782  1.00  0.00     0.013 A 
ENDBRANCH  25  27
ENDBRANCH  21  22
ENDBRANCH   8  21
TORSDOF 4
ENDMDL
MODEL 10
REMARK VINA RESULT:      -7.7      3.704      8.594
REMARK  4 active torsions:
REMARK  status: ('A' for Active; 'I' for Inactive)
REMARK    1  A    between atoms: N_8  and  C_10 
REMARK    2  A    between atoms: C_10  and  C_11 
REMARK    3  A    between atoms: C_14  and  C_15 
REMARK    4  A    between atoms: C_22  and  C_23 
ROOT
HETATM    1  C   UNL     1      -6.518  -1.475 -33.734  1.00  0.00     0.269 C 
HETATM    2  N   UNL     1      -7.108  -0.102 -33.467  1.00  0.00    -0.073 N 
HETATM    3  H   UNL     1      -6.619   0.524 -34.120  1.00  0.00     0.279 HD
HETATM    4  C   UNL     1      -6.854   0.334 -32.046  1.00  0.00     0.244 C 
HETATM    5  C   UNL     1      -7.389   1.769 -31.773  1.00  0.00    -0.013 C 
HETATM    6  C   UNL     1      -7.273   2.039 -30.245  1.00  0.00     0.039 C 
HETATM    7  C   UNL     1      -7.599   3.476 -29.839  1.00  0.00     0.236 C 
HETATM    8  N   UNL     1      -6.751   4.448 -30.614  1.00  0.00    -0.064 N 
HETATM    9  H   UNL     1      -7.151   5.378 -30.390  1.00  0.00     0.280 HD
HETATM   10  C   UNL     1      -6.845   4.283 -32.097  1.00  0.00     0.236 C 
HETATM   11  C   UNL     1      -6.530   2.838 -32.506  1.00  0.00     0.039 C 
HETATM   12  C   UNL     1      -8.883   1.830 -32.195  1.00  0.00     0.022 C 
HETATM   13  C   UNL     1      -9.142   1.327 -33.630  1.00  0.00     0.045 C 
HETATM   14  C   UNL     1      -8.583  -0.087 -33.831  1.00  0.00     0.243 C 
ENDROOT
BRANCH  13  15
HETATM   15  C   UNL     1     -10.614   1.394 -33.981  1.00  0.00    -0.052 A 
HETATM   16  C   UNL     1     -11.500   0.449 -33.439  1.00  0.00     0.007 A 
HETATM   17  C   UNL     1     -12.861   0.491 -33.746  1.00  0.00     0.001 A 
HETATM   18  C   UNL     1     -13.356   1.475 -34.597  1.00  0.00     0.000 A 
HETATM   19  C   UNL     1     -12.491   2.419 -35.142  1.00  0.00     0.001 A 
HETATM   20  C   UNL     1     -11.129   2.381 -34.838  1.00  0.00     0.007 A 
ENDBRANCH  13  15
BRANCH   8  21
HETATM   21  C   UNL     1      -5.318   4.611 -30.078  1.00  0.00     0.317 C 
BRANCH  21  22
HETATM   22  C   UNL     1      -4.403   5.238 -31.070  1.00  0.00     0.181 A 
HETATM   23  N   UNL     1      -4.575   6.474 -31.540  1.00  0.00    -0.109 NA
HETATM   24  O   UNL     1      -3.539   6.599 -32.472  1.00  0.00    -0.196 OA
HETATM   25  C   UNL     1      -2.872   5.401 -32.487  1.00  0.00     0.177 A 
HETATM   26  N   UNL     1      -3.395   4.516 -31.656  1.00  0.00    -0.207 NA
BRANCH  25  27
HETATM   27  C   UNL     1      -1.675   5.138 -33.387  1.00  0.00     0.065 A 
HETATM   28  C   UNL     1      -1.897   5.040 -34.883  1.00  0.00     0.013 A 
HETATM   29  C   UNL     1      -1.209   6.236 -34.323  1.00  0.00     0.013 A 
ENDBRANCH  25  27
ENDBRANCH  21  22
ENDBRANCH   8  21
TORSDOF 4
ENDMDL
