MODEL 1
REMARK VINA RESULT:      -8.7      0.000      0.000
REMARK  8 active torsions:
REMARK  status: ('A' for Active; 'I' for Inactive)
REMARK    1  A    between atoms: C_8  and  C_9 
REMARK       I    between atoms: C_9  and  N_10 
REMARK    2  A    between atoms: N_10  and  N_11 
REMARK    3  A    between atoms: N_11  and  C_12 
REMARK    4  A    between atoms: C_12  and  N_13 
REMARK    5  A    between atoms: N_13  and  C_14 
REMARK    6  A    between atoms: C_15  and  O_16 
REMARK    7  A    between atoms: C_19  and  O_20 
REMARK    8  A    between atoms: C_26  and  C_27 
ROOT
HETATM    1  C   UNL     1      -9.076   0.383 -33.581  1.00  0.00     0.275 C 
HETATM    2  N   UNL     1      -9.378   1.214 -34.643  1.00  0.00    -0.263 N 
HETATM    3  O   UNL     1      -9.939  -0.093 -32.846  1.00  0.00    -0.266 OA
HETATM    4  H   UNL     1      -8.646   1.839 -34.978  1.00  0.00     0.190 HD
ENDROOT
BRANCH   2   5
HETATM    5  N   UNL     1     -10.695   1.697 -34.770  1.00  0.00    -0.273 N 
HETATM    6  H   UNL     1     -11.388   0.975 -34.975  1.00  0.00     0.189 HD
BRANCH   5   7
HETATM    7  C   UNL     1     -11.096   2.816 -34.038  1.00  0.00     0.191 C 
HETATM    8  S   UNL     1     -10.691   4.381 -34.498  1.00  0.00    -0.039 SA
BRANCH   7   9
HETATM    9  N   UNL     1     -11.913   2.432 -32.988  1.00  0.00    -0.330 N 
HETATM   10  H   UNL     1     -11.464   1.841 -32.295  1.00  0.00     0.168 HD
BRANCH   9  11
HETATM   11  C   UNL     1     -13.323   2.446 -32.859  1.00  0.00     0.068 A 
HETATM   12  C   UNL     1     -14.035   1.385 -33.458  1.00  0.00     0.097 A 
HETATM   13  C   UNL     1     -15.431   1.330 -33.356  1.00  0.00     0.075 A 
HETATM   14  C   UNL     1     -16.122   2.318 -32.650  1.00  0.00     0.070 A 
HETATM   15  C   UNL     1     -15.409   3.341 -32.026  1.00  0.00     0.039 A 
HETATM   16  C   UNL     1     -14.017   3.405 -32.124  1.00  0.00     0.035 A 
BRANCH  12  17
HETATM   17  O   UNL     1     -13.258   0.461 -34.121  1.00  0.00    -0.354 OA
HETATM   18  C   UNL     1     -13.244  -0.866 -33.606  1.00  0.00     0.210 C 
ENDBRANCH  12  17
BRANCH  14  19
HETATM   19  O   UNL     1     -17.477   2.386 -32.475  1.00  0.00    -0.356 OA
HETATM   20  C   UNL     1     -17.963   3.370 -31.572  1.00  0.00     0.210 C 
ENDBRANCH  14  19
ENDBRANCH   9  11
ENDBRANCH   7   9
ENDBRANCH   5   7
ENDBRANCH   2   5
BRANCH   1  21
HETATM   21  C   UNL     1      -7.657   0.178 -33.370  1.00  0.00     0.098 A 
HETATM   22  C   UNL     1      -6.856  -0.887 -33.741  1.00  0.00     0.138 A 
HETATM   23  N   UNL     1      -7.094  -2.075 -34.350  1.00  0.00    -0.370 N 
HETATM   24  N   UNL     1      -5.583  -0.565 -33.326  1.00  0.00    -0.240 N 
HETATM   25  C   UNL     1      -5.988  -2.858 -34.891  1.00  0.00     0.081 C 
HETATM   26  H   UNL     1      -8.033  -2.439 -34.515  1.00  0.00     0.161 HD
HETATM   27  C   UNL     1      -6.456  -4.282 -35.169  1.00  0.00     0.032 C 
HETATM   28  C   UNL     1      -4.832  -2.840 -33.889  1.00  0.00     0.061 C 
HETATM   29  C   UNL     1      -4.412  -1.393 -33.565  1.00  0.00     0.221 C 
HETATM   30  N   UNL     1      -5.493   0.651 -32.765  1.00  0.00    -0.181 NA
HETATM   31  C   UNL     1      -6.759   1.077 -32.748  1.00  0.00     0.160 A 
BRANCH  29  32
HETATM   32  C   UNL     1      -3.457  -1.394 -32.390  1.00  0.00     0.409 C 
HETATM   33  F   UNL     1      -4.080  -1.153 -31.214  1.00  0.00    -0.169 F 
HETATM   34  F   UNL     1      -2.886  -2.626 -32.276  1.00  0.00    -0.169 F 
HETATM   35  F   UNL     1      -2.434  -0.524 -32.520  1.00  0.00    -0.169 F 
ENDBRANCH  29  32
ENDBRANCH   1  21
TORSDOF 8
ENDMDL
MODEL 2
REMARK VINA RESULT:      -8.4      5.809      8.251
REMARK  8 active torsions:
REMARK  status: ('A' for Active; 'I' for Inactive)
REMARK    1  A    between atoms: C_8  and  C_9 
REMARK       I    between atoms: C_9  and  N_10 
REMARK    2  A    between atoms: N_10  and  N_11 
REMARK    3  A    between atoms: N_11  and  C_12 
REMARK    4  A    between atoms: C_12  and  N_13 
REMARK    5  A    between atoms: N_13  and  C_14 
REMARK    6  A    between atoms: C_15  and  O_16 
REMARK    7  A    between atoms: C_19  and  O_20 
REMARK    8  A    between atoms: C_26  and  C_27 
ROOT
HETATM    1  C   UNL     1      -4.164  -0.025 -31.005  1.00  0.00     0.275 C 
HETATM    2  N   UNL     1      -5.322   0.258 -30.307  1.00  0.00    -0.263 N 
HETATM    3  O   UNL     1      -3.119   0.601 -30.835  1.00  0.00    -0.266 OA
HETATM    4  H   UNL     1      -6.208  -0.030 -30.722  1.00  0.00     0.190 HD
ENDROOT
BRANCH   2   5
HETATM    5  N   UNL     1      -5.371   1.426 -29.522  1.00  0.00    -0.273 N 
HETATM    6  H   UNL     1      -4.682   1.454 -28.768  1.00  0.00     0.189 HD
BRANCH   5   7
HETATM    7  C   UNL     1      -5.774   2.632 -30.099  1.00  0.00     0.191 C 
HETATM    8  S   UNL     1      -7.375   2.938 -30.510  1.00  0.00    -0.039 SA
BRANCH   7   9
HETATM    9  N   UNL     1      -4.704   3.507 -30.177  1.00  0.00    -0.330 N 
HETATM   10  H   UNL     1      -4.443   3.936 -29.294  1.00  0.00     0.168 HD
BRANCH   9  11
HETATM   11  C   UNL     1      -4.112   4.150 -31.289  1.00  0.00     0.068 A 
HETATM   12  C   UNL     1      -4.423   5.513 -31.487  1.00  0.00     0.097 A 
HETATM   13  C   UNL     1      -3.860   6.213 -32.561  1.00  0.00     0.075 A 
HETATM   14  C   UNL     1      -2.978   5.570 -33.432  1.00  0.00     0.070 A 
HETATM   15  C   UNL     1      -2.642   4.235 -33.208  1.00  0.00     0.039 A 
HETATM   16  C   UNL     1      -3.200   3.528 -32.141  1.00  0.00     0.035 A 
BRANCH  12  17
HETATM   17  O   UNL     1      -5.295   6.052 -30.567  1.00  0.00    -0.354 OA
HETATM   18  C   UNL     1      -6.477   6.663 -31.072  1.00  0.00     0.210 C 
ENDBRANCH  12  17
BRANCH  14  19
HETATM   19  O   UNL     1      -2.361   6.133 -34.517  1.00  0.00    -0.356 OA
HETATM   20  C   UNL     1      -1.105   5.588 -34.899  1.00  0.00     0.210 C 
ENDBRANCH  14  19
ENDBRANCH   9  11
ENDBRANCH   7   9
ENDBRANCH   5   7
ENDBRANCH   2   5
BRANCH   1  21
HETATM   21  C   UNL     1      -4.306  -1.070 -31.998  1.00  0.00     0.098 A 
HETATM   22  C   UNL     1      -5.162  -1.146 -33.082  1.00  0.00     0.138 A 
HETATM   23  N   UNL     1      -6.152  -0.349 -33.555  1.00  0.00    -0.370 N 
HETATM   24  N   UNL     1      -4.866  -2.333 -33.714  1.00  0.00    -0.240 N 
HETATM   25  C   UNL     1      -6.667  -0.542 -34.907  1.00  0.00     0.081 C 
HETATM   26  H   UNL     1      -6.530   0.441 -33.032  1.00  0.00     0.161 HD
HETATM   27  C   UNL     1      -7.992   0.195 -35.060  1.00  0.00     0.032 C 
HETATM   28  C   UNL     1      -6.833  -2.040 -35.165  1.00  0.00     0.061 C 
HETATM   29  C   UNL     1      -5.501  -2.785 -34.942  1.00  0.00     0.221 C 
HETATM   30  N   UNL     1      -3.848  -3.001 -33.152  1.00  0.00    -0.181 NA
HETATM   31  C   UNL     1      -3.543  -2.259 -32.084  1.00  0.00     0.160 A 
BRANCH  29  32
HETATM   32  C   UNL     1      -5.749  -4.278 -34.947  1.00  0.00     0.409 C 
HETATM   33  F   UNL     1      -6.742  -4.643 -34.106  1.00  0.00    -0.169 F 
HETATM   34  F   UNL     1      -6.142  -4.664 -36.194  1.00  0.00    -0.169 F 
HETATM   35  F   UNL     1      -4.653  -5.012 -34.663  1.00  0.00    -0.169 F 
ENDBRANCH  29  32
ENDBRANCH   1  21
TORSDOF 8
ENDMDL
MODEL 3
REMARK VINA RESULT:      -8.4      5.937      9.211
REMARK  8 active torsions:
REMARK  status: ('A' for Active; 'I' for Inactive)
REMARK    1  A    between atoms: C_8  and  C_9 
REMARK       I    between atoms: C_9  and  N_10 
REMARK    2  A    between atoms: N_10  and  N_11 
REMARK    3  A    between atoms: N_11  and  C_12 
REMARK    4  A    between atoms: C_12  and  N_13 
REMARK    5  A    between atoms: N_13  and  C_14 
REMARK    6  A    between atoms: C_15  and  O_16 
REMARK    7  A    between atoms: C_19  and  O_20 
REMARK    8  A    between atoms: C_26  and  C_27 
ROOT
HETATM    1  C   UNL     1      -4.483   4.763 -33.543  1.00  0.00     0.275 C 
HETATM    2  N   UNL     1      -5.304   3.728 -33.136  1.00  0.00    -0.263 N 
HETATM    3  O   UNL     1      -4.677   5.392 -34.581  1.00  0.00    -0.266 OA
HETATM    4  H   UNL     1      -4.914   3.038 -32.495  1.00  0.00     0.190 HD
ENDROOT
BRANCH   2   5
HETATM    5  N   UNL     1      -6.275   3.241 -34.034  1.00  0.00    -0.273 N 
HETATM    6  H   UNL     1      -5.908   3.000 -34.957  1.00  0.00     0.189 HD
BRANCH   5   7
HETATM    7  C   UNL     1      -7.374   2.531 -33.547  1.00  0.00     0.191 C 
HETATM    8  S   UNL     1      -8.956   3.006 -33.857  1.00  0.00    -0.039 SA
BRANCH   7   9
HETATM    9  N   UNL     1      -6.951   1.387 -32.891  1.00  0.00    -0.330 N 
HETATM   10  H   UNL     1      -6.707   1.525 -31.914  1.00  0.00     0.168 HD
BRANCH   9  11
HETATM   11  C   UNL     1      -6.499   0.144 -33.394  1.00  0.00     0.068 A 
HETATM   12  C   UNL     1      -5.119  -0.130 -33.288  1.00  0.00     0.097 A 
HETATM   13  C   UNL     1      -4.608  -1.349 -33.753  1.00  0.00     0.075 A 
HETATM   14  C   UNL     1      -5.463  -2.301 -34.311  1.00  0.00     0.070 A 
HETATM   15  C   UNL     1      -6.832  -2.041 -34.375  1.00  0.00     0.039 A 
HETATM   16  C   UNL     1      -7.351  -0.829 -33.916  1.00  0.00     0.035 A 
BRANCH  12  17
HETATM   17  O   UNL     1      -4.366   0.871 -32.715  1.00  0.00    -0.354 OA
HETATM   18  C   UNL     1      -3.473   0.496 -31.673  1.00  0.00     0.210 C 
ENDBRANCH  12  17
BRANCH  14  19
HETATM   19  O   UNL     1      -5.098  -3.525 -34.803  1.00  0.00    -0.356 OA
HETATM   20  C   UNL     1      -6.138  -4.469 -35.024  1.00  0.00     0.210 C 
ENDBRANCH  14  19
ENDBRANCH   9  11
ENDBRANCH   7   9
ENDBRANCH   5   7
ENDBRANCH   2   5
BRANCH   1  21
HETATM   21  C   UNL     1      -3.344   4.994 -32.679  1.00  0.00     0.098 A 
HETATM   22  C   UNL     1      -3.046   6.089 -31.888  1.00  0.00     0.138 A 
HETATM   23  N   UNL     1      -3.642   7.289 -31.682  1.00  0.00    -0.370 N 
HETATM   24  N   UNL     1      -1.865   5.784 -31.250  1.00  0.00    -0.240 N 
HETATM   25  C   UNL     1      -3.256   8.116 -30.542  1.00  0.00     0.081 C 
HETATM   26  H   UNL     1      -4.411   7.636 -32.256  1.00  0.00     0.161 HD
HETATM   27  C   UNL     1      -3.772   9.536 -30.742  1.00  0.00     0.032 C 
HETATM   28  C   UNL     1      -1.732   8.093 -30.408  1.00  0.00     0.061 C 
HETATM   29  C   UNL     1      -1.216   6.646 -30.275  1.00  0.00     0.221 C 
HETATM   30  N   UNL     1      -1.407   4.554 -31.527  1.00  0.00    -0.181 NA
HETATM   31  C   UNL     1      -2.278   4.097 -32.431  1.00  0.00     0.160 A 
BRANCH  29  32
HETATM   32  C   UNL     1       0.292   6.632 -30.405  1.00  0.00     0.409 C 
HETATM   33  F   UNL     1       0.708   6.956 -31.651  1.00  0.00    -0.169 F 
HETATM   34  F   UNL     1       0.824   7.567 -29.568  1.00  0.00    -0.169 F 
HETATM   35  F   UNL     1       0.857   5.459 -30.055  1.00  0.00    -0.169 F 
ENDBRANCH  29  32
ENDBRANCH   1  21
TORSDOF 8
ENDMDL
MODEL 4
REMARK VINA RESULT:      -8.3      3.408      5.354
REMARK  8 active torsions:
REMARK  status: ('A' for Active; 'I' for Inactive)
REMARK    1  A    between atoms: C_8  and  C_9 
REMARK       I    between atoms: C_9  and  N_10 
REMARK    2  A    between atoms: N_10  and  N_11 
REMARK    3  A    between atoms: N_11  and  C_12 
REMARK    4  A    between atoms: C_12  and  N_13 
REMARK    5  A    between atoms: N_13  and  C_14 
REMARK    6  A    between atoms: C_15  and  O_16 
REMARK    7  A    between atoms: C_19  and  O_20 
REMARK    8  A    between atoms: C_26  and  C_27 
ROOT
HETATM    1  C   UNL     1      -4.029   0.118 -31.155  1.00  0.00     0.275 C 
HETATM    2  N   UNL     1      -5.151   0.366 -30.386  1.00  0.00    -0.263 N 
HETATM    3  O   UNL     1      -3.028   0.830 -31.114  1.00  0.00    -0.266 OA
HETATM    4  H   UNL     1      -6.039  -0.017 -30.707  1.00  0.00     0.190 HD
ENDROOT
BRANCH   2   5
HETATM    5  N   UNL     1      -5.234   1.584 -29.684  1.00  0.00    -0.273 N 
HETATM    6  H   UNL     1      -4.410   1.799 -29.120  1.00  0.00     0.189 HD
BRANCH   5   7
HETATM    7  C   UNL     1      -5.969   2.643 -30.219  1.00  0.00     0.191 C 
HETATM    8  S   UNL     1      -5.239   3.926 -31.021  1.00  0.00    -0.039 SA
BRANCH   7   9
HETATM    9  N   UNL     1      -7.325   2.410 -30.064  1.00  0.00    -0.330 N 
HETATM   10  H   UNL     1      -7.624   2.269 -29.103  1.00  0.00     0.168 HD
BRANCH   9  11
HETATM   11  C   UNL     1      -8.312   2.022 -31.002  1.00  0.00     0.068 A 
HETATM   12  C   UNL     1      -9.117   3.044 -31.549  1.00  0.00     0.097 A 
HETATM   13  C   UNL     1     -10.103   2.730 -32.494  1.00  0.00     0.075 A 
HETATM   14  C   UNL     1     -10.284   1.408 -32.906  1.00  0.00     0.070 A 
HETATM   15  C   UNL     1      -9.458   0.409 -32.392  1.00  0.00     0.039 A 
HETATM   16  C   UNL     1      -8.473   0.712 -31.449  1.00  0.00     0.035 A 
BRANCH  12  17
HETATM   17  O   UNL     1      -8.850   4.312 -31.082  1.00  0.00    -0.354 OA
HETATM   18  C   UNL     1      -8.720   5.347 -32.050  1.00  0.00     0.210 C 
ENDBRANCH  12  17
BRANCH  14  19
HETATM   19  O   UNL     1     -11.206   0.966 -33.815  1.00  0.00    -0.356 OA
HETATM   20  C   UNL     1     -12.454   1.647 -33.853  1.00  0.00     0.210 C 
ENDBRANCH  14  19
ENDBRANCH   9  11
ENDBRANCH   7   9
ENDBRANCH   5   7
ENDBRANCH   2   5
BRANCH   1  21
HETATM   21  C   UNL     1      -4.162  -1.008 -32.057  1.00  0.00     0.098 A 
HETATM   22  C   UNL     1      -4.991  -1.166 -33.153  1.00  0.00     0.138 A 
HETATM   23  N   UNL     1      -5.956  -0.400 -33.720  1.00  0.00    -0.370 N 
HETATM   24  N   UNL     1      -4.697  -2.407 -33.673  1.00  0.00    -0.240 N 
HETATM   25  C   UNL     1      -6.439  -0.702 -35.064  1.00  0.00     0.081 C 
HETATM   26  H   UNL     1      -6.335   0.437 -33.278  1.00  0.00     0.161 HD
HETATM   27  C   UNL     1      -7.748   0.036 -35.315  1.00  0.00     0.032 C 
HETATM   28  C   UNL     1      -6.621  -2.215 -35.196  1.00  0.00     0.061 C 
HETATM   29  C   UNL     1      -5.307  -2.955 -34.874  1.00  0.00     0.221 C 
HETATM   30  N   UNL     1      -3.704  -3.037 -33.028  1.00  0.00    -0.181 NA
HETATM   31  C   UNL     1      -3.416  -2.210 -32.020  1.00  0.00     0.160 A 
BRANCH  29  32
HETATM   32  C   UNL     1      -5.577  -4.440 -34.757  1.00  0.00     0.409 C 
HETATM   33  F   UNL     1      -6.593  -4.718 -33.908  1.00  0.00    -0.169 F 
HETATM   34  F   UNL     1      -5.952  -4.926 -35.974  1.00  0.00    -0.169 F 
HETATM   35  F   UNL     1      -4.499  -5.161 -34.388  1.00  0.00    -0.169 F 
ENDBRANCH  29  32
ENDBRANCH   1  21
TORSDOF 8
ENDMDL
MODEL 5
REMARK VINA RESULT:      -8.3      4.473      5.748
REMARK  8 active torsions:
REMARK  status: ('A' for Active; 'I' for Inactive)
REMARK    1  A    between atoms: C_8  and  C_9 
REMARK       I    between atoms: C_9  and  N_10 
REMARK    2  A    between atoms: N_10  and  N_11 
REMARK    3  A    between atoms: N_11  and  C_12 
REMARK    4  A    between atoms: C_12  and  N_13 
REMARK    5  A    between atoms: N_13  and  C_14 
REMARK    6  A    between atoms: C_15  and  O_16 
REMARK    7  A    between atoms: C_19  and  O_20 
REMARK    8  A    between atoms: C_26  and  C_27 
ROOT
HETATM    1  C   UNL     1      -3.724   0.105 -31.420  1.00  0.00     0.275 C 
HETATM    2  N   UNL     1      -4.776   0.981 -31.229  1.00  0.00    -0.263 N 
HETATM    3  O   UNL     1      -2.606   0.301 -30.948  1.00  0.00    -0.266 OA
HETATM    4  H   UNL     1      -5.538   0.961 -31.905  1.00  0.00     0.190 HD
ENDROOT
BRANCH   2   5
HETATM    5  N   UNL     1      -4.513   2.237 -30.649  1.00  0.00    -0.273 N 
HETATM    6  H   UNL     1      -3.698   2.252 -30.032  1.00  0.00     0.189 HD
BRANCH   5   7
HETATM    7  C   UNL     1      -4.844   3.403 -31.342  1.00  0.00     0.191 C 
HETATM    8  S   UNL     1      -4.343   4.923 -30.830  1.00  0.00    -0.039 SA
BRANCH   7   9
HETATM    9  N   UNL     1      -5.530   3.090 -32.503  1.00  0.00    -0.330 N 
HETATM   10  H   UNL     1      -4.954   2.702 -33.245  1.00  0.00     0.168 HD
BRANCH   9  11
HETATM   11  C   UNL     1      -6.807   3.493 -32.962  1.00  0.00     0.068 A 
HETATM   12  C   UNL     1      -7.903   2.671 -32.621  1.00  0.00     0.097 A 
HETATM   13  C   UNL     1      -9.196   3.020 -33.031  1.00  0.00     0.075 A 
HETATM   14  C   UNL     1      -9.407   4.188 -33.767  1.00  0.00     0.070 A 
HETATM   15  C   UNL     1      -8.326   5.016 -34.066  1.00  0.00     0.039 A 
HETATM   16  C   UNL     1      -7.033   4.676 -33.662  1.00  0.00     0.035 A 
BRANCH  12  17
HETATM   17  O   UNL     1      -7.586   1.550 -31.886  1.00  0.00    -0.354 OA
HETATM   18  C   UNL     1      -8.636   0.625 -31.628  1.00  0.00     0.210 C 
ENDBRANCH  12  17
BRANCH  14  19
HETATM   19  O   UNL     1     -10.612   4.642 -34.230  1.00  0.00    -0.356 OA
HETATM   20  C   UNL     1     -10.583   5.738 -35.136  1.00  0.00     0.210 C 
ENDBRANCH  14  19
ENDBRANCH   9  11
ENDBRANCH   7   9
ENDBRANCH   5   7
ENDBRANCH   2   5
BRANCH   1  21
HETATM   21  C   UNL     1      -4.036  -1.022 -32.275  1.00  0.00     0.098 A 
HETATM   22  C   UNL     1      -4.969  -1.126 -33.291  1.00  0.00     0.138 A 
HETATM   23  N   UNL     1      -5.907  -0.288 -33.794  1.00  0.00    -0.370 N 
HETATM   24  N   UNL     1      -4.834  -2.399 -33.799  1.00  0.00    -0.240 N 
HETATM   25  C   UNL     1      -6.532  -0.571 -35.083  1.00  0.00     0.081 C 
HETATM   26  H   UNL     1      -6.170   0.590 -33.345  1.00  0.00     0.161 HD
HETATM   27  C   UNL     1      -7.788   0.278 -35.241  1.00  0.00     0.032 C 
HETATM   28  C   UNL     1      -6.859  -2.064 -35.156  1.00  0.00     0.061 C 
HETATM   29  C   UNL     1      -5.593  -2.913 -34.928  1.00  0.00     0.221 C 
HETATM   30  N   UNL     1      -3.847  -3.104 -33.225  1.00  0.00    -0.181 NA
HETATM   31  C   UNL     1      -3.399  -2.286 -32.269  1.00  0.00     0.160 A 
BRANCH  29  32
HETATM   32  C   UNL     1      -5.983  -4.365 -34.746  1.00  0.00     0.409 C 
HETATM   33  F   UNL     1      -5.111  -5.044 -33.967  1.00  0.00    -0.169 F 
HETATM   34  F   UNL     1      -7.190  -4.431 -34.118  1.00  0.00    -0.169 F 
HETATM   35  F   UNL     1      -6.135  -5.036 -35.907  1.00  0.00    -0.169 F 
ENDBRANCH  29  32
ENDBRANCH   1  21
TORSDOF 8
ENDMDL
MODEL 6
REMARK VINA RESULT:      -7.9      4.625      9.100
REMARK  8 active torsions:
REMARK  status: ('A' for Active; 'I' for Inactive)
REMARK    1  A    between atoms: C_8  and  C_9 
REMARK       I    between atoms: C_9  and  N_10 
REMARK    2  A    between atoms: N_10  and  N_11 
REMARK    3  A    between atoms: N_11  and  C_12 
REMARK    4  A    between atoms: C_12  and  N_13 
REMARK    5  A    between atoms: N_13  and  C_14 
REMARK    6  A    between atoms: C_15  and  O_16 
REMARK    7  A    between atoms: C_19  and  O_20 
REMARK    8  A    between atoms: C_26  and  C_27 
ROOT
HETATM    1  C   UNL     1      -8.507   2.692 -32.222  1.00  0.00     0.275 C 
HETATM    2  N   UNL     1      -7.344   2.511 -32.947  1.00  0.00    -0.263 N 
HETATM    3  O   UNL     1      -8.551   3.379 -31.203  1.00  0.00    -0.266 OA
HETATM    4  H   UNL     1      -7.281   1.685 -33.542  1.00  0.00     0.190 HD
ENDROOT
BRANCH   2   5
HETATM    5  N   UNL     1      -6.127   2.957 -32.397  1.00  0.00    -0.273 N 
HETATM    6  H   UNL     1      -6.138   3.932 -32.090  1.00  0.00     0.189 HD
BRANCH   5   7
HETATM    7  C   UNL     1      -5.300   2.057 -31.722  1.00  0.00     0.191 C 
HETATM    8  S   UNL     1      -5.359   1.863 -30.054  1.00  0.00    -0.039 SA
BRANCH   7   9
HETATM    9  N   UNL     1      -4.545   1.331 -32.628  1.00  0.00    -0.330 N 
HETATM   10  H   UNL     1      -4.076   1.892 -33.334  1.00  0.00     0.168 HD
BRANCH   9  11
HETATM   11  C   UNL     1      -4.551  -0.048 -32.946  1.00  0.00     0.068 A 
HETATM   12  C   UNL     1      -5.436  -0.470 -33.961  1.00  0.00     0.097 A 
HETATM   13  C   UNL     1      -5.483  -1.820 -34.335  1.00  0.00     0.075 A 
HETATM   14  C   UNL     1      -4.645  -2.749 -33.713  1.00  0.00     0.070 A 
HETATM   15  C   UNL     1      -3.745  -2.318 -32.739  1.00  0.00     0.039 A 
HETATM   16  C   UNL     1      -3.692  -0.975 -32.360  1.00  0.00     0.035 A 
BRANCH  12  17
HETATM   17  O   UNL     1      -6.210   0.526 -34.514  1.00  0.00    -0.354 OA
HETATM   18  C   UNL     1      -7.203   0.132 -35.454  1.00  0.00     0.210 C 
ENDBRANCH  12  17
BRANCH  14  19
HETATM   19  O   UNL     1      -4.590  -4.090 -33.979  1.00  0.00    -0.356 OA
HETATM   20  C   UNL     1      -3.363  -4.753 -33.704  1.00  0.00     0.210 C 
ENDBRANCH  14  19
ENDBRANCH   9  11
ENDBRANCH   7   9
ENDBRANCH   5   7
ENDBRANCH   2   5
BRANCH   1  21
HETATM   21  C   UNL     1      -9.645   1.952 -32.726  1.00  0.00     0.098 A 
HETATM   22  C   UNL     1     -10.705   2.386 -33.502  1.00  0.00     0.138 A 
HETATM   23  N   UNL     1     -11.073   3.592 -34.000  1.00  0.00    -0.370 N 
HETATM   24  N   UNL     1     -11.490   1.277 -33.724  1.00  0.00    -0.240 N 
HETATM   25  C   UNL     1     -12.081   3.676 -35.052  1.00  0.00     0.081 C 
HETATM   26  H   UNL     1     -10.632   4.469 -33.721  1.00  0.00     0.161 HD
HETATM   27  C   UNL     1     -12.585   5.110 -35.165  1.00  0.00     0.032 C 
HETATM   28  C   UNL     1     -13.222   2.712 -34.723  1.00  0.00     0.061 C 
HETATM   29  C   UNL     1     -12.690   1.275 -34.546  1.00  0.00     0.221 C 
HETATM   30  N   UNL     1     -10.988   0.150 -33.196  1.00  0.00    -0.181 NA
HETATM   31  C   UNL     1      -9.897   0.570 -32.551  1.00  0.00     0.160 A 
BRANCH  29  32
HETATM   32  C   UNL     1     -13.782   0.399 -33.971  1.00  0.00     0.409 C 
HETATM   33  F   UNL     1     -14.209   0.827 -32.762  1.00  0.00    -0.169 F 
HETATM   34  F   UNL     1     -14.866   0.433 -34.795  1.00  0.00    -0.169 F 
HETATM   35  F   UNL     1     -13.437  -0.901 -33.868  1.00  0.00    -0.169 F 
ENDBRANCH  29  32
ENDBRANCH   1  21
TORSDOF 8
ENDMDL
MODEL 7
REMARK VINA RESULT:      -7.9      6.134      8.798
REMARK  8 active torsions:
REMARK  status: ('A' for Active; 'I' for Inactive)
REMARK    1  A    between atoms: C_8  and  C_9 
REMARK       I    between atoms: C_9  and  N_10 
REMARK    2  A    between atoms: N_10  and  N_11 
REMARK    3  A    between atoms: N_11  and  C_12 
REMARK    4  A    between atoms: C_12  and  N_13 
REMARK    5  A    between atoms: N_13  and  C_14 
REMARK    6  A    between atoms: C_15  and  O_16 
REMARK    7  A    between atoms: C_19  and  O_20 
REMARK    8  A    between atoms: C_26  and  C_27 
ROOT
HETATM    1  C   UNL     1      -3.712   0.116 -31.405  1.00  0.00     0.275 C 
HETATM    2  N   UNL     1      -4.792   0.933 -31.131  1.00  0.00    -0.263 N 
HETATM    3  O   UNL     1      -2.576   0.365 -31.004  1.00  0.00    -0.266 OA
HETATM    4  H   UNL     1      -5.596   0.881 -31.757  1.00  0.00     0.190 HD
ENDROOT
BRANCH   2   5
HETATM    5  N   UNL     1      -4.557   2.194 -30.549  1.00  0.00    -0.273 N 
HETATM    6  H   UNL     1      -3.571   2.459 -30.507  1.00  0.00     0.189 HD
BRANCH   5   7
HETATM    7  C   UNL     1      -5.512   3.205 -30.676  1.00  0.00     0.191 C 
HETATM    8  S   UNL     1      -7.060   3.059 -30.040  1.00  0.00    -0.039 SA
BRANCH   7   9
HETATM    9  N   UNL     1      -4.957   4.312 -31.294  1.00  0.00    -0.330 N 
HETATM   10  H   UNL     1      -5.101   4.355 -32.299  1.00  0.00     0.168 HD
BRANCH   9  11
HETATM   11  C   UNL     1      -3.970   5.224 -30.849  1.00  0.00     0.068 A 
HETATM   12  C   UNL     1      -2.673   5.083 -31.387  1.00  0.00     0.097 A 
HETATM   13  C   UNL     1      -1.652   5.962 -31.000  1.00  0.00     0.075 A 
HETATM   14  C   UNL     1      -1.918   6.988 -30.091  1.00  0.00     0.070 A 
HETATM   15  C   UNL     1      -3.212   7.147 -29.595  1.00  0.00     0.039 A 
HETATM   16  C   UNL     1      -4.235   6.276 -29.974  1.00  0.00     0.035 A 
BRANCH  12  17
HETATM   17  O   UNL     1      -2.520   4.045 -32.280  1.00  0.00    -0.354 OA
HETATM   18  C   UNL     1      -2.207   4.387 -33.626  1.00  0.00     0.210 C 
ENDBRANCH  12  17
BRANCH  14  19
HETATM   19  O   UNL     1      -1.019   7.909 -29.629  1.00  0.00    -0.356 OA
HETATM   20  C   UNL     1      -1.548   9.070 -29.000  1.00  0.00     0.210 C 
ENDBRANCH  14  19
ENDBRANCH   9  11
ENDBRANCH   7   9
ENDBRANCH   5   7
ENDBRANCH   2   5
BRANCH   1  21
HETATM   21  C   UNL     1      -4.020  -1.015 -32.256  1.00  0.00     0.098 A 
HETATM   22  C   UNL     1      -4.959  -1.128 -33.266  1.00  0.00     0.138 A 
HETATM   23  N   UNL     1      -5.907  -0.297 -33.764  1.00  0.00    -0.370 N 
HETATM   24  N   UNL     1      -4.818  -2.400 -33.772  1.00  0.00    -0.240 N 
HETATM   25  C   UNL     1      -6.538  -0.588 -35.048  1.00  0.00     0.081 C 
HETATM   26  H   UNL     1      -6.174   0.579 -33.314  1.00  0.00     0.161 HD
HETATM   27  C   UNL     1      -7.801   0.252 -35.200  1.00  0.00     0.032 C 
HETATM   28  C   UNL     1      -6.855  -2.083 -35.116  1.00  0.00     0.061 C 
HETATM   29  C   UNL     1      -5.580  -2.923 -34.894  1.00  0.00     0.221 C 
HETATM   30  N   UNL     1      -3.822  -3.097 -33.203  1.00  0.00    -0.181 NA
HETATM   31  C   UNL     1      -3.374  -2.274 -32.251  1.00  0.00     0.160 A 
BRANCH  29  32
HETATM   32  C   UNL     1      -5.958  -4.377 -34.708  1.00  0.00     0.409 C 
HETATM   33  F   UNL     1      -7.159  -4.528 -34.105  1.00  0.00    -0.169 F 
HETATM   34  F   UNL     1      -6.064  -4.974 -35.928  1.00  0.00    -0.169 F 
HETATM   35  F   UNL     1      -5.042  -5.093 -34.025  1.00  0.00    -0.169 F 
ENDBRANCH  29  32
ENDBRANCH   1  21
TORSDOF 8
ENDMDL
MODEL 8
REMARK VINA RESULT:      -7.9      6.705      9.666
REMARK  8 active torsions:
REMARK  status: ('A' for Active; 'I' for Inactive)
REMARK    1  A    between atoms: C_8  and  C_9 
REMARK       I    between atoms: C_9  and  N_10 
REMARK    2  A    between atoms: N_10  and  N_11 
REMARK    3  A    between atoms: N_11  and  C_12 
REMARK    4  A    between atoms: C_12  and  N_13 
REMARK    5  A    between atoms: N_13  and  C_14 
REMARK    6  A    between atoms: C_15  and  O_16 
REMARK    7  A    between atoms: C_19  and  O_20 
REMARK    8  A    between atoms: C_26  and  C_27 
ROOT
HETATM    1  C   UNL     1      -4.146   3.711 -31.981  1.00  0.00     0.275 C 
HETATM    2  N   UNL     1      -5.262   3.326 -31.262  1.00  0.00    -0.263 N 
HETATM    3  O   UNL     1      -3.555   2.949 -32.745  1.00  0.00    -0.266 OA
HETATM    4  H   UNL     1      -5.484   3.849 -30.416  1.00  0.00     0.190 HD
ENDROOT
BRANCH   2   5
HETATM    5  N   UNL     1      -5.617   1.962 -31.244  1.00  0.00    -0.273 N 
HETATM    6  H   UNL     1      -5.525   1.518 -30.328  1.00  0.00     0.189 HD
BRANCH   5   7
HETATM    7  C   UNL     1      -6.599   1.491 -32.118  1.00  0.00     0.191 C 
HETATM    8  S   UNL     1      -8.240   1.664 -31.800  1.00  0.00    -0.039 SA
BRANCH   7   9
HETATM    9  N   UNL     1      -6.013   0.977 -33.262  1.00  0.00    -0.330 N 
HETATM   10  H   UNL     1      -5.850   1.659 -33.998  1.00  0.00     0.168 HD
BRANCH   9  11
HETATM   11  C   UNL     1      -5.885  -0.356 -33.720  1.00  0.00     0.068 A 
HETATM   12  C   UNL     1      -4.627  -0.974 -33.560  1.00  0.00     0.097 A 
HETATM   13  C   UNL     1      -4.437  -2.298 -33.979  1.00  0.00     0.075 A 
HETATM   14  C   UNL     1      -5.495  -3.014 -34.543  1.00  0.00     0.070 A 
HETATM   15  C   UNL     1      -6.747  -2.410 -34.660  1.00  0.00     0.039 A 
HETATM   16  C   UNL     1      -6.945  -1.091 -34.247  1.00  0.00     0.035 A 
BRANCH  12  17
HETATM   17  O   UNL     1      -3.656  -0.184 -32.986  1.00  0.00    -0.354 OA
HETATM   18  C   UNL     1      -3.129  -0.609 -31.734  1.00  0.00     0.210 C 
ENDBRANCH  12  17
BRANCH  14  19
HETATM   19  O   UNL     1      -5.446  -4.305 -34.993  1.00  0.00    -0.356 OA
HETATM   20  C   UNL     1      -4.641  -5.216 -34.256  1.00  0.00     0.210 C 
ENDBRANCH  14  19
ENDBRANCH   9  11
ENDBRANCH   7   9
ENDBRANCH   5   7
ENDBRANCH   2   5
BRANCH   1  21
HETATM   21  C   UNL     1      -3.697   5.060 -31.707  1.00  0.00     0.098 A 
HETATM   22  C   UNL     1      -2.490   5.501 -31.196  1.00  0.00     0.138 A 
HETATM   23  N   UNL     1      -1.376   4.874 -30.745  1.00  0.00    -0.370 N 
HETATM   24  N   UNL     1      -2.571   6.875 -31.164  1.00  0.00    -0.240 N 
HETATM   25  C   UNL     1      -0.135   5.621 -30.560  1.00  0.00     0.081 C 
HETATM   26  H   UNL     1      -1.330   3.868 -30.579  1.00  0.00     0.161 HD
HETATM   27  C   UNL     1       0.830   4.807 -29.705  1.00  0.00     0.032 C 
HETATM   28  C   UNL     1      -0.460   6.963 -29.902  1.00  0.00     0.061 C 
HETATM   29  C   UNL     1      -1.488   7.748 -30.741  1.00  0.00     0.221 C 
HETATM   30  N   UNL     1      -3.718   7.356 -31.667  1.00  0.00    -0.181 NA
HETATM   31  C   UNL     1      -4.418   6.254 -31.949  1.00  0.00     0.160 A 
BRANCH  29  32
HETATM   32  C   UNL     1      -1.984   8.940 -29.949  1.00  0.00     0.409 C 
HETATM   33  F   UNL     1      -1.092   9.354 -29.021  1.00  0.00    -0.169 F 
HETATM   34  F   UNL     1      -2.177   9.992 -30.793  1.00  0.00    -0.169 F 
HETATM   35  F   UNL     1      -3.170   8.732 -29.341  1.00  0.00    -0.169 F 
ENDBRANCH  29  32
ENDBRANCH   1  21
TORSDOF 8
ENDMDL
MODEL 9
REMARK VINA RESULT:      -7.8      5.404      8.934
REMARK  8 active torsions:
REMARK  status: ('A' for Active; 'I' for Inactive)
REMARK    1  A    between atoms: C_8  and  C_9 
REMARK       I    between atoms: C_9  and  N_10 
REMARK    2  A    between atoms: N_10  and  N_11 
REMARK    3  A    between atoms: N_11  and  C_12 
REMARK    4  A    between atoms: C_12  and  N_13 
REMARK    5  A    between atoms: N_13  and  C_14 
REMARK    6  A    between atoms: C_15  and  O_16 
REMARK    7  A    between atoms: C_19  and  O_20 
REMARK    8  A    between atoms: C_26  and  C_27 
ROOT
HETATM    1  C   UNL     1      -6.748   4.438 -33.881  1.00  0.00     0.275 C 
HETATM    2  N   UNL     1      -6.865   3.098 -33.563  1.00  0.00    -0.263 N 
HETATM    3  O   UNL     1      -7.697   5.108 -34.283  1.00  0.00    -0.266 OA
HETATM    4  H   UNL     1      -6.018   2.531 -33.584  1.00  0.00     0.190 HD
ENDROOT
BRANCH   2   5
HETATM    5  N   UNL     1      -8.056   2.425 -33.899  1.00  0.00    -0.273 N 
HETATM    6  H   UNL     1      -8.338   2.534 -34.875  1.00  0.00     0.189 HD
BRANCH   5   7
HETATM    7  C   UNL     1      -8.393   1.243 -33.237  1.00  0.00     0.191 C 
HETATM    8  S   UNL     1      -9.968   0.657 -33.196  1.00  0.00    -0.039 SA
BRANCH   7   9
HETATM    9  N   UNL     1      -7.255   0.632 -32.738  1.00  0.00    -0.330 N 
HETATM   10  H   UNL     1      -6.766   1.165 -32.024  1.00  0.00     0.168 HD
BRANCH   9  11
HETATM   11  C   UNL     1      -6.476  -0.434 -33.248  1.00  0.00     0.068 A 
HETATM   12  C   UNL     1      -5.204  -0.636 -32.671  1.00  0.00     0.097 A 
HETATM   13  C   UNL     1      -4.388  -1.683 -33.120  1.00  0.00     0.075 A 
HETATM   14  C   UNL     1      -4.835  -2.537 -34.130  1.00  0.00     0.070 A 
HETATM   15  C   UNL     1      -6.109  -2.357 -34.668  1.00  0.00     0.039 A 
HETATM   16  C   UNL     1      -6.929  -1.316 -34.228  1.00  0.00     0.035 A 
BRANCH  12  17
HETATM   17  O   UNL     1      -4.865   0.256 -31.678  1.00  0.00    -0.354 OA
HETATM   18  C   UNL     1      -3.634   0.034 -30.999  1.00  0.00     0.210 C 
ENDBRANCH  12  17
BRANCH  14  19
HETATM   19  O   UNL     1      -4.143  -3.591 -34.660  1.00  0.00    -0.356 OA
HETATM   20  C   UNL     1      -3.650  -4.564 -33.748  1.00  0.00     0.210 C 
ENDBRANCH  14  19
ENDBRANCH   9  11
ENDBRANCH   7   9
ENDBRANCH   5   7
ENDBRANCH   2   5
BRANCH   1  21
HETATM   21  C   UNL     1      -5.403   4.963 -33.765  1.00  0.00     0.098 A 
HETATM   22  C   UNL     1      -4.771   5.537 -32.676  1.00  0.00     0.138 A 
HETATM   23  N   UNL     1      -5.166   5.846 -31.417  1.00  0.00    -0.370 N 
HETATM   24  N   UNL     1      -3.493   5.834 -33.094  1.00  0.00    -0.240 N 
HETATM   25  C   UNL     1      -4.176   6.159 -30.392  1.00  0.00     0.081 C 
HETATM   26  H   UNL     1      -6.140   5.814 -31.114  1.00  0.00     0.161 HD
HETATM   27  C   UNL     1      -4.859   6.830 -29.206  1.00  0.00     0.032 C 
HETATM   28  C   UNL     1      -3.104   7.066 -30.999  1.00  0.00     0.061 C 
HETATM   29  C   UNL     1      -2.466   6.405 -32.238  1.00  0.00     0.221 C 
HETATM   30  N   UNL     1      -3.236   5.444 -34.352  1.00  0.00    -0.181 NA
HETATM   31  C   UNL     1      -4.408   4.963 -34.772  1.00  0.00     0.160 A 
BRANCH  29  32
HETATM   32  C   UNL     1      -1.607   7.417 -32.966  1.00  0.00     0.409 C 
HETATM   33  F   UNL     1      -2.111   7.754 -34.174  1.00  0.00    -0.169 F 
HETATM   34  F   UNL     1      -1.554   8.568 -32.238  1.00  0.00    -0.169 F 
HETATM   35  F   UNL     1      -0.327   7.025 -33.129  1.00  0.00    -0.169 F 
ENDBRANCH  29  32
ENDBRANCH   1  21
TORSDOF 8
ENDMDL
MODEL 10
REMARK VINA RESULT:      -7.8      2.269      3.124
REMARK  8 active torsions:
REMARK  status: ('A' for Active; 'I' for Inactive)
REMARK    1  A    between atoms: C_8  and  C_9 
REMARK       I    between atoms: C_9  and  N_10 
REMARK    2  A    between atoms: N_10  and  N_11 
REMARK    3  A    between atoms: N_11  and  C_12 
REMARK    4  A    between atoms: C_12  and  N_13 
REMARK    5  A    between atoms: N_13  and  C_14 
REMARK    6  A    between atoms: C_15  and  O_16 
REMARK    7  A    between atoms: C_19  and  O_20 
REMARK    8  A    between atoms: C_26  and  C_27 
ROOT
HETATM    1  C   UNL     1      -9.022   2.366 -31.396  1.00  0.00     0.275 C 
HETATM    2  N   UNL     1     -10.394   2.515 -31.454  1.00  0.00    -0.263 N 
HETATM    3  O   UNL     1      -8.291   3.178 -30.832  1.00  0.00    -0.266 OA
HETATM    4  H   UNL     1     -10.892   2.036 -32.203  1.00  0.00     0.190 HD
ENDROOT
BRANCH   2   5
HETATM    5  N   UNL     1     -10.960   3.735 -31.032  1.00  0.00    -0.273 N 
HETATM    6  H   UNL     1     -10.712   4.005 -30.079  1.00  0.00     0.189 HD
BRANCH   5   7
HETATM    7  C   UNL     1     -11.208   4.743 -31.966  1.00  0.00     0.191 C 
HETATM    8  S   UNL     1     -10.324   6.172 -31.998  1.00  0.00    -0.039 SA
BRANCH   7   9
HETATM    9  N   UNL     1     -12.182   4.335 -32.862  1.00  0.00    -0.330 N 
HETATM   10  H   UNL     1     -12.029   4.637 -33.820  1.00  0.00     0.168 HD
BRANCH   9  11
HETATM   11  C   UNL     1     -13.495   3.853 -32.647  1.00  0.00     0.068 A 
HETATM   12  C   UNL     1     -13.719   2.477 -32.867  1.00  0.00     0.097 A 
HETATM   13  C   UNL     1     -14.993   1.932 -32.659  1.00  0.00     0.075 A 
HETATM   14  C   UNL     1     -16.041   2.744 -32.221  1.00  0.00     0.070 A 
HETATM   15  C   UNL     1     -15.802   4.095 -31.966  1.00  0.00     0.039 A 
HETATM   16  C   UNL     1     -14.537   4.647 -32.172  1.00  0.00     0.035 A 
BRANCH  12  17
HETATM   17  O   UNL     1     -12.618   1.765 -33.289  1.00  0.00    -0.354 OA
HETATM   18  C   UNL     1     -12.802   0.871 -34.381  1.00  0.00     0.210 C 
ENDBRANCH  12  17
BRANCH  14  19
HETATM   19  O   UNL     1     -17.327   2.343 -31.981  1.00  0.00    -0.356 OA
HETATM   20  C   UNL     1     -18.316   3.362 -31.896  1.00  0.00     0.210 C 
ENDBRANCH  14  19
ENDBRANCH   9  11
ENDBRANCH   7   9
ENDBRANCH   5   7
ENDBRANCH   2   5
BRANCH   1  21
HETATM   21  C   UNL     1      -8.518   1.212 -32.112  1.00  0.00     0.098 A 
HETATM   22  C   UNL     1      -7.238   0.688 -32.151  1.00  0.00     0.138 A 
HETATM   23  N   UNL     1      -6.052   1.066 -31.612  1.00  0.00    -0.370 N 
HETATM   24  N   UNL     1      -7.309  -0.427 -32.955  1.00  0.00    -0.240 N 
HETATM   25  C   UNL     1      -4.932   0.130 -31.573  1.00  0.00     0.081 C 
HETATM   26  H   UNL     1      -5.906   1.970 -31.163  1.00  0.00     0.161 HD
HETATM   27  C   UNL     1      -3.641   0.889 -31.286  1.00  0.00     0.032 C 
HETATM   28  C   UNL     1      -4.855  -0.607 -32.912  1.00  0.00     0.061 C 
HETATM   29  C   UNL     1      -6.189  -1.314 -33.223  1.00  0.00     0.221 C 
HETATM   30  N   UNL     1      -8.550  -0.694 -33.392  1.00  0.00    -0.181 NA
HETATM   31  C   UNL     1      -9.270   0.328 -32.921  1.00  0.00     0.160 A 
BRANCH  29  32
HETATM   32  C   UNL     1      -6.177  -1.810 -34.654  1.00  0.00     0.409 C 
HETATM   33  F   UNL     1      -7.117  -2.754 -34.885  1.00  0.00    -0.169 F 
HETATM   34  F   UNL     1      -6.461  -0.774 -35.492  1.00  0.00    -0.169 F 
HETATM   35  F   UNL     1      -4.981  -2.289 -35.052  1.00  0.00    -0.169 F 
ENDBRANCH  29  32
ENDBRANCH   1  21
TORSDOF 8
ENDMDL
