MODEL 1
REMARK VINA RESULT:      -9.4      0.000      0.000
REMARK  4 active torsions:
REMARK  status: ('A' for Active; 'I' for Inactive)
REMARK    1  A    between atoms: N_8  and  C_9 
REMARK    2  A    between atoms: C_19  and  C_20 
REMARK    3  A    between atoms: C_20  and  C_21 
REMARK    4  A    between atoms: C_24  and  C_25 
ROOT
HETATM    1  C   UNL     1      -5.914   0.826 -30.023  1.00  0.00     0.069 C 
HETATM    2  C   UNL     1      -6.810   1.624 -30.936  1.00  0.00     0.017 C 
HETATM    3  N   UNL     1      -8.013   2.022 -30.366  1.00  0.00    -0.348 N 
HETATM    4  C   UNL     1      -9.004   2.614 -31.097  1.00  0.00     0.119 A 
HETATM    5  C   UNL     1      -8.798   2.984 -32.369  1.00  0.00     0.124 A 
HETATM    6  C   UNL     1     -10.026   3.649 -32.828  1.00  0.00     0.280 A 
HETATM    7  O   UNL     1     -10.195   4.125 -33.937  1.00  0.00    -0.265 OA
HETATM    8  N   UNL     1     -10.906   3.594 -31.735  1.00  0.00    -0.236 N 
HETATM    9  N   UNL     1     -10.280   2.924 -30.662  1.00  0.00    -0.179 NA
HETATM   10  C   UNL     1      -7.507   2.743 -33.012  1.00  0.00     0.199 C 
HETATM   11  O   UNL     1      -7.240   3.184 -34.124  1.00  0.00    -0.287 OA
HETATM   12  C   UNL     1      -6.507   1.924 -32.225  1.00  0.00     0.020 C 
HETATM   13  H   UNL     1      -8.291   1.583 -29.494  1.00  0.00     0.167 HD
HETATM   14  H   UNL     1     -10.235   3.500 -29.821  1.00  0.00     0.155 HD
ENDROOT
BRANCH  12  15
HETATM   15  C   UNL     1      -5.267   1.518 -32.986  1.00  0.00     0.083 C 
BRANCH  15  16
HETATM   16  C   UNL     1      -5.329   0.077 -33.447  1.00  0.00    -0.054 A 
HETATM   17  C   UNL     1      -4.299  -0.815 -33.125  1.00  0.00     0.008 A 
HETATM   18  C   UNL     1      -4.310  -2.125 -33.611  1.00  0.00     0.008 A 
HETATM   19  C   UNL     1      -5.354  -2.576 -34.431  1.00  0.00    -0.055 A 
HETATM   20  C   UNL     1      -6.394  -1.687 -34.737  1.00  0.00     0.008 A 
HETATM   21  C   UNL     1      -6.381  -0.376 -34.251  1.00  0.00     0.008 A 
BRANCH  19  22
HETATM   22  C   UNL     1      -5.325  -3.992 -34.977  1.00  0.00     0.010 C 
HETATM   23  C   UNL     1      -4.484  -4.922 -34.099  1.00  0.00     0.015 C 
HETATM   24  C   UNL     1      -6.741  -4.545 -35.160  1.00  0.00     0.015 C 
ENDBRANCH  19  22
ENDBRANCH  15  16
ENDBRANCH  12  15
BRANCH   8  25
HETATM   25  C   UNL     1     -12.252   4.009 -31.639  1.00  0.00     0.055 A 
HETATM   26  C   UNL     1     -12.620   5.105 -30.846  1.00  0.00     0.034 A 
HETATM   27  C   UNL     1     -13.957   5.509 -30.754  1.00  0.00     0.044 A 
HETATM   28  C   UNL     1     -14.932   4.819 -31.459  1.00  0.00     0.116 A 
HETATM   29  F   UNL     1     -16.211   5.206 -31.374  1.00  0.00    -0.206 F 
HETATM   30  C   UNL     1     -14.597   3.734 -32.256  1.00  0.00     0.044 A 
HETATM   31  C   UNL     1     -13.261   3.330 -32.346  1.00  0.00     0.034 A 
ENDBRANCH   8  25
TORSDOF 4
ENDMDL
MODEL 2
REMARK VINA RESULT:      -8.8      1.476      2.263
REMARK  4 active torsions:
REMARK  status: ('A' for Active; 'I' for Inactive)
REMARK    1  A    between atoms: N_8  and  C_9 
REMARK    2  A    between atoms: C_19  and  C_20 
REMARK    3  A    between atoms: C_20  and  C_21 
REMARK    4  A    between atoms: C_24  and  C_25 
ROOT
HETATM    1  C   UNL     1      -7.482   2.687 -30.567  1.00  0.00     0.069 C 
HETATM    2  C   UNL     1      -8.591   3.020 -31.532  1.00  0.00     0.017 C 
HETATM    3  N   UNL     1      -9.844   3.166 -30.949  1.00  0.00    -0.348 N 
HETATM    4  C   UNL     1     -10.980   3.313 -31.693  1.00  0.00     0.119 A 
HETATM    5  C   UNL     1     -10.919   3.483 -33.021  1.00  0.00     0.124 A 
HETATM    6  C   UNL     1     -12.297   3.683 -33.493  1.00  0.00     0.280 A 
HETATM    7  O   UNL     1     -12.622   3.879 -34.651  1.00  0.00    -0.265 OA
HETATM    8  N   UNL     1     -13.098   3.589 -32.343  1.00  0.00    -0.236 N 
HETATM    9  N   UNL     1     -12.281   3.330 -31.222  1.00  0.00    -0.179 NA
HETATM   10  C   UNL     1      -9.630   3.497 -33.710  1.00  0.00     0.199 C 
HETATM   11  O   UNL     1      -9.527   3.781 -34.898  1.00  0.00    -0.287 OA
HETATM   12  C   UNL     1      -8.417   3.149 -32.872  1.00  0.00     0.020 C 
HETATM   13  H   UNL     1      -9.963   2.837 -29.996  1.00  0.00     0.167 HD
HETATM   14  H   UNL     1     -12.383   4.042 -30.497  1.00  0.00     0.155 HD
ENDROOT
BRANCH  12  15
HETATM   15  C   UNL     1      -7.132   2.971 -33.644  1.00  0.00     0.083 C 
BRANCH  15  16
HETATM   16  C   UNL     1      -6.816   1.511 -33.894  1.00  0.00    -0.054 A 
HETATM   17  C   UNL     1      -5.736   0.899 -33.244  1.00  0.00     0.008 A 
HETATM   18  C   UNL     1      -5.391  -0.425 -33.526  1.00  0.00     0.008 A 
HETATM   19  C   UNL     1      -6.117  -1.171 -34.464  1.00  0.00    -0.055 A 
HETATM   20  C   UNL     1      -7.209  -0.563 -35.099  1.00  0.00     0.008 A 
HETATM   21  C   UNL     1      -7.554   0.763 -34.818  1.00  0.00     0.008 A 
BRANCH  19  22
HETATM   22  C   UNL     1      -5.700  -2.596 -34.780  1.00  0.00     0.010 C 
HETATM   23  C   UNL     1      -4.491  -3.031 -33.950  1.00  0.00     0.015 C 
HETATM   24  C   UNL     1      -6.868  -3.569 -34.598  1.00  0.00     0.015 C 
ENDBRANCH  19  22
ENDBRANCH  15  16
ENDBRANCH  12  15
BRANCH   8  25
HETATM   25  C   UNL     1     -14.504   3.623 -32.217  1.00  0.00     0.055 A 
HETATM   26  C   UNL     1     -15.191   4.835 -32.064  1.00  0.00     0.034 A 
HETATM   27  C   UNL     1     -16.584   4.861 -31.938  1.00  0.00     0.044 A 
HETATM   28  C   UNL     1     -17.298   3.672 -31.969  1.00  0.00     0.116 A 
HETATM   29  F   UNL     1     -18.632   3.695 -31.850  1.00  0.00    -0.206 F 
HETATM   30  C   UNL     1     -16.646   2.457 -32.124  1.00  0.00     0.044 A 
HETATM   31  C   UNL     1     -15.253   2.432 -32.248  1.00  0.00     0.034 A 
ENDBRANCH   8  25
TORSDOF 4
ENDMDL
MODEL 3
REMARK VINA RESULT:      -8.7      6.188      8.638
REMARK  4 active torsions:
REMARK  status: ('A' for Active; 'I' for Inactive)
REMARK    1  A    between atoms: N_8  and  C_9 
REMARK    2  A    between atoms: C_19  and  C_20 
REMARK    3  A    between atoms: C_20  and  C_21 
REMARK    4  A    between atoms: C_24  and  C_25 
ROOT
HETATM    1  C   UNL     1      -1.472   5.738 -34.418  1.00  0.00     0.069 C 
HETATM    2  C   UNL     1      -2.719   5.584 -33.585  1.00  0.00     0.017 C 
HETATM    3  N   UNL     1      -3.447   4.428 -33.838  1.00  0.00    -0.348 N 
HETATM    4  C   UNL     1      -4.678   4.208 -33.288  1.00  0.00     0.119 A 
HETATM    5  C   UNL     1      -5.172   5.027 -32.349  1.00  0.00     0.124 A 
HETATM    6  C   UNL     1      -6.463   4.467 -31.924  1.00  0.00     0.280 A 
HETATM    7  O   UNL     1      -7.192   4.946 -31.073  1.00  0.00    -0.265 OA
HETATM    8  N   UNL     1      -6.638   3.313 -32.705  1.00  0.00    -0.236 N 
HETATM    9  N   UNL     1      -5.538   3.164 -33.576  1.00  0.00    -0.179 NA
HETATM   10  C   UNL     1      -4.409   6.193 -31.904  1.00  0.00     0.199 C 
HETATM   11  O   UNL     1      -4.768   6.886 -30.960  1.00  0.00    -0.287 OA
HETATM   12  C   UNL     1      -3.138   6.496 -32.671  1.00  0.00     0.020 C 
HETATM   13  H   UNL     1      -3.223   3.903 -34.677  1.00  0.00     0.167 HD
HETATM   14  H   UNL     1      -5.063   2.270 -33.448  1.00  0.00     0.155 HD
ENDROOT
BRANCH  12  15
HETATM   15  C   UNL     1      -2.480   7.811 -32.328  1.00  0.00     0.083 C 
BRANCH  15  16
HETATM   16  C   UNL     1      -1.567   7.693 -31.126  1.00  0.00    -0.054 A 
HETATM   17  C   UNL     1      -1.864   8.377 -29.940  1.00  0.00     0.008 A 
HETATM   18  C   UNL     1      -0.989   8.336 -28.853  1.00  0.00     0.008 A 
HETATM   19  C   UNL     1       0.207   7.608 -28.923  1.00  0.00    -0.055 A 
HETATM   20  C   UNL     1       0.495   6.909 -30.103  1.00  0.00     0.008 A 
HETATM   21  C   UNL     1      -0.381   6.951 -31.192  1.00  0.00     0.008 A 
BRANCH  19  22
HETATM   22  C   UNL     1       1.160   7.609 -27.741  1.00  0.00     0.010 C 
HETATM   23  C   UNL     1       1.751   8.997 -27.489  1.00  0.00     0.015 C 
HETATM   24  C   UNL     1       0.479   7.067 -26.480  1.00  0.00     0.015 C 
ENDBRANCH  19  22
ENDBRANCH  15  16
ENDBRANCH  12  15
BRANCH   8  25
HETATM   25  C   UNL     1      -7.736   2.428 -32.773  1.00  0.00     0.055 A 
HETATM   26  C   UNL     1      -7.927   1.429 -31.808  1.00  0.00     0.034 A 
HETATM   27  C   UNL     1      -9.016   0.554 -31.884  1.00  0.00     0.044 A 
HETATM   28  C   UNL     1      -9.925   0.679 -32.924  1.00  0.00     0.116 A 
HETATM   29  F   UNL     1     -10.970  -0.156 -32.997  1.00  0.00    -0.206 F 
HETATM   30  C   UNL     1      -9.766   1.662 -33.890  1.00  0.00     0.044 A 
HETATM   31  C   UNL     1      -8.675   2.534 -33.815  1.00  0.00     0.034 A 
ENDBRANCH   8  25
TORSDOF 4
ENDMDL
MODEL 4
REMARK VINA RESULT:      -8.7      7.376      9.788
REMARK  4 active torsions:
REMARK  status: ('A' for Active; 'I' for Inactive)
REMARK    1  A    between atoms: N_8  and  C_9 
REMARK    2  A    between atoms: C_19  and  C_20 
REMARK    3  A    between atoms: C_20  and  C_21 
REMARK    4  A    between atoms: C_24  and  C_25 
ROOT
HETATM    1  C   UNL     1      -1.997   5.040 -35.014  1.00  0.00     0.069 C 
HETATM    2  C   UNL     1      -2.304   5.598 -33.647  1.00  0.00     0.017 C 
HETATM    3  N   UNL     1      -1.189   5.977 -32.910  1.00  0.00    -0.348 N 
HETATM    4  C   UNL     1      -1.276   6.354 -31.600  1.00  0.00     0.119 A 
HETATM    5  C   UNL     1      -2.466   6.528 -31.009  1.00  0.00     0.124 A 
HETATM    6  C   UNL     1      -2.203   7.001 -29.642  1.00  0.00     0.280 A 
HETATM    7  O   UNL     1      -3.055   7.273 -28.815  1.00  0.00    -0.265 OA
HETATM    8  N   UNL     1      -0.803   7.048 -29.532  1.00  0.00    -0.236 N 
HETATM    9  N   UNL     1      -0.223   6.618 -30.744  1.00  0.00    -0.179 NA
HETATM   10  C   UNL     1      -3.705   6.300 -31.751  1.00  0.00     0.199 C 
HETATM   11  O   UNL     1      -4.805   6.575 -31.286  1.00  0.00    -0.287 OA
HETATM   12  C   UNL     1      -3.558   5.709 -33.137  1.00  0.00     0.020 C 
HETATM   13  H   UNL     1      -0.280   5.663 -33.234  1.00  0.00     0.167 HD
HETATM   14  H   UNL     1       0.392   7.326 -31.149  1.00  0.00     0.155 HD
ENDROOT
BRANCH  12  15
HETATM   15  C   UNL     1      -4.850   5.295 -33.800  1.00  0.00     0.083 C 
BRANCH  15  16
HETATM   16  C   UNL     1      -5.189   3.844 -33.527  1.00  0.00    -0.054 A 
HETATM   17  C   UNL     1      -4.394   3.081 -32.663  1.00  0.00     0.008 A 
HETATM   18  C   UNL     1      -4.654   1.723 -32.465  1.00  0.00     0.008 A 
HETATM   19  C   UNL     1      -5.718   1.093 -33.127  1.00  0.00    -0.055 A 
HETATM   20  C   UNL     1      -6.524   1.863 -33.976  1.00  0.00     0.008 A 
HETATM   21  C   UNL     1      -6.263   3.222 -34.175  1.00  0.00     0.008 A 
BRANCH  19  22
HETATM   22  C   UNL     1      -5.958  -0.392 -32.924  1.00  0.00     0.010 C 
HETATM   23  C   UNL     1      -6.645  -1.027 -34.134  1.00  0.00     0.015 C 
HETATM   24  C   UNL     1      -4.655  -1.123 -32.588  1.00  0.00     0.015 C 
ENDBRANCH  19  22
ENDBRANCH  15  16
ENDBRANCH  12  15
BRANCH   8  25
HETATM   25  C   UNL     1       0.004   7.354 -28.415  1.00  0.00     0.055 A 
HETATM   26  C   UNL     1       0.992   8.347 -28.481  1.00  0.00     0.034 A 
HETATM   27  C   UNL     1       1.789   8.643 -27.370  1.00  0.00     0.044 A 
HETATM   28  C   UNL     1       1.599   7.949 -26.184  1.00  0.00     0.116 A 
HETATM   29  F   UNL     1       2.360   8.233 -25.119  1.00  0.00    -0.206 F 
HETATM   30  C   UNL     1       0.626   6.966 -26.087  1.00  0.00     0.044 A 
HETATM   31  C   UNL     1      -0.170   6.669 -27.198  1.00  0.00     0.034 A 
ENDBRANCH   8  25
TORSDOF 4
ENDMDL
MODEL 5
REMARK VINA RESULT:      -8.7      3.477      3.961
REMARK  4 active torsions:
REMARK  status: ('A' for Active; 'I' for Inactive)
REMARK    1  A    between atoms: N_8  and  C_9 
REMARK    2  A    between atoms: C_19  and  C_20 
REMARK    3  A    between atoms: C_20  and  C_21 
REMARK    4  A    between atoms: C_24  and  C_25 
ROOT
HETATM    1  C   UNL     1      -5.542   3.198 -32.577  1.00  0.00     0.069 C 
HETATM    2  C   UNL     1      -6.959   3.247 -33.090  1.00  0.00     0.017 C 
HETATM    3  N   UNL     1      -7.274   4.387 -33.819  1.00  0.00    -0.348 N 
HETATM    4  C   UNL     1      -8.549   4.664 -34.221  1.00  0.00     0.119 A 
HETATM    5  C   UNL     1      -9.533   3.766 -34.067  1.00  0.00     0.124 A 
HETATM    6  C   UNL     1     -10.743   4.347 -34.667  1.00  0.00     0.280 A 
HETATM    7  O   UNL     1     -11.832   3.803 -34.719  1.00  0.00    -0.265 OA
HETATM    8  N   UNL     1     -10.353   5.614 -35.130  1.00  0.00    -0.236 N 
HETATM    9  N   UNL     1      -8.991   5.826 -34.828  1.00  0.00    -0.179 NA
HETATM   10  C   UNL     1      -9.265   2.470 -33.445  1.00  0.00     0.199 C 
HETATM   11  O   UNL     1     -10.105   1.579 -33.408  1.00  0.00    -0.287 OA
HETATM   12  C   UNL     1      -7.884   2.283 -32.853  1.00  0.00     0.020 C 
HETATM   13  H   UNL     1      -6.631   5.171 -33.771  1.00  0.00     0.167 HD
HETATM   14  H   UNL     1      -8.437   6.019 -35.663  1.00  0.00     0.155 HD
ENDROOT
BRANCH  12  15
HETATM   15  C   UNL     1      -7.699   1.022 -32.042  1.00  0.00     0.083 C 
BRANCH  15  16
HETATM   16  C   UNL     1      -7.021  -0.072 -32.839  1.00  0.00    -0.054 A 
HETATM   17  C   UNL     1      -7.707  -0.729 -33.868  1.00  0.00     0.008 A 
HETATM   18  C   UNL     1      -7.116  -1.791 -34.557  1.00  0.00     0.008 A 
HETATM   19  C   UNL     1      -5.822  -2.223 -34.234  1.00  0.00    -0.055 A 
HETATM   20  C   UNL     1      -5.130  -1.552 -33.216  1.00  0.00     0.008 A 
HETATM   21  C   UNL     1      -5.722  -0.490 -32.526  1.00  0.00     0.008 A 
BRANCH  19  22
HETATM   22  C   UNL     1      -5.216  -3.402 -34.972  1.00  0.00     0.010 C 
HETATM   23  C   UNL     1      -4.068  -4.036 -34.184  1.00  0.00     0.015 C 
HETATM   24  C   UNL     1      -6.282  -4.445 -35.321  1.00  0.00     0.015 C 
ENDBRANCH  19  22
ENDBRANCH  15  16
ENDBRANCH  12  15
BRANCH   8  25
HETATM   25  C   UNL     1     -11.128   6.637 -35.719  1.00  0.00     0.055 A 
HETATM   26  C   UNL     1     -10.526   7.731 -36.356  1.00  0.00     0.034 A 
HETATM   27  C   UNL     1     -11.301   8.743 -36.934  1.00  0.00     0.044 A 
HETATM   28  C   UNL     1     -12.684   8.661 -36.883  1.00  0.00     0.116 A 
HETATM   29  F   UNL     1     -13.428   9.627 -37.438  1.00  0.00    -0.206 F 
HETATM   30  C   UNL     1     -13.308   7.587 -36.265  1.00  0.00     0.044 A 
HETATM   31  C   UNL     1     -12.533   6.578 -35.685  1.00  0.00     0.034 A 
ENDBRANCH   8  25
TORSDOF 4
ENDMDL
MODEL 6
REMARK VINA RESULT:      -8.5      5.038      7.527
REMARK  4 active torsions:
REMARK  status: ('A' for Active; 'I' for Inactive)
REMARK    1  A    between atoms: N_8  and  C_9 
REMARK    2  A    between atoms: C_19  and  C_20 
REMARK    3  A    between atoms: C_20  and  C_21 
REMARK    4  A    between atoms: C_24  and  C_25 
ROOT
HETATM    1  C   UNL     1      -9.196   4.913 -34.571  1.00  0.00     0.069 C 
HETATM    2  C   UNL     1      -8.076   4.483 -33.657  1.00  0.00     0.017 C 
HETATM    3  N   UNL     1      -7.084   5.437 -33.467  1.00  0.00    -0.348 N 
HETATM    4  C   UNL     1      -5.925   5.159 -32.798  1.00  0.00     0.119 A 
HETATM    5  C   UNL     1      -5.761   3.994 -32.156  1.00  0.00     0.124 A 
HETATM    6  C   UNL     1      -4.452   4.051 -31.489  1.00  0.00     0.280 A 
HETATM    7  O   UNL     1      -3.974   3.166 -30.801  1.00  0.00    -0.265 OA
HETATM    8  N   UNL     1      -3.919   5.305 -31.830  1.00  0.00    -0.236 N 
HETATM    9  N   UNL     1      -4.825   5.987 -32.670  1.00  0.00    -0.179 NA
HETATM   10  C   UNL     1      -6.816   2.982 -32.171  1.00  0.00     0.199 C 
HETATM   11  O   UNL     1      -6.755   1.965 -31.489  1.00  0.00    -0.287 OA
HETATM   12  C   UNL     1      -8.001   3.260 -33.073  1.00  0.00     0.020 C 
HETATM   13  H   UNL     1      -7.066   6.233 -34.096  1.00  0.00     0.167 HD
HETATM   14  H   UNL     1      -5.106   6.889 -32.282  1.00  0.00     0.155 HD
ENDROOT
BRANCH  12  15
HETATM   15  C   UNL     1      -8.973   2.116 -33.228  1.00  0.00     0.083 C 
BRANCH  15  16
HETATM   16  C   UNL     1      -8.302   0.867 -33.761  1.00  0.00    -0.054 A 
HETATM   17  C   UNL     1      -8.433  -0.352 -33.085  1.00  0.00     0.008 A 
HETATM   18  C   UNL     1      -7.756  -1.491 -33.527  1.00  0.00     0.008 A 
HETATM   19  C   UNL     1      -6.930  -1.439 -34.658  1.00  0.00    -0.055 A 
HETATM   20  C   UNL     1      -6.816  -0.223 -35.346  1.00  0.00     0.008 A 
HETATM   21  C   UNL     1      -7.493   0.917 -34.902  1.00  0.00     0.008 A 
BRANCH  19  22
HETATM   22  C   UNL     1      -6.176  -2.681 -35.098  1.00  0.00     0.010 C 
HETATM   23  C   UNL     1      -4.758  -2.716 -34.525  1.00  0.00     0.015 C 
HETATM   24  C   UNL     1      -6.945  -3.954 -34.734  1.00  0.00     0.015 C 
ENDBRANCH  19  22
ENDBRANCH  15  16
ENDBRANCH  12  15
BRANCH   8  25
HETATM   25  C   UNL     1      -2.656   5.859 -31.532  1.00  0.00     0.055 A 
HETATM   26  C   UNL     1      -1.472   5.252 -31.975  1.00  0.00     0.034 A 
HETATM   27  C   UNL     1      -0.223   5.805 -31.674  1.00  0.00     0.044 A 
HETATM   28  C   UNL     1      -0.152   6.974 -30.930  1.00  0.00     0.116 A 
HETATM   29  F   UNL     1       1.043   7.507 -30.643  1.00  0.00    -0.206 F 
HETATM   30  C   UNL     1      -1.306   7.601 -30.483  1.00  0.00     0.044 A 
HETATM   31  C   UNL     1      -2.554   7.046 -30.783  1.00  0.00     0.034 A 
ENDBRANCH   8  25
TORSDOF 4
ENDMDL
MODEL 7
REMARK VINA RESULT:      -8.5      5.322      9.123
REMARK  4 active torsions:
REMARK  status: ('A' for Active; 'I' for Inactive)
REMARK    1  A    between atoms: N_8  and  C_9 
REMARK    2  A    between atoms: C_19  and  C_20 
REMARK    3  A    between atoms: C_20  and  C_21 
REMARK    4  A    between atoms: C_24  and  C_25 
ROOT
HETATM    1  C   UNL     1      -6.674   5.627 -33.449  1.00  0.00     0.069 C 
HETATM    2  C   UNL     1      -6.200   4.311 -32.887  1.00  0.00     0.017 C 
HETATM    3  N   UNL     1      -6.192   3.260 -33.796  1.00  0.00    -0.348 N 
HETATM    4  C   UNL     1      -5.942   1.972 -33.418  1.00  0.00     0.119 A 
HETATM    5  C   UNL     1      -5.535   1.684 -32.174  1.00  0.00     0.124 A 
HETATM    6  C   UNL     1      -5.287   0.235 -32.126  1.00  0.00     0.280 A 
HETATM    7  O   UNL     1      -4.895  -0.379 -31.150  1.00  0.00    -0.265 OA
HETATM    8  N   UNL     1      -5.606  -0.235 -33.410  1.00  0.00    -0.236 N 
HETATM    9  N   UNL     1      -6.041   0.843 -34.210  1.00  0.00    -0.179 NA
HETATM   10  C   UNL     1      -5.366   2.746 -31.182  1.00  0.00     0.199 C 
HETATM   11  O   UNL     1      -4.872   2.538 -30.080  1.00  0.00    -0.287 OA
HETATM   12  C   UNL     1      -5.829   4.128 -31.594  1.00  0.00     0.020 C 
HETATM   13  H   UNL     1      -6.689   3.389 -34.672  1.00  0.00     0.167 HD
HETATM   14  H   UNL     1      -5.473   0.952 -35.052  1.00  0.00     0.155 HD
ENDROOT
BRANCH  12  15
HETATM   15  C   UNL     1      -5.834   5.159 -30.491  1.00  0.00     0.083 C 
BRANCH  15  16
HETATM   16  C   UNL     1      -4.492   5.844 -30.346  1.00  0.00    -0.054 A 
HETATM   17  C   UNL     1      -3.493   5.656 -31.310  1.00  0.00     0.008 A 
HETATM   18  C   UNL     1      -2.227   6.222 -31.146  1.00  0.00     0.008 A 
HETATM   19  C   UNL     1      -1.927   6.991 -30.012  1.00  0.00    -0.055 A 
HETATM   20  C   UNL     1      -2.933   7.193 -29.058  1.00  0.00     0.008 A 
HETATM   21  C   UNL     1      -4.201   6.626 -29.222  1.00  0.00     0.008 A 
BRANCH  19  22
HETATM   22  C   UNL     1      -0.532   7.565 -29.839  1.00  0.00     0.010 C 
HETATM   23  C   UNL     1      -0.091   7.552 -28.374  1.00  0.00     0.015 C 
HETATM   24  C   UNL     1       0.482   6.833 -30.723  1.00  0.00     0.015 C 
ENDBRANCH  19  22
ENDBRANCH  15  16
ENDBRANCH  12  15
BRANCH   8  25
HETATM   25  C   UNL     1      -5.629  -1.557 -33.907  1.00  0.00     0.055 A 
HETATM   26  C   UNL     1      -4.452  -2.310 -34.025  1.00  0.00     0.034 A 
HETATM   27  C   UNL     1      -4.483  -3.618 -34.520  1.00  0.00     0.044 A 
HETATM   28  C   UNL     1      -5.694  -4.182 -34.896  1.00  0.00     0.116 A 
HETATM   29  F   UNL     1      -5.725  -5.435 -35.367  1.00  0.00    -0.206 F 
HETATM   30  C   UNL     1      -6.875  -3.462 -34.784  1.00  0.00     0.044 A 
HETATM   31  C   UNL     1      -6.843  -2.154 -34.291  1.00  0.00     0.034 A 
ENDBRANCH   8  25
TORSDOF 4
ENDMDL
MODEL 8
REMARK VINA RESULT:      -8.4      3.560      5.801
REMARK  4 active torsions:
REMARK  status: ('A' for Active; 'I' for Inactive)
REMARK    1  A    between atoms: N_8  and  C_9 
REMARK    2  A    between atoms: C_19  and  C_20 
REMARK    3  A    between atoms: C_20  and  C_21 
REMARK    4  A    between atoms: C_24  and  C_25 
ROOT
HETATM    1  C   UNL     1      -5.511   0.526 -29.611  1.00  0.00     0.069 C 
HETATM    2  C   UNL     1      -6.292   0.971 -30.821  1.00  0.00     0.017 C 
HETATM    3  N   UNL     1      -7.669   0.818 -30.713  1.00  0.00    -0.348 N 
HETATM    4  C   UNL     1      -8.509   1.023 -31.771  1.00  0.00     0.119 A 
HETATM    5  C   UNL     1      -8.057   1.539 -32.922  1.00  0.00     0.124 A 
HETATM    6  C   UNL     1      -9.219   1.698 -33.808  1.00  0.00     0.280 A 
HETATM    7  O   UNL     1      -9.185   2.151 -34.939  1.00  0.00    -0.265 OA
HETATM    8  N   UNL     1     -10.313   1.218 -33.070  1.00  0.00    -0.236 N 
HETATM    9  N   UNL     1      -9.868   0.771 -31.809  1.00  0.00    -0.179 NA
HETATM   10  C   UNL     1      -6.643   1.878 -33.081  1.00  0.00     0.199 C 
HETATM   11  O   UNL     1      -6.220   2.470 -34.067  1.00  0.00    -0.287 OA
HETATM   12  C   UNL     1      -5.723   1.463 -31.952  1.00  0.00     0.020 C 
HETATM   13  H   UNL     1      -8.022   0.241 -29.957  1.00  0.00     0.167 HD
HETATM   14  H   UNL     1     -10.338   1.253 -31.041  1.00  0.00     0.155 HD
ENDROOT
BRANCH  12  15
HETATM   15  C   UNL     1      -4.249   1.638 -32.227  1.00  0.00     0.083 C 
BRANCH  15  16
HETATM   16  C   UNL     1      -3.808   3.078 -32.065  1.00  0.00    -0.054 A 
HETATM   17  C   UNL     1      -2.769   3.593 -32.850  1.00  0.00     0.008 A 
HETATM   18  C   UNL     1      -2.304   4.896 -32.654  1.00  0.00     0.008 A 
HETATM   19  C   UNL     1      -2.868   5.717 -31.668  1.00  0.00    -0.055 A 
HETATM   20  C   UNL     1      -3.920   5.206 -30.896  1.00  0.00     0.008 A 
HETATM   21  C   UNL     1      -4.384   3.902 -31.091  1.00  0.00     0.008 A 
BRANCH  19  22
HETATM   22  C   UNL     1      -2.321   7.116 -31.449  1.00  0.00     0.010 C 
HETATM   23  C   UNL     1      -2.356   7.516 -29.973  1.00  0.00     0.015 C 
HETATM   24  C   UNL     1      -0.906   7.254 -32.020  1.00  0.00     0.015 C 
ENDBRANCH  19  22
ENDBRANCH  15  16
ENDBRANCH  12  15
BRANCH   8  25
HETATM   25  C   UNL     1     -11.662   1.059 -33.457  1.00  0.00     0.055 A 
HETATM   26  C   UNL     1     -12.287  -0.196 -33.417  1.00  0.00     0.034 A 
HETATM   27  C   UNL     1     -13.624  -0.346 -33.804  1.00  0.00     0.044 A 
HETATM   28  C   UNL     1     -14.343   0.761 -34.230  1.00  0.00     0.116 A 
HETATM   29  F   UNL     1     -15.623   0.620 -34.598  1.00  0.00    -0.206 F 
HETATM   30  C   UNL     1     -13.753   2.016 -34.274  1.00  0.00     0.044 A 
HETATM   31  C   UNL     1     -12.416   2.165 -33.889  1.00  0.00     0.034 A 
ENDBRANCH   8  25
TORSDOF 4
ENDMDL
MODEL 9
REMARK VINA RESULT:      -8.4     16.323     18.037
REMARK  4 active torsions:
REMARK  status: ('A' for Active; 'I' for Inactive)
REMARK    1  A    between atoms: N_8  and  C_9 
REMARK    2  A    between atoms: C_19  and  C_20 
REMARK    3  A    between atoms: C_20  and  C_21 
REMARK    4  A    between atoms: C_24  and  C_25 
ROOT
HETATM    1  C   UNL     1      -1.431 -14.844 -41.271  1.00  0.00     0.069 C 
HETATM    2  C   UNL     1      -2.568 -14.274 -40.461  1.00  0.00     0.017 C 
HETATM    3  N   UNL     1      -3.835 -14.615 -40.919  1.00  0.00    -0.348 N 
HETATM    4  C   UNL     1      -4.970 -14.059 -40.400  1.00  0.00     0.119 A 
HETATM    5  C   UNL     1      -4.921 -13.276 -39.313  1.00  0.00     0.124 A 
HETATM    6  C   UNL     1      -6.307 -12.914 -38.981  1.00  0.00     0.280 A 
HETATM    7  O   UNL     1      -6.645 -12.216 -38.041  1.00  0.00    -0.265 OA
HETATM    8  N   UNL     1      -7.095 -13.532 -39.965  1.00  0.00    -0.236 N 
HETATM    9  N   UNL     1      -6.261 -14.225 -40.868  1.00  0.00    -0.179 NA
HETATM   10  C   UNL     1      -3.644 -12.981 -38.666  1.00  0.00     0.199 C 
HETATM   11  O   UNL     1      -3.575 -12.381 -37.600  1.00  0.00    -0.287 OA
HETATM   12  C   UNL     1      -2.401 -13.467 -39.383  1.00  0.00     0.020 C 
HETATM   13  H   UNL     1      -3.910 -15.019 -41.847  1.00  0.00     0.167 HD
HETATM   14  H   UNL     1      -6.491 -15.218 -40.922  1.00  0.00     0.155 HD
ENDROOT
BRANCH  12  15
HETATM   15  C   UNL     1      -1.094 -12.977 -38.806  1.00  0.00     0.083 C 
BRANCH  15  16
HETATM   16  C   UNL     1      -0.298 -14.097 -38.170  1.00  0.00    -0.054 A 
HETATM   17  C   UNL     1      -0.817 -14.805 -37.079  1.00  0.00     0.008 A 
HETATM   18  C   UNL     1      -0.058 -15.788 -36.438  1.00  0.00     0.008 A 
HETATM   19  C   UNL     1       1.240 -16.088 -36.874  1.00  0.00    -0.055 A 
HETATM   20  C   UNL     1       1.751 -15.392 -37.978  1.00  0.00     0.008 A 
HETATM   21  C   UNL     1       0.991 -14.408 -38.619  1.00  0.00     0.008 A 
BRANCH  19  22
HETATM   22  C   UNL     1       2.058 -17.134 -36.138  1.00  0.00     0.010 C 
HETATM   23  C   UNL     1       2.694 -16.567 -34.868  1.00  0.00     0.015 C 
HETATM   24  C   UNL     1       1.217 -18.374 -35.823  1.00  0.00     0.015 C 
ENDBRANCH  19  22
ENDBRANCH  15  16
ENDBRANCH  12  15
BRANCH   8  25
HETATM   25  C   UNL     1      -8.488 -13.459 -40.182  1.00  0.00     0.055 A 
HETATM   26  C   UNL     1      -9.176 -12.240 -40.089  1.00  0.00     0.034 A 
HETATM   27  C   UNL     1     -10.557 -12.176 -40.303  1.00  0.00     0.044 A 
HETATM   28  C   UNL     1     -11.258 -13.331 -40.616  1.00  0.00     0.116 A 
HETATM   29  F   UNL     1     -12.579 -13.271 -40.824  1.00  0.00    -0.206 F 
HETATM   30  C   UNL     1     -10.603 -14.550 -40.721  1.00  0.00     0.044 A 
HETATM   31  C   UNL     1      -9.223 -14.614 -40.505  1.00  0.00     0.034 A 
ENDBRANCH   8  25
TORSDOF 4
ENDMDL
MODEL 10
REMARK VINA RESULT:      -8.3      5.924      8.493
REMARK  4 active torsions:
REMARK  status: ('A' for Active; 'I' for Inactive)
REMARK    1  A    between atoms: N_8  and  C_9 
REMARK    2  A    between atoms: C_19  and  C_20 
REMARK    3  A    between atoms: C_20  and  C_21 
REMARK    4  A    between atoms: C_24  and  C_25 
ROOT
HETATM    1  C   UNL     1      -1.903   6.999 -34.186  1.00  0.00     0.069 C 
HETATM    2  C   UNL     1      -2.672   5.806 -33.679  1.00  0.00     0.017 C 
HETATM    3  N   UNL     1      -3.948   5.668 -34.212  1.00  0.00    -0.348 N 
HETATM    4  C   UNL     1      -4.834   4.738 -33.748  1.00  0.00     0.119 A 
HETATM    5  C   UNL     1      -4.456   3.806 -32.862  1.00  0.00     0.124 A 
HETATM    6  C   UNL     1      -5.616   2.931 -32.637  1.00  0.00     0.280 A 
HETATM    7  O   UNL     1      -5.634   1.964 -31.895  1.00  0.00    -0.265 OA
HETATM    8  N   UNL     1      -6.640   3.462 -33.438  1.00  0.00    -0.236 N 
HETATM    9  N   UNL     1      -6.162   4.606 -34.111  1.00  0.00    -0.179 NA
HETATM   10  C   UNL     1      -3.085   3.775 -32.354  1.00  0.00     0.199 C 
HETATM   11  O   UNL     1      -2.671   2.863 -31.648  1.00  0.00    -0.287 OA
HETATM   12  C   UNL     1      -2.195   4.932 -32.756  1.00  0.00     0.020 C 
HETATM   13  H   UNL     1      -4.340   6.461 -34.711  1.00  0.00     0.167 HD
HETATM   14  H   UNL     1      -6.243   4.519 -35.125  1.00  0.00     0.155 HD
ENDROOT
BRANCH  12  15
HETATM   15  C   UNL     1      -0.856   4.985 -32.060  1.00  0.00     0.083 C 
BRANCH  15  16
HETATM   16  C   UNL     1      -0.822   6.038 -30.972  1.00  0.00    -0.054 A 
HETATM   17  C   UNL     1       0.395   6.606 -30.574  1.00  0.00     0.008 A 
HETATM   18  C   UNL     1       0.445   7.521 -29.520  1.00  0.00     0.008 A 
HETATM   19  C   UNL     1      -0.722   7.892 -28.837  1.00  0.00    -0.055 A 
HETATM   20  C   UNL     1      -1.941   7.337 -29.249  1.00  0.00     0.008 A 
HETATM   21  C   UNL     1      -1.991   6.420 -30.304  1.00  0.00     0.008 A 
BRANCH  19  22
HETATM   22  C   UNL     1      -0.637   8.860 -27.671  1.00  0.00     0.010 C 
HETATM   23  C   UNL     1       0.813   9.161 -27.288  1.00  0.00     0.015 C 
HETATM   24  C   UNL     1      -1.404  10.152 -27.966  1.00  0.00     0.015 C 
ENDBRANCH  19  22
ENDBRANCH  15  16
ENDBRANCH  12  15
BRANCH   8  25
HETATM   25  C   UNL     1      -7.991   3.070 -33.553  1.00  0.00     0.055 A 
HETATM   26  C   UNL     1      -8.345   1.837 -34.119  1.00  0.00     0.034 A 
HETATM   27  C   UNL     1      -9.686   1.456 -34.232  1.00  0.00     0.044 A 
HETATM   28  C   UNL     1     -10.682   2.306 -33.774  1.00  0.00     0.116 A 
HETATM   29  F   UNL     1     -11.966   1.942 -33.879  1.00  0.00    -0.206 F 
HETATM   30  C   UNL     1     -10.362   3.529 -33.204  1.00  0.00     0.044 A 
HETATM   31  C   UNL     1      -9.021   3.910 -33.093  1.00  0.00     0.034 A 
ENDBRANCH   8  25
TORSDOF 4
ENDMDL
