MODEL 1
REMARK VINA RESULT:      -7.5      0.000      0.000
REMARK  5 active torsions:
REMARK  status: ('A' for Active; 'I' for Inactive)
REMARK    1  A    between atoms: C_5  and  N_6 
REMARK       I    between atoms: N_6  and  C_7 
REMARK       I    between atoms: C_7  and  N_8 
REMARK    2  A    between atoms: N_8  and  C_9 
REMARK    3  A    between atoms: C_16  and  O_17 
REMARK    4  A    between atoms: O_17  and  C_18 
REMARK    5  A    between atoms: C_18  and  C_19 
ROOT
HETATM    1  C   UNL     1      -4.278  -0.045 -32.744  1.00  0.00     0.026 A 
HETATM    2  C   UNL     1      -4.932   1.014 -32.113  1.00  0.00     0.036 A 
HETATM    3 CL   UNL     1      -4.002   2.219 -31.308  1.00  0.00    -0.084 Cl
HETATM    4  C   UNL     1      -6.327   1.099 -32.113  1.00  0.00     0.056 A 
HETATM    5  C   UNL     1      -7.082   0.119 -32.757  1.00  0.00     0.071 A 
HETATM    6  C   UNL     1      -6.415  -0.936 -33.408  1.00  0.00     0.096 A 
HETATM    7  C   UNL     1      -5.022  -1.030 -33.391  1.00  0.00     0.041 A 
ENDROOT
BRANCH   5   8
HETATM    8  N   UNL     1      -8.493   0.104 -32.786  1.00  0.00    -0.306 N 
HETATM    9  C   UNL     1      -9.332   0.968 -33.466  1.00  0.00     0.325 C 
HETATM   10  N   UNL     1     -10.655   0.719 -33.139  1.00  0.00    -0.306 N 
HETATM   11  O   UNL     1      -8.962   1.827 -34.256  1.00  0.00    -0.247 OA
HETATM   12  H   UNL     1     -10.855   0.119 -32.355  1.00  0.00     0.171 HD
HETATM   13  H   UNL     1      -8.916  -0.721 -32.380  1.00  0.00     0.171 HD
BRANCH  10  14
HETATM   14  C   UNL     1     -11.731   1.357 -33.726  1.00  0.00     0.072 A 
HETATM   15  C   UNL     1     -12.437   1.100 -34.922  1.00  0.00     0.169 A 
HETATM   16  N   UNL     1     -13.440   1.964 -35.118  1.00  0.00    -0.185 NA
HETATM   17  N   UNL     1     -13.368   2.774 -34.051  1.00  0.00    -0.287 N 
HETATM   18  H   UNL     1     -14.042   3.530 -33.978  1.00  0.00     0.188 HD
HETATM   19  C   UNL     1     -12.364   2.450 -33.183  1.00  0.00     0.140 A 
ENDBRANCH  10  14
ENDBRANCH   5   8
BRANCH   6  20
HETATM   20  O   UNL     1      -7.179  -1.896 -34.026  1.00  0.00    -0.340 OA
BRANCH  20  21
HETATM   21  C   UNL     1      -6.403  -2.677 -34.956  1.00  0.00     0.293 C 
BRANCH  21  22
HETATM   22  C   UNL     1      -6.672  -4.157 -34.737  1.00  0.00     0.408 C 
HETATM   23  F   UNL     1      -5.601  -4.769 -34.178  1.00  0.00    -0.169 F 
HETATM   24  F   UNL     1      -7.726  -4.337 -33.911  1.00  0.00    -0.169 F 
HETATM   25  F   UNL     1      -6.949  -4.791 -35.898  1.00  0.00    -0.169 F 
ENDBRANCH  21  22
ENDBRANCH  20  21
ENDBRANCH   6  20
TORSDOF 5
ENDMDL
MODEL 2
REMARK VINA RESULT:      -7.4      3.230      4.086
REMARK  5 active torsions:
REMARK  status: ('A' for Active; 'I' for Inactive)
REMARK    1  A    between atoms: C_5  and  N_6 
REMARK       I    between atoms: N_6  and  C_7 
REMARK       I    between atoms: C_7  and  N_8 
REMARK    2  A    between atoms: N_8  and  C_9 
REMARK    3  A    between atoms: C_16  and  O_17 
REMARK    4  A    between atoms: O_17  and  C_18 
REMARK    5  A    between atoms: C_18  and  C_19 
ROOT
HETATM    1  C   UNL     1      -4.614  -2.627 -34.054  1.00  0.00     0.026 A 
HETATM    2  C   UNL     1      -5.784  -3.023 -34.703  1.00  0.00     0.036 A 
HETATM    3 CL   UNL     1      -5.917  -4.636 -35.291  1.00  0.00    -0.084 Cl
HETATM    4  C   UNL     1      -6.837  -2.126 -34.895  1.00  0.00     0.056 A 
HETATM    5  C   UNL     1      -6.728  -0.816 -34.427  1.00  0.00     0.071 A 
HETATM    6  C   UNL     1      -5.553  -0.429 -33.755  1.00  0.00     0.096 A 
HETATM    7  C   UNL     1      -4.493  -1.321 -33.581  1.00  0.00     0.041 A 
ENDROOT
BRANCH   5   8
HETATM    8  N   UNL     1      -7.726   0.168 -34.599  1.00  0.00    -0.306 N 
HETATM    9  C   UNL     1      -8.900   0.313 -33.883  1.00  0.00     0.325 C 
HETATM   10  N   UNL     1      -9.686   1.312 -34.434  1.00  0.00    -0.306 N 
HETATM   11  O   UNL     1      -9.201  -0.339 -32.892  1.00  0.00    -0.247 OA
HETATM   12  H   UNL     1      -9.443   1.672 -35.343  1.00  0.00     0.171 HD
HETATM   13  H   UNL     1      -7.469   0.926 -35.218  1.00  0.00     0.171 HD
BRANCH  10  14
HETATM   14  C   UNL     1     -10.875   1.752 -33.887  1.00  0.00     0.072 A 
HETATM   15  C   UNL     1     -12.215   1.371 -34.122  1.00  0.00     0.169 A 
HETATM   16  N   UNL     1     -13.078   2.049 -33.357  1.00  0.00    -0.185 NA
HETATM   17  N   UNL     1     -12.290   2.865 -32.641  1.00  0.00    -0.287 N 
HETATM   18  H   UNL     1     -12.730   3.495 -31.977  1.00  0.00     0.188 HD
HETATM   19  C   UNL     1     -10.960   2.723 -32.917  1.00  0.00     0.140 A 
ENDBRANCH  10  14
ENDBRANCH   5   8
BRANCH   6  20
HETATM   20  O   UNL     1      -5.462   0.869 -33.313  1.00  0.00    -0.340 OA
BRANCH  20  21
HETATM   21  C   UNL     1      -5.028   0.934 -31.940  1.00  0.00     0.293 C 
BRANCH  21  22
HETATM   22  C   UNL     1      -6.236   0.928 -31.017  1.00  0.00     0.408 C 
HETATM   23  F   UNL     1      -5.910   1.386 -29.785  1.00  0.00    -0.169 F 
HETATM   24  F   UNL     1      -7.217   1.719 -31.503  1.00  0.00    -0.169 F 
HETATM   25  F   UNL     1      -6.747  -0.314 -30.872  1.00  0.00    -0.169 F 
ENDBRANCH  21  22
ENDBRANCH  20  21
ENDBRANCH   6  20
TORSDOF 5
ENDMDL
MODEL 3
REMARK VINA RESULT:      -6.9      3.862      4.703
REMARK  5 active torsions:
REMARK  status: ('A' for Active; 'I' for Inactive)
REMARK    1  A    between atoms: C_5  and  N_6 
REMARK       I    between atoms: N_6  and  C_7 
REMARK       I    between atoms: C_7  and  N_8 
REMARK    2  A    between atoms: N_8  and  C_9 
REMARK    3  A    between atoms: C_16  and  O_17 
REMARK    4  A    between atoms: O_17  and  C_18 
REMARK    5  A    between atoms: C_18  and  C_19 
ROOT
HETATM    1  C   UNL     1      -4.835  -1.628 -33.694  1.00  0.00     0.026 A 
HETATM    2  C   UNL     1      -5.834  -2.064 -34.565  1.00  0.00     0.036 A 
HETATM    3 CL   UNL     1      -5.727  -3.640 -35.249  1.00  0.00    -0.084 Cl
HETATM    4  C   UNL     1      -6.907  -1.234 -34.900  1.00  0.00     0.056 A 
HETATM    5  C   UNL     1      -6.991   0.047 -34.353  1.00  0.00     0.071 A 
HETATM    6  C   UNL     1      -5.991   0.473 -33.460  1.00  0.00     0.096 A 
HETATM    7  C   UNL     1      -4.908  -0.350 -33.141  1.00  0.00     0.041 A 
ENDROOT
BRANCH   5   8
HETATM    8  N   UNL     1      -8.020   0.966 -34.654  1.00  0.00    -0.306 N 
HETATM    9  C   UNL     1      -9.320   0.962 -34.182  1.00  0.00     0.325 C 
HETATM   10  N   UNL     1     -10.069   1.943 -34.810  1.00  0.00    -0.306 N 
HETATM   11  O   UNL     1      -9.749   0.205 -33.321  1.00  0.00    -0.247 OA
HETATM   12  H   UNL     1      -9.686   2.398 -35.623  1.00  0.00     0.171 HD
HETATM   13  H   UNL     1      -7.716   1.792 -35.153  1.00  0.00     0.171 HD
BRANCH  10  14
HETATM   14  C   UNL     1     -11.377   2.246 -34.485  1.00  0.00     0.072 A 
HETATM   15  C   UNL     1     -11.933   2.979 -33.413  1.00  0.00     0.169 A 
HETATM   16  N   UNL     1     -13.268   3.046 -33.481  1.00  0.00    -0.185 NA
HETATM   17  N   UNL     1     -13.562   2.350 -34.589  1.00  0.00    -0.287 N 
HETATM   18  H   UNL     1     -14.538   2.256 -34.850  1.00  0.00     0.188 HD
HETATM   19  C   UNL     1     -12.463   1.853 -35.231  1.00  0.00     0.140 A 
ENDBRANCH  10  14
ENDBRANCH   5   8
BRANCH   6  20
HETATM   20  O   UNL     1      -6.087   1.743 -32.943  1.00  0.00    -0.340 OA
BRANCH  20  21
HETATM   21  C   UNL     1      -4.962   2.062 -32.101  1.00  0.00     0.293 C 
BRANCH  21  22
HETATM   22  C   UNL     1      -4.252   3.295 -32.635  1.00  0.00     0.408 C 
HETATM   23  F   UNL     1      -4.807   3.712 -33.798  1.00  0.00    -0.169 F 
HETATM   24  F   UNL     1      -4.333   4.316 -31.753  1.00  0.00    -0.169 F 
HETATM   25  F   UNL     1      -2.943   3.057 -32.865  1.00  0.00    -0.169 F 
ENDBRANCH  21  22
ENDBRANCH  20  21
ENDBRANCH   6  20
TORSDOF 5
ENDMDL
MODEL 4
REMARK VINA RESULT:      -6.8     13.818     14.945
REMARK  5 active torsions:
REMARK  status: ('A' for Active; 'I' for Inactive)
REMARK    1  A    between atoms: C_5  and  N_6 
REMARK       I    between atoms: N_6  and  C_7 
REMARK       I    between atoms: C_7  and  N_8 
REMARK    2  A    between atoms: N_8  and  C_9 
REMARK    3  A    between atoms: C_16  and  O_17 
REMARK    4  A    between atoms: O_17  and  C_18 
REMARK    5  A    between atoms: C_18  and  C_19 
ROOT
HETATM    1  C   UNL     1      -7.364 -12.585 -40.689  1.00  0.00     0.026 A 
HETATM    2  C   UNL     1      -8.482 -12.500 -39.858  1.00  0.00     0.036 A 
HETATM    3 CL   UNL     1     -10.035 -12.250 -40.558  1.00  0.00    -0.084 Cl
HETATM    4  C   UNL     1      -8.354 -12.598 -38.470  1.00  0.00     0.056 A 
HETATM    5  C   UNL     1      -7.095 -12.792 -37.901  1.00  0.00     0.071 A 
HETATM    6  C   UNL     1      -5.975 -12.897 -38.746  1.00  0.00     0.096 A 
HETATM    7  C   UNL     1      -6.101 -12.780 -40.132  1.00  0.00     0.041 A 
ENDROOT
BRANCH   5   8
HETATM    8  N   UNL     1      -6.863 -12.874 -36.510  1.00  0.00    -0.306 N 
HETATM    9  C   UNL     1      -6.942 -13.997 -35.707  1.00  0.00     0.325 C 
HETATM   10  N   UNL     1      -6.781 -13.654 -34.374  1.00  0.00    -0.306 N 
HETATM   11  O   UNL     1      -7.117 -15.138 -36.114  1.00  0.00    -0.247 OA
HETATM   12  H   UNL     1      -6.818 -12.681 -34.118  1.00  0.00     0.171 HD
HETATM   13  H   UNL     1      -6.454 -12.044 -36.101  1.00  0.00     0.171 HD
BRANCH  10  14
HETATM   14  C   UNL     1      -6.718 -14.569 -33.341  1.00  0.00     0.072 A 
HETATM   15  C   UNL     1      -7.488 -15.719 -33.057  1.00  0.00     0.169 A 
HETATM   16  N   UNL     1      -7.080 -16.342 -31.945  1.00  0.00    -0.185 NA
HETATM   17  N   UNL     1      -6.056 -15.587 -31.519  1.00  0.00    -0.287 N 
HETATM   18  H   UNL     1      -5.578 -15.866 -30.669  1.00  0.00     0.188 HD
HETATM   19  C   UNL     1      -5.795 -14.515 -32.324  1.00  0.00     0.140 A 
ENDBRANCH  10  14
ENDBRANCH   5   8
BRANCH   6  20
HETATM   20  O   UNL     1      -4.743 -13.076 -38.163  1.00  0.00    -0.340 OA
BRANCH  20  21
HETATM   21  C   UNL     1      -3.792 -12.094 -38.617  1.00  0.00     0.293 C 
BRANCH  21  22
HETATM   22  C   UNL     1      -2.379 -12.564 -38.310  1.00  0.00     0.408 C 
HETATM   23  F   UNL     1      -2.311 -13.137 -37.084  1.00  0.00    -0.169 F 
HETATM   24  F   UNL     1      -1.970 -13.481 -39.214  1.00  0.00    -0.169 F 
HETATM   25  F   UNL     1      -1.496 -11.542 -38.336  1.00  0.00    -0.169 F 
ENDBRANCH  21  22
ENDBRANCH  20  21
ENDBRANCH   6  20
TORSDOF 5
ENDMDL
MODEL 5
REMARK VINA RESULT:      -6.8      1.518      1.960
REMARK  5 active torsions:
REMARK  status: ('A' for Active; 'I' for Inactive)
REMARK    1  A    between atoms: C_5  and  N_6 
REMARK       I    between atoms: N_6  and  C_7 
REMARK       I    between atoms: C_7  and  N_8 
REMARK    2  A    between atoms: N_8  and  C_9 
REMARK    3  A    between atoms: C_16  and  O_17 
REMARK    4  A    between atoms: O_17  and  C_18 
REMARK    5  A    between atoms: C_18  and  C_19 
ROOT
HETATM    1  C   UNL     1      -4.336   2.176 -32.296  1.00  0.00     0.026 A 
HETATM    2  C   UNL     1      -5.169   3.267 -32.043  1.00  0.00     0.036 A 
HETATM    3 CL   UNL     1      -4.467   4.806 -31.722  1.00  0.00    -0.084 Cl
HETATM    4  C   UNL     1      -6.558   3.121 -32.031  1.00  0.00     0.056 A 
HETATM    5  C   UNL     1      -7.128   1.872 -32.282  1.00  0.00     0.071 A 
HETATM    6  C   UNL     1      -6.282   0.781 -32.555  1.00  0.00     0.096 A 
HETATM    7  C   UNL     1      -4.893   0.923 -32.548  1.00  0.00     0.041 A 
ENDROOT
BRANCH   5   8
HETATM    8  N   UNL     1      -8.517   1.622 -32.262  1.00  0.00    -0.306 N 
HETATM    9  C   UNL     1      -9.458   2.014 -33.196  1.00  0.00     0.325 C 
HETATM   10  N   UNL     1     -10.736   1.701 -32.762  1.00  0.00    -0.306 N 
HETATM   11  O   UNL     1      -9.201   2.554 -34.265  1.00  0.00    -0.247 OA
HETATM   12  H   UNL     1     -10.865   1.422 -31.802  1.00  0.00     0.171 HD
HETATM   13  H   UNL     1      -8.817   0.958 -31.560  1.00  0.00     0.171 HD
BRANCH  10  14
HETATM   14  C   UNL     1     -11.878   1.885 -33.517  1.00  0.00     0.072 A 
HETATM   15  C   UNL     1     -12.422   1.148 -34.592  1.00  0.00     0.169 A 
HETATM   16  N   UNL     1     -13.570   1.670 -35.037  1.00  0.00    -0.185 NA
HETATM   17  N   UNL     1     -13.754   2.742 -34.251  1.00  0.00    -0.287 N 
HETATM   18  H   UNL     1     -14.578   3.313 -34.407  1.00  0.00     0.188 HD
HETATM   19  C   UNL     1     -12.770   2.913 -33.319  1.00  0.00     0.140 A 
ENDBRANCH  10  14
ENDBRANCH   5   8
BRANCH   6  20
HETATM   20  O   UNL     1      -6.864  -0.442 -32.788  1.00  0.00    -0.340 OA
BRANCH  20  21
HETATM   21  C   UNL     1      -5.933  -1.372 -33.375  1.00  0.00     0.293 C 
BRANCH  21  22
HETATM   22  C   UNL     1      -6.585  -2.084 -34.548  1.00  0.00     0.408 C 
HETATM   23  F   UNL     1      -7.370  -1.239 -35.257  1.00  0.00    -0.169 F 
HETATM   24  F   UNL     1      -5.650  -2.579 -35.390  1.00  0.00    -0.169 F 
HETATM   25  F   UNL     1      -7.354  -3.117 -34.140  1.00  0.00    -0.169 F 
ENDBRANCH  21  22
ENDBRANCH  20  21
ENDBRANCH   6  20
TORSDOF 5
ENDMDL
MODEL 6
REMARK VINA RESULT:      -6.6     14.058     15.079
REMARK  5 active torsions:
REMARK  status: ('A' for Active; 'I' for Inactive)
REMARK    1  A    between atoms: C_5  and  N_6 
REMARK       I    between atoms: N_6  and  C_7 
REMARK       I    between atoms: C_7  and  N_8 
REMARK    2  A    between atoms: N_8  and  C_9 
REMARK    3  A    between atoms: C_16  and  O_17 
REMARK    4  A    between atoms: O_17  and  C_18 
REMARK    5  A    between atoms: C_18  and  C_19 
ROOT
HETATM    1  C   UNL     1      -5.533 -13.244 -41.512  1.00  0.00     0.026 A 
HETATM    2  C   UNL     1      -4.435 -13.531 -40.699  1.00  0.00     0.036 A 
HETATM    3 CL   UNL     1      -2.978 -14.099 -41.420  1.00  0.00    -0.084 Cl
HETATM    4  C   UNL     1      -4.510 -13.379 -39.312  1.00  0.00     0.056 A 
HETATM    5  C   UNL     1      -5.693 -12.927 -38.727  1.00  0.00     0.071 A 
HETATM    6  C   UNL     1      -6.789 -12.621 -39.554  1.00  0.00     0.096 A 
HETATM    7  C   UNL     1      -6.720 -12.792 -40.939  1.00  0.00     0.041 A 
ENDROOT
BRANCH   5   8
HETATM    8  N   UNL     1      -5.873 -12.769 -37.335  1.00  0.00    -0.306 N 
HETATM    9  C   UNL     1      -5.986 -13.763 -36.381  1.00  0.00     0.325 C 
HETATM   10  N   UNL     1      -6.290 -13.219 -35.144  1.00  0.00    -0.306 N 
HETATM   11  O   UNL     1      -5.829 -14.959 -36.594  1.00  0.00    -0.247 OA
HETATM   12  H   UNL     1      -6.574 -12.254 -35.097  1.00  0.00     0.171 HD
HETATM   13  H   UNL     1      -5.757 -11.822 -36.999  1.00  0.00     0.171 HD
BRANCH  10  14
HETATM   14  C   UNL     1      -6.376 -13.951 -33.975  1.00  0.00     0.072 A 
HETATM   15  C   UNL     1      -7.146 -15.084 -33.631  1.00  0.00     0.169 A 
HETATM   16  N   UNL     1      -6.915 -15.495 -32.379  1.00  0.00    -0.185 NA
HETATM   17  N   UNL     1      -6.003 -14.622 -31.925  1.00  0.00    -0.287 N 
HETATM   18  H   UNL     1      -5.668 -14.731 -30.973  1.00  0.00     0.188 HD
HETATM   19  C   UNL     1      -5.642 -13.679 -32.845  1.00  0.00     0.140 A 
ENDBRANCH  10  14
ENDBRANCH   5   8
BRANCH   6  20
HETATM   20  O   UNL     1      -7.948 -12.188 -38.955  1.00  0.00    -0.340 OA
BRANCH  20  21
HETATM   21  C   UNL     1      -8.939 -13.232 -38.898  1.00  0.00     0.293 C 
BRANCH  21  22
HETATM   22  C   UNL     1     -10.007 -12.988 -39.952  1.00  0.00     0.408 C 
HETATM   23  F   UNL     1     -11.249 -13.096 -39.422  1.00  0.00    -0.169 F 
HETATM   24  F   UNL     1      -9.891 -11.748 -40.475  1.00  0.00    -0.169 F 
HETATM   25  F   UNL     1      -9.915 -13.871 -40.969  1.00  0.00    -0.169 F 
ENDBRANCH  21  22
ENDBRANCH  20  21
ENDBRANCH   6  20
TORSDOF 5
ENDMDL
MODEL 7
REMARK VINA RESULT:      -6.6      4.412      5.956
REMARK  5 active torsions:
REMARK  status: ('A' for Active; 'I' for Inactive)
REMARK    1  A    between atoms: C_5  and  N_6 
REMARK       I    between atoms: N_6  and  C_7 
REMARK       I    between atoms: C_7  and  N_8 
REMARK    2  A    between atoms: N_8  and  C_9 
REMARK    3  A    between atoms: C_16  and  O_17 
REMARK    4  A    between atoms: O_17  and  C_18 
REMARK    5  A    between atoms: C_18  and  C_19 
ROOT
HETATM    1  C   UNL     1      -5.771  -3.916 -34.649  1.00  0.00     0.026 A 
HETATM    2  C   UNL     1      -4.521  -3.560 -34.141  1.00  0.00     0.036 A 
HETATM    3 CL   UNL     1      -3.327  -4.779 -33.911  1.00  0.00    -0.084 Cl
HETATM    4  C   UNL     1      -4.234  -2.235 -33.803  1.00  0.00     0.056 A 
HETATM    5  C   UNL     1      -5.203  -1.248 -33.980  1.00  0.00     0.071 A 
HETATM    6  C   UNL     1      -6.455  -1.610 -34.511  1.00  0.00     0.096 A 
HETATM    7  C   UNL     1      -6.747  -2.938 -34.831  1.00  0.00     0.041 A 
ENDROOT
BRANCH   5   8
HETATM    8  N   UNL     1      -5.016   0.110 -33.641  1.00  0.00    -0.306 N 
HETATM    9  C   UNL     1      -5.225   0.710 -32.413  1.00  0.00     0.325 C 
HETATM   10  N   UNL     1      -5.064   2.083 -32.508  1.00  0.00    -0.306 N 
HETATM   11  O   UNL     1      -5.502   0.113 -31.381  1.00  0.00    -0.247 OA
HETATM   12  H   UNL     1      -5.012   2.501 -33.423  1.00  0.00     0.171 HD
HETATM   13  H   UNL     1      -4.537   0.659 -34.344  1.00  0.00     0.171 HD
BRANCH  10  14
HETATM   14  C   UNL     1      -5.118   2.945 -31.430  1.00  0.00     0.072 A 
HETATM   15  C   UNL     1      -6.050   3.075 -30.377  1.00  0.00     0.169 A 
HETATM   16  N   UNL     1      -5.716   4.045 -29.518  1.00  0.00    -0.185 NA
HETATM   17  N   UNL     1      -4.577   4.537 -30.028  1.00  0.00    -0.287 N 
HETATM   18  H   UNL     1      -4.126   5.303 -29.539  1.00  0.00     0.188 HD
HETATM   19  C   UNL     1      -4.172   3.908 -31.171  1.00  0.00     0.140 A 
ENDBRANCH  10  14
ENDBRANCH   5   8
BRANCH   6  20
HETATM   20  O   UNL     1      -7.398  -0.623 -34.667  1.00  0.00    -0.340 OA
BRANCH  20  21
HETATM   21  C   UNL     1      -8.408  -0.686 -33.641  1.00  0.00     0.293 C 
BRANCH  21  22
HETATM   22  C   UNL     1      -9.121   0.652 -33.536  1.00  0.00     0.408 C 
HETATM   23  F   UNL     1     -10.022   0.647 -32.525  1.00  0.00    -0.169 F 
HETATM   24  F   UNL     1      -8.241   1.648 -33.296  1.00  0.00    -0.169 F 
HETATM   25  F   UNL     1      -9.782   0.956 -34.675  1.00  0.00    -0.169 F 
ENDBRANCH  21  22
ENDBRANCH  20  21
ENDBRANCH   6  20
TORSDOF 5
ENDMDL
MODEL 8
REMARK VINA RESULT:      -6.5     13.659     15.380
REMARK  5 active torsions:
REMARK  status: ('A' for Active; 'I' for Inactive)
REMARK    1  A    between atoms: C_5  and  N_6 
REMARK       I    between atoms: N_6  and  C_7 
REMARK       I    between atoms: C_7  and  N_8 
REMARK    2  A    between atoms: N_8  and  C_9 
REMARK    3  A    between atoms: C_16  and  O_17 
REMARK    4  A    between atoms: O_17  and  C_18 
REMARK    5  A    between atoms: C_18  and  C_19 
ROOT
HETATM    1  C   UNL     1      -0.159 -14.325 -40.507  1.00  0.00     0.026 A 
HETATM    2  C   UNL     1       0.188 -14.419 -39.159  1.00  0.00     0.036 A 
HETATM    3 CL   UNL     1       1.849 -14.350 -38.709  1.00  0.00    -0.084 Cl
HETATM    4  C   UNL     1      -0.791 -14.584 -38.176  1.00  0.00     0.056 A 
HETATM    5  C   UNL     1      -2.136 -14.649 -38.540  1.00  0.00     0.071 A 
HETATM    6  C   UNL     1      -2.480 -14.533 -39.900  1.00  0.00     0.096 A 
HETATM    7  C   UNL     1      -1.500 -14.388 -40.883  1.00  0.00     0.041 A 
ENDROOT
BRANCH   5   8
HETATM    8  N   UNL     1      -3.192 -14.842 -37.622  1.00  0.00    -0.306 N 
HETATM    9  C   UNL     1      -3.902 -13.874 -36.937  1.00  0.00     0.325 C 
HETATM   10  N   UNL     1      -4.767 -14.458 -36.026  1.00  0.00    -0.306 N 
HETATM   11  O   UNL     1      -3.793 -12.668 -37.116  1.00  0.00    -0.247 OA
HETATM   12  H   UNL     1      -4.664 -15.439 -35.822  1.00  0.00     0.171 HD
HETATM   13  H   UNL     1      -3.552 -15.787 -37.586  1.00  0.00     0.171 HD
BRANCH  10  14
HETATM   14  C   UNL     1      -5.675 -13.754 -35.259  1.00  0.00     0.072 A 
HETATM   15  C   UNL     1      -7.078 -13.622 -35.350  1.00  0.00     0.169 A 
HETATM   16  N   UNL     1      -7.581 -12.845 -34.384  1.00  0.00    -0.185 NA
HETATM   17  N   UNL     1      -6.498 -12.476 -33.683  1.00  0.00    -0.287 N 
HETATM   18  H   UNL     1      -6.631 -11.865 -32.884  1.00  0.00     0.188 HD
HETATM   19  C   UNL     1      -5.331 -12.998 -34.163  1.00  0.00     0.140 A 
ENDBRANCH  10  14
ENDBRANCH   5   8
BRANCH   6  20
HETATM   20  O   UNL     1      -3.810 -14.612 -40.236  1.00  0.00    -0.340 OA
BRANCH  20  21
HETATM   21  C   UNL     1      -4.194 -13.556 -41.140  1.00  0.00     0.293 C 
BRANCH  21  22
HETATM   22  C   UNL     1      -5.343 -12.760 -40.544  1.00  0.00     0.408 C 
HETATM   23  F   UNL     1      -5.946 -13.447 -39.545  1.00  0.00    -0.169 F 
HETATM   24  F   UNL     1      -4.903 -11.590 -40.031  1.00  0.00    -0.169 F 
HETATM   25  F   UNL     1      -6.283 -12.471 -41.470  1.00  0.00    -0.169 F 
ENDBRANCH  21  22
ENDBRANCH  20  21
ENDBRANCH   6  20
TORSDOF 5
ENDMDL
MODEL 9
REMARK VINA RESULT:      -6.5      6.162      8.313
REMARK  5 active torsions:
REMARK  status: ('A' for Active; 'I' for Inactive)
REMARK    1  A    between atoms: C_5  and  N_6 
REMARK       I    between atoms: N_6  and  C_7 
REMARK       I    between atoms: C_7  and  N_8 
REMARK    2  A    between atoms: N_8  and  C_9 
REMARK    3  A    between atoms: C_16  and  O_17 
REMARK    4  A    between atoms: O_17  and  C_18 
REMARK    5  A    between atoms: C_18  and  C_19 
ROOT
HETATM    1  C   UNL     1      -5.145  -1.047 -32.613  1.00  0.00     0.026 A 
HETATM    2  C   UNL     1      -3.890  -1.059 -32.001  1.00  0.00     0.036 A 
HETATM    3 CL   UNL     1      -3.040  -2.548 -31.852  1.00  0.00    -0.084 Cl
HETATM    4  C   UNL     1      -3.327   0.116 -31.497  1.00  0.00     0.056 A 
HETATM    5  C   UNL     1      -4.019   1.322 -31.609  1.00  0.00     0.071 A 
HETATM    6  C   UNL     1      -5.275   1.330 -32.245  1.00  0.00     0.096 A 
HETATM    7  C   UNL     1      -5.846   0.152 -32.732  1.00  0.00     0.041 A 
ENDROOT
BRANCH   5   8
HETATM    8  N   UNL     1      -3.545   2.553 -31.105  1.00  0.00    -0.306 N 
HETATM    9  C   UNL     1      -2.825   3.520 -31.781  1.00  0.00     0.325 C 
HETATM   10  N   UNL     1      -2.422   4.523 -30.914  1.00  0.00    -0.306 N 
HETATM   11  O   UNL     1      -2.585   3.503 -32.982  1.00  0.00    -0.247 OA
HETATM   12  H   UNL     1      -2.511   4.369 -29.922  1.00  0.00     0.171 HD
HETATM   13  H   UNL     1      -3.905   2.802 -30.193  1.00  0.00     0.171 HD
BRANCH  10  14
HETATM   14  C   UNL     1      -1.766   5.672 -31.310  1.00  0.00     0.072 A 
HETATM   15  C   UNL     1      -2.248   6.940 -31.702  1.00  0.00     0.169 A 
HETATM   16  N   UNL     1      -1.259   7.791 -31.999  1.00  0.00    -0.185 NA
HETATM   17  N   UNL     1      -0.149   7.064 -31.802  1.00  0.00    -0.287 N 
HETATM   18  H   UNL     1       0.749   7.505 -31.972  1.00  0.00     0.188 HD
HETATM   19  C   UNL     1      -0.398   5.787 -31.384  1.00  0.00     0.140 A 
ENDBRANCH  10  14
ENDBRANCH   5   8
BRANCH   6  20
HETATM   20  O   UNL     1      -5.944   2.527 -32.334  1.00  0.00    -0.340 OA
BRANCH  20  21
HETATM   21  C   UNL     1      -6.141   2.926 -33.705  1.00  0.00     0.293 C 
BRANCH  21  22
HETATM   22  C   UNL     1      -5.983   4.433 -33.831  1.00  0.00     0.408 C 
HETATM   23  F   UNL     1      -7.167   5.023 -34.121  1.00  0.00    -0.169 F 
HETATM   24  F   UNL     1      -5.530   4.967 -32.676  1.00  0.00    -0.169 F 
HETATM   25  F   UNL     1      -5.109   4.763 -34.806  1.00  0.00    -0.169 F 
ENDBRANCH  21  22
ENDBRANCH  20  21
ENDBRANCH   6  20
TORSDOF 5
ENDMDL
MODEL 10
REMARK VINA RESULT:      -6.4      4.450      7.060
REMARK  5 active torsions:
REMARK  status: ('A' for Active; 'I' for Inactive)
REMARK    1  A    between atoms: C_5  and  N_6 
REMARK       I    between atoms: N_6  and  C_7 
REMARK       I    between atoms: C_7  and  N_8 
REMARK    2  A    between atoms: N_8  and  C_9 
REMARK    3  A    between atoms: C_16  and  O_17 
REMARK    4  A    between atoms: O_17  and  C_18 
REMARK    5  A    between atoms: C_18  and  C_19 
ROOT
HETATM    1  C   UNL     1      -8.861   3.253 -33.068  1.00  0.00     0.026 A 
HETATM    2  C   UNL     1      -9.533   2.339 -33.880  1.00  0.00     0.036 A 
HETATM    3 CL   UNL     1     -11.229   2.513 -34.120  1.00  0.00    -0.084 Cl
HETATM    4  C   UNL     1      -8.852   1.279 -34.485  1.00  0.00     0.056 A 
HETATM    5  C   UNL     1      -7.479   1.132 -34.285  1.00  0.00     0.071 A 
HETATM    6  C   UNL     1      -6.804   2.069 -33.481  1.00  0.00     0.096 A 
HETATM    7  C   UNL     1      -7.489   3.116 -32.861  1.00  0.00     0.041 A 
ENDROOT
BRANCH   5   8
HETATM    8  N   UNL     1      -6.712   0.079 -34.829  1.00  0.00    -0.306 N 
HETATM    9  C   UNL     1      -6.557  -1.200 -34.327  1.00  0.00     0.325 C 
HETATM   10  N   UNL     1      -5.620  -1.903 -35.065  1.00  0.00    -0.306 N 
HETATM   11  O   UNL     1      -7.171  -1.655 -33.370  1.00  0.00    -0.247 OA
HETATM   12  H   UNL     1      -5.041  -1.399 -35.718  1.00  0.00     0.171 HD
HETATM   13  H   UNL     1      -6.364   0.250 -35.764  1.00  0.00     0.171 HD
BRANCH  10  14
HETATM   14  C   UNL     1      -5.316  -3.236 -34.863  1.00  0.00     0.072 A 
HETATM   15  C   UNL     1      -5.970  -4.420 -35.271  1.00  0.00     0.169 A 
HETATM   16  N   UNL     1      -5.324  -5.521 -34.870  1.00  0.00    -0.185 NA
HETATM   17  N   UNL     1      -4.264  -5.039 -34.204  1.00  0.00    -0.287 N 
HETATM   18  H   UNL     1      -3.615  -5.703 -33.794  1.00  0.00     0.188 HD
HETATM   19  C   UNL     1      -4.210  -3.674 -34.174  1.00  0.00     0.140 A 
ENDBRANCH  10  14
ENDBRANCH   5   8
BRANCH   6  20
HETATM   20  O   UNL     1      -5.454   1.897 -33.287  1.00  0.00    -0.340 OA
BRANCH  20  21
HETATM   21  C   UNL     1      -4.863   3.031 -32.624  1.00  0.00     0.293 C 
BRANCH  21  22
HETATM   22  C   UNL     1      -3.399   2.751 -32.329  1.00  0.00     0.408 C 
HETATM   23  F   UNL     1      -2.591   3.450 -33.161  1.00  0.00    -0.169 F 
HETATM   24  F   UNL     1      -3.088   3.104 -31.062  1.00  0.00    -0.169 F 
HETATM   25  F   UNL     1      -3.103   1.441 -32.472  1.00  0.00    -0.169 F 
ENDBRANCH  21  22
ENDBRANCH  20  21
ENDBRANCH   6  20
TORSDOF 5
ENDMDL
