MODEL 1
REMARK VINA RESULT:      -7.3      0.000      0.000
REMARK  6 active torsions:
REMARK  status: ('A' for Active; 'I' for Inactive)
REMARK    1  A    between atoms: C_2  and  O_3 
REMARK    2  A    between atoms: O_3  and  C_4 
REMARK    3  A    between atoms: C_4  and  C_5 
REMARK    4  A    between atoms: C_6  and  O_7 
REMARK    5  A    between atoms: C_12  and  O_13 
REMARK    6  A    between atoms: C_17  and  C_18 
ROOT
HETATM    1  C   UNL     1      -6.067   0.875 -33.477  1.00  0.00     0.133 C 
HETATM    2  C   UNL     1      -4.971   0.423 -32.440  1.00  0.00     0.073 C 
HETATM    3  C   UNL     1      -3.843   1.477 -32.374  1.00  0.00     0.047 C 
HETATM    4  C   UNL     1      -5.541   0.188 -31.015  1.00  0.00     0.097 C 
HETATM    5  C   UNL     1      -6.355   1.362 -30.638  1.00  0.00     0.042 A 
HETATM    6  C   UNL     1      -7.101   2.125 -31.508  1.00  0.00     0.030 A 
HETATM    7  C   UNL     1      -7.623   3.132 -30.686  1.00  0.00     0.190 A 
HETATM    8  N   UNL     1      -7.241   3.036 -29.418  1.00  0.00    -0.149 NA
HETATM    9  N   UNL     1      -6.470   1.933 -29.405  1.00  0.00    -0.279 N 
HETATM   10  H   UNL     1      -6.049   1.649 -28.526  1.00  0.00     0.189 HD
HETATM   11  C   UNL     1      -7.197   1.834 -32.970  1.00  0.00     0.074 C 
ENDROOT
BRANCH  11  12
HETATM   12  C   UNL     1      -8.644   1.409 -33.206  1.00  0.00    -0.048 A 
HETATM   13  C   UNL     1      -9.434   2.141 -34.109  1.00  0.00     0.009 A 
HETATM   14  C   UNL     1     -10.764   1.786 -34.349  1.00  0.00     0.024 A 
HETATM   15  C   UNL     1     -11.324   0.692 -33.693  1.00  0.00     0.034 A 
HETATM   16 CL   UNL     1     -12.959   0.254 -33.994  1.00  0.00    -0.084 Cl
HETATM   17  C   UNL     1     -10.560  -0.056 -32.804  1.00  0.00     0.024 A 
HETATM   18  C   UNL     1      -9.229   0.295 -32.571  1.00  0.00     0.009 A 
ENDBRANCH  11  12
BRANCH   1  19
HETATM   19  C   UNL     1      -6.570  -0.261 -34.340  1.00  0.00     0.267 C 
HETATM   20  O   UNL     1      -6.806  -0.112 -35.535  1.00  0.00    -0.265 OA
BRANCH  19  21
HETATM   21  O   UNL     1      -6.699  -1.431 -33.664  1.00  0.00    -0.321 OA
BRANCH  21  22
HETATM   22  C   UNL     1      -6.989  -2.576 -34.480  1.00  0.00     0.174 C 
HETATM   23  C   UNL     1      -5.728  -3.359 -34.805  1.00  0.00     0.034 C 
ENDBRANCH  21  22
ENDBRANCH  19  21
ENDBRANCH   1  19
BRANCH   2  24
HETATM   24  O   UNL     1      -4.329  -0.794 -32.851  1.00  0.00    -0.389 OA
HETATM   25  H   UNL     1      -3.914  -0.656 -33.723  1.00  0.00     0.210 HD
ENDBRANCH   2  24
BRANCH   7  26
HETATM   26  O   UNL     1      -8.438   4.144 -30.992  1.00  0.00    -0.343 OA
HETATM   27  H   UNL     1      -8.433   4.792 -30.272  1.00  0.00     0.219 HD
ENDBRANCH   7  26
TORSDOF 6
ENDMDL
MODEL 2
REMARK VINA RESULT:      -7.3      3.291      4.803
REMARK  6 active torsions:
REMARK  status: ('A' for Active; 'I' for Inactive)
REMARK    1  A    between atoms: C_2  and  O_3 
REMARK    2  A    between atoms: O_3  and  C_4 
REMARK    3  A    between atoms: C_4  and  C_5 
REMARK    4  A    between atoms: C_6  and  O_7 
REMARK    5  A    between atoms: C_12  and  O_13 
REMARK    6  A    between atoms: C_17  and  C_18 
ROOT
HETATM    1  C   UNL     1      -5.874  -1.054 -32.872  1.00  0.00     0.133 C 
HETATM    2  C   UNL     1      -6.214  -1.586 -34.315  1.00  0.00     0.073 C 
HETATM    3  C   UNL     1      -7.191  -2.780 -34.218  1.00  0.00     0.047 C 
HETATM    4  C   UNL     1      -6.823  -0.496 -35.238  1.00  0.00     0.097 C 
HETATM    5  C   UNL     1      -7.921   0.172 -34.509  1.00  0.00     0.042 A 
HETATM    6  C   UNL     1      -7.957   0.391 -33.151  1.00  0.00     0.030 A 
HETATM    7  C   UNL     1      -9.209   0.989 -32.955  1.00  0.00     0.190 A 
HETATM    8  N   UNL     1      -9.914   1.128 -34.072  1.00  0.00    -0.149 NA
HETATM    9  N   UNL     1      -9.099   0.631 -35.021  1.00  0.00    -0.279 N 
HETATM   10  H   UNL     1      -9.426   0.624 -35.982  1.00  0.00     0.189 HD
HETATM   11  C   UNL     1      -6.850  -0.011 -32.231  1.00  0.00     0.074 C 
ENDROOT
BRANCH  11  12
HETATM   12  C   UNL     1      -6.253   1.297 -31.719  1.00  0.00    -0.048 A 
HETATM   13  C   UNL     1      -5.954   2.318 -32.635  1.00  0.00     0.009 A 
HETATM   14  C   UNL     1      -5.402   3.529 -32.205  1.00  0.00     0.024 A 
HETATM   15  C   UNL     1      -5.145   3.736 -30.851  1.00  0.00     0.034 A 
HETATM   16 CL   UNL     1      -4.471   5.227 -30.324  1.00  0.00    -0.084 Cl
HETATM   17  C   UNL     1      -5.443   2.745 -29.923  1.00  0.00     0.024 A 
HETATM   18  C   UNL     1      -6.001   1.540 -30.353  1.00  0.00     0.009 A 
ENDBRANCH  11  12
BRANCH   1  19
HETATM   19  C   UNL     1      -4.411  -0.710 -32.698  1.00  0.00     0.267 C 
HETATM   20  O   UNL     1      -3.802  -0.033 -33.521  1.00  0.00    -0.265 OA
BRANCH  19  21
HETATM   21  O   UNL     1      -3.877  -1.200 -31.551  1.00  0.00    -0.321 OA
BRANCH  21  22
HETATM   22  C   UNL     1      -2.734  -2.051 -31.725  1.00  0.00     0.174 C 
HETATM   23  C   UNL     1      -3.147  -3.478 -32.040  1.00  0.00     0.034 C 
ENDBRANCH  21  22
ENDBRANCH  19  21
ENDBRANCH   1  19
BRANCH   2  24
HETATM   24  O   UNL     1      -5.047  -2.103 -34.973  1.00  0.00    -0.389 OA
HETATM   25  H   UNL     1      -4.356  -1.416 -34.983  1.00  0.00     0.210 HD
ENDBRANCH   2  24
BRANCH   7  26
HETATM   26  O   UNL     1      -9.773   1.434 -31.830  1.00  0.00    -0.343 OA
HETATM   27  H   UNL     1      -9.265   1.121 -31.068  1.00  0.00     0.219 HD
ENDBRANCH   7  26
TORSDOF 6
ENDMDL
MODEL 3
REMARK VINA RESULT:      -7.2      3.872      5.815
REMARK  6 active torsions:
REMARK  status: ('A' for Active; 'I' for Inactive)
REMARK    1  A    between atoms: C_2  and  O_3 
REMARK    2  A    between atoms: O_3  and  C_4 
REMARK    3  A    between atoms: C_4  and  C_5 
REMARK    4  A    between atoms: C_6  and  O_7 
REMARK    5  A    between atoms: C_12  and  O_13 
REMARK    6  A    between atoms: C_17  and  C_18 
ROOT
HETATM    1  C   UNL     1      -6.032   3.799 -32.386  1.00  0.00     0.133 C 
HETATM    2  C   UNL     1      -6.032   4.951 -33.460  1.00  0.00     0.073 C 
HETATM    3  C   UNL     1      -6.086   6.326 -32.757  1.00  0.00     0.047 C 
HETATM    4  C   UNL     1      -4.800   4.903 -34.404  1.00  0.00     0.097 C 
HETATM    5  C   UNL     1      -3.582   4.778 -33.577  1.00  0.00     0.042 A 
HETATM    6  C   UNL     1      -3.499   4.102 -32.381  1.00  0.00     0.030 A 
HETATM    7  C   UNL     1      -2.177   4.329 -31.975  1.00  0.00     0.190 A 
HETATM    8  N   UNL     1      -1.484   5.088 -32.816  1.00  0.00    -0.149 NA
HETATM    9  N   UNL     1      -2.362   5.345 -33.803  1.00  0.00    -0.279 N 
HETATM   10  H   UNL     1      -2.059   5.924 -34.580  1.00  0.00     0.189 HD
HETATM   11  C   UNL     1      -4.654   3.374 -31.775  1.00  0.00     0.074 C 
ENDROOT
BRANCH  11  12
HETATM   12  C   UNL     1      -4.279   1.895 -31.834  1.00  0.00    -0.048 A 
HETATM   13  C   UNL     1      -4.670   1.048 -30.785  1.00  0.00     0.009 A 
HETATM   14  C   UNL     1      -4.344  -0.312 -30.801  1.00  0.00     0.024 A 
HETATM   15  C   UNL     1      -3.624  -0.844 -31.868  1.00  0.00     0.034 A 
HETATM   16 CL   UNL     1      -3.227  -2.516 -31.888  1.00  0.00    -0.084 Cl
HETATM   17  C   UNL     1      -3.235  -0.028 -32.925  1.00  0.00     0.024 A 
HETATM   18  C   UNL     1      -3.569   1.328 -32.911  1.00  0.00     0.009 A 
ENDBRANCH  11  12
BRANCH   1  19
HETATM   19  C   UNL     1      -6.918   2.634 -32.767  1.00  0.00     0.267 C 
HETATM   20  O   UNL     1      -7.746   2.168 -31.989  1.00  0.00    -0.265 OA
BRANCH  19  21
HETATM   21  O   UNL     1      -6.714   2.198 -34.035  1.00  0.00    -0.321 OA
BRANCH  21  22
HETATM   22  C   UNL     1      -7.486   1.048 -34.415  1.00  0.00     0.174 C 
HETATM   23  C   UNL     1      -6.632  -0.208 -34.445  1.00  0.00     0.034 C 
ENDBRANCH  21  22
ENDBRANCH  19  21
ENDBRANCH   1  19
BRANCH   2  24
HETATM   24  O   UNL     1      -7.207   4.900 -34.285  1.00  0.00    -0.389 OA
HETATM   25  H   UNL     1      -7.080   4.228 -34.979  1.00  0.00     0.210 HD
ENDBRANCH   2  24
BRANCH   7  26
HETATM   26  O   UNL     1      -1.533   3.893 -30.890  1.00  0.00    -0.343 OA
HETATM   27  H   UNL     1      -0.579   3.991 -31.020  1.00  0.00     0.219 HD
ENDBRANCH   7  26
TORSDOF 6
ENDMDL
MODEL 4
REMARK VINA RESULT:      -7.1      2.299      2.875
REMARK  6 active torsions:
REMARK  status: ('A' for Active; 'I' for Inactive)
REMARK    1  A    between atoms: C_2  and  O_3 
REMARK    2  A    between atoms: O_3  and  C_4 
REMARK    3  A    between atoms: C_4  and  C_5 
REMARK    4  A    between atoms: C_6  and  O_7 
REMARK    5  A    between atoms: C_12  and  O_13 
REMARK    6  A    between atoms: C_17  and  C_18 
ROOT
HETATM    1  C   UNL     1      -4.588   2.056 -32.941  1.00  0.00     0.133 C 
HETATM    2  C   UNL     1      -3.698   2.878 -31.934  1.00  0.00     0.073 C 
HETATM    3  C   UNL     1      -2.718   3.781 -32.715  1.00  0.00     0.047 C 
HETATM    4  C   UNL     1      -4.532   3.748 -30.954  1.00  0.00     0.097 C 
HETATM    5  C   UNL     1      -5.517   4.520 -31.739  1.00  0.00     0.042 A 
HETATM    6  C   UNL     1      -6.132   4.087 -32.892  1.00  0.00     0.030 A 
HETATM    7  C   UNL     1      -6.911   5.186 -33.274  1.00  0.00     0.190 A 
HETATM    8  N   UNL     1      -6.799   6.228 -32.458  1.00  0.00    -0.149 NA
HETATM    9  N   UNL     1      -5.946   5.795 -31.512  1.00  0.00    -0.279 N 
HETATM   10  H   UNL     1      -5.695   6.431 -30.761  1.00  0.00     0.189 HD
HETATM   11  C   UNL     1      -5.887   2.739 -33.488  1.00  0.00     0.074 C 
ENDROOT
BRANCH  11  12
HETATM   12  C   UNL     1      -7.203   1.981 -33.335  1.00  0.00    -0.048 A 
HETATM   13  C   UNL     1      -7.758   1.340 -34.454  1.00  0.00     0.009 A 
HETATM   14  C   UNL     1      -8.964   0.639 -34.355  1.00  0.00     0.024 A 
HETATM   15  C   UNL     1      -9.630   0.566 -33.134  1.00  0.00     0.034 A 
HETATM   16 CL   UNL     1     -11.110  -0.301 -33.013  1.00  0.00    -0.084 Cl
HETATM   17  C   UNL     1      -9.095   1.182 -32.008  1.00  0.00     0.024 A 
HETATM   18  C   UNL     1      -7.887   1.875 -32.107  1.00  0.00     0.009 A 
ENDBRANCH  11  12
BRANCH   1  19
HETATM   19  C   UNL     1      -4.784   0.617 -32.519  1.00  0.00     0.267 C 
HETATM   20  O   UNL     1      -5.012   0.309 -31.352  1.00  0.00    -0.265 OA
BRANCH  19  21
HETATM   21  O   UNL     1      -4.707  -0.260 -33.552  1.00  0.00    -0.321 OA
BRANCH  21  22
HETATM   22  C   UNL     1      -5.338  -1.529 -33.321  1.00  0.00     0.174 C 
HETATM   23  C   UNL     1      -6.199  -1.944 -34.501  1.00  0.00     0.034 C 
ENDBRANCH  21  22
ENDBRANCH  19  21
ENDBRANCH   1  19
BRANCH   2  24
HETATM   24  O   UNL     1      -2.869   2.015 -31.141  1.00  0.00    -0.389 OA
HETATM   25  H   UNL     1      -2.853   1.128 -31.545  1.00  0.00     0.210 HD
ENDBRANCH   2  24
BRANCH   7  26
HETATM   26  O   UNL     1      -7.737   5.325 -34.314  1.00  0.00    -0.343 OA
HETATM   27  H   UNL     1      -8.254   4.515 -34.426  1.00  0.00     0.219 HD
ENDBRANCH   7  26
TORSDOF 6
ENDMDL
MODEL 5
REMARK VINA RESULT:      -7.1      2.983      4.892
REMARK  6 active torsions:
REMARK  status: ('A' for Active; 'I' for Inactive)
REMARK    1  A    between atoms: C_2  and  O_3 
REMARK    2  A    between atoms: O_3  and  C_4 
REMARK    3  A    between atoms: C_4  and  C_5 
REMARK    4  A    between atoms: C_6  and  O_7 
REMARK    5  A    between atoms: C_12  and  O_13 
REMARK    6  A    between atoms: C_17  and  C_18 
ROOT
HETATM    1  C   UNL     1      -7.530   0.672 -33.152  1.00  0.00     0.133 C 
HETATM    2  C   UNL     1      -9.011   0.935 -33.620  1.00  0.00     0.073 C 
HETATM    3  C   UNL     1      -9.984   0.044 -32.815  1.00  0.00     0.047 C 
HETATM    4  C   UNL     1      -9.438   2.421 -33.482  1.00  0.00     0.097 C 
HETATM    5  C   UNL     1      -9.089   2.883 -32.123  1.00  0.00     0.042 A 
HETATM    6  C   UNL     1      -8.001   2.459 -31.393  1.00  0.00     0.030 A 
HETATM    7  C   UNL     1      -8.149   3.132 -30.174  1.00  0.00     0.190 A 
HETATM    8  N   UNL     1      -9.232   3.900 -30.117  1.00  0.00    -0.149 NA
HETATM    9  N   UNL     1      -9.791   3.743 -31.331  1.00  0.00    -0.279 N 
HETATM   10  H   UNL     1     -10.653   4.240 -31.532  1.00  0.00     0.189 HD
HETATM   11  C   UNL     1      -7.005   1.475 -31.914  1.00  0.00     0.074 C 
ENDROOT
BRANCH  11  12
HETATM   12  C   UNL     1      -5.706   2.260 -32.079  1.00  0.00    -0.048 A 
HETATM   13  C   UNL     1      -4.526   1.758 -31.507  1.00  0.00     0.009 A 
HETATM   14  C   UNL     1      -3.317   2.449 -31.633  1.00  0.00     0.024 A 
HETATM   15  C   UNL     1      -3.270   3.651 -32.336  1.00  0.00     0.034 A 
HETATM   16 CL   UNL     1      -1.782   4.496 -32.494  1.00  0.00    -0.084 Cl
HETATM   17  C   UNL     1      -4.423   4.163 -32.922  1.00  0.00     0.024 A 
HETATM   18  C   UNL     1      -5.627   3.467 -32.803  1.00  0.00     0.009 A 
ENDBRANCH  11  12
BRANCH   1  19
HETATM   19  C   UNL     1      -6.548   0.606 -34.301  1.00  0.00     0.267 C 
HETATM   20  O   UNL     1      -6.627   1.364 -35.264  1.00  0.00    -0.265 OA
BRANCH  19  21
HETATM   21  O   UNL     1      -5.589  -0.338 -34.133  1.00  0.00    -0.321 OA
BRANCH  21  22
HETATM   22  C   UNL     1      -6.054  -1.591 -33.609  1.00  0.00     0.174 C 
HETATM   23  C   UNL     1      -6.645  -2.465 -34.702  1.00  0.00     0.034 C 
ENDBRANCH  21  22
ENDBRANCH  19  21
ENDBRANCH   1  19
BRANCH   2  24
HETATM   24  O   UNL     1      -9.202   0.560 -34.993  1.00  0.00    -0.389 OA
HETATM   25  H   UNL     1      -8.660   1.138 -35.560  1.00  0.00     0.210 HD
ENDBRANCH   2  24
BRANCH   7  26
HETATM   26  O   UNL     1      -7.369   3.115 -29.091  1.00  0.00    -0.343 OA
HETATM   27  H   UNL     1      -7.562   3.888 -28.541  1.00  0.00     0.219 HD
ENDBRANCH   7  26
TORSDOF 6
ENDMDL
MODEL 6
REMARK VINA RESULT:      -6.9      2.850      4.520
REMARK  6 active torsions:
REMARK  status: ('A' for Active; 'I' for Inactive)
REMARK    1  A    between atoms: C_2  and  O_3 
REMARK    2  A    between atoms: O_3  and  C_4 
REMARK    3  A    between atoms: C_4  and  C_5 
REMARK    4  A    between atoms: C_6  and  O_7 
REMARK    5  A    between atoms: C_12  and  O_13 
REMARK    6  A    between atoms: C_17  and  C_18 
ROOT
HETATM    1  C   UNL     1      -6.999   3.175 -31.812  1.00  0.00     0.133 C 
HETATM    2  C   UNL     1      -7.827   3.806 -30.631  1.00  0.00     0.073 C 
HETATM    3  C   UNL     1      -8.074   5.307 -30.906  1.00  0.00     0.047 C 
HETATM    4  C   UNL     1      -9.187   3.096 -30.393  1.00  0.00     0.097 C 
HETATM    5  C   UNL     1      -9.884   2.973 -31.690  1.00  0.00     0.042 A 
HETATM    6  C   UNL     1      -9.270   2.788 -32.908  1.00  0.00     0.030 A 
HETATM    7  C   UNL     1     -10.340   2.798 -33.812  1.00  0.00     0.190 A 
HETATM    8  N   UNL     1     -11.522   2.985 -33.237  1.00  0.00    -0.149 NA
HETATM    9  N   UNL     1     -11.223   3.079 -31.928  1.00  0.00    -0.279 N 
HETATM   10  H   UNL     1     -11.980   3.231 -31.270  1.00  0.00     0.189 HD
HETATM   11  C   UNL     1      -7.789   2.662 -33.063  1.00  0.00     0.074 C 
ENDROOT
BRANCH  11  12
HETATM   12  C   UNL     1      -7.549   1.223 -33.512  1.00  0.00    -0.048 A 
HETATM   13  C   UNL     1      -6.880   0.987 -34.725  1.00  0.00     0.009 A 
HETATM   14  C   UNL     1      -6.644  -0.316 -35.172  1.00  0.00     0.024 A 
HETATM   15  C   UNL     1      -7.070  -1.403 -34.411  1.00  0.00     0.034 A 
HETATM   16 CL   UNL     1      -6.774  -3.005 -34.960  1.00  0.00    -0.084 Cl
HETATM   17  C   UNL     1      -7.723  -1.196 -33.202  1.00  0.00     0.024 A 
HETATM   18  C   UNL     1      -7.951   0.106 -32.752  1.00  0.00     0.009 A 
ENDBRANCH  11  12
BRANCH   1  19
HETATM   19  C   UNL     1      -5.922   2.224 -31.337  1.00  0.00     0.267 C 
HETATM   20  O   UNL     1      -6.104   1.457 -30.396  1.00  0.00    -0.265 OA
BRANCH  19  21
HETATM   21  O   UNL     1      -4.781   2.299 -32.067  1.00  0.00    -0.321 OA
BRANCH  21  22
HETATM   22  C   UNL     1      -3.788   1.311 -31.749  1.00  0.00     0.174 C 
HETATM   23  C   UNL     1      -3.886   0.108 -32.671  1.00  0.00     0.034 C 
ENDBRANCH  21  22
ENDBRANCH  19  21
ENDBRANCH   1  19
BRANCH   2  24
HETATM   24  O   UNL     1      -7.098   3.762 -29.395  1.00  0.00    -0.389 OA
HETATM   25  H   UNL     1      -6.148   3.664 -29.589  1.00  0.00     0.210 HD
ENDBRANCH   2  24
BRANCH   7  26
HETATM   26  O   UNL     1     -10.336   2.641 -35.138  1.00  0.00    -0.343 OA
HETATM   27  H   UNL     1      -9.569   2.112 -35.399  1.00  0.00     0.219 HD
ENDBRANCH   7  26
TORSDOF 6
ENDMDL
MODEL 7
REMARK VINA RESULT:      -6.7     15.287     16.583
REMARK  6 active torsions:
REMARK  status: ('A' for Active; 'I' for Inactive)
REMARK    1  A    between atoms: C_2  and  O_3 
REMARK    2  A    between atoms: O_3  and  C_4 
REMARK    3  A    between atoms: C_4  and  C_5 
REMARK    4  A    between atoms: C_6  and  O_7 
REMARK    5  A    between atoms: C_12  and  O_13 
REMARK    6  A    between atoms: C_17  and  C_18 
ROOT
HETATM    1  C   UNL     1      -5.278 -14.633 -39.823  1.00  0.00     0.133 C 
HETATM    2  C   UNL     1      -5.080 -13.501 -40.900  1.00  0.00     0.073 C 
HETATM    3  C   UNL     1      -5.454 -14.036 -42.301  1.00  0.00     0.047 C 
HETATM    4  C   UNL     1      -5.909 -12.223 -40.599  1.00  0.00     0.097 C 
HETATM    5  C   UNL     1      -7.303 -12.625 -40.319  1.00  0.00     0.042 A 
HETATM    6  C   UNL     1      -7.685 -13.795 -39.704  1.00  0.00     0.030 A 
HETATM    7  C   UNL     1      -9.084 -13.731 -39.731  1.00  0.00     0.190 A 
HETATM    8  N   UNL     1      -9.556 -12.638 -40.319  1.00  0.00    -0.149 NA
HETATM    9  N   UNL     1      -8.444 -11.963 -40.664  1.00  0.00    -0.279 N 
HETATM   10  H   UNL     1      -8.549 -11.074 -41.143  1.00  0.00     0.189 HD
HETATM   11  C   UNL     1      -6.708 -14.812 -39.209  1.00  0.00     0.074 C 
ENDROOT
BRANCH  11  12
HETATM   12  C   UNL     1      -6.833 -14.791 -37.688  1.00  0.00    -0.048 A 
HETATM   13  C   UNL     1      -6.850 -16.008 -36.986  1.00  0.00     0.009 A 
HETATM   14  C   UNL     1      -6.967 -16.031 -35.593  1.00  0.00     0.024 A 
HETATM   15  C   UNL     1      -7.066 -14.837 -34.882  1.00  0.00     0.034 A 
HETATM   16 CL   UNL     1      -7.204 -14.867 -33.169  1.00  0.00    -0.084 Cl
HETATM   17  C   UNL     1      -7.040 -13.619 -35.553  1.00  0.00     0.024 A 
HETATM   18  C   UNL     1      -6.915 -13.598 -36.943  1.00  0.00     0.009 A 
ENDBRANCH  11  12
BRANCH   1  19
HETATM   19  C   UNL     1      -4.164 -14.680 -38.801  1.00  0.00     0.267 C 
HETATM   20  O   UNL     1      -3.622 -15.734 -38.481  1.00  0.00    -0.265 OA
BRANCH  19  21
HETATM   21  O   UNL     1      -3.828 -13.457 -38.318  1.00  0.00    -0.321 OA
BRANCH  21  22
HETATM   22  C   UNL     1      -2.576 -13.403 -37.617  1.00  0.00     0.174 C 
HETATM   23  C   UNL     1      -1.629 -12.396 -38.248  1.00  0.00     0.034 C 
ENDBRANCH  21  22
ENDBRANCH  19  21
ENDBRANCH   1  19
BRANCH   2  24
HETATM   24  O   UNL     1      -3.703 -13.106 -41.000  1.00  0.00    -0.389 OA
HETATM   25  H   UNL     1      -3.199 -13.816 -41.436  1.00  0.00     0.210 HD
ENDBRANCH   2  24
BRANCH   7  26
HETATM   26  O   UNL     1      -9.986 -14.593 -39.253  1.00  0.00    -0.343 OA
HETATM   27  H   UNL     1      -9.802 -15.478 -39.599  1.00  0.00     0.219 HD
ENDBRANCH   7  26
TORSDOF 6
ENDMDL
MODEL 8
REMARK VINA RESULT:      -6.7     14.594     15.911
REMARK  6 active torsions:
REMARK  status: ('A' for Active; 'I' for Inactive)
REMARK    1  A    between atoms: C_2  and  O_3 
REMARK    2  A    between atoms: O_3  and  C_4 
REMARK    3  A    between atoms: C_4  and  C_5 
REMARK    4  A    between atoms: C_6  and  O_7 
REMARK    5  A    between atoms: C_12  and  O_13 
REMARK    6  A    between atoms: C_17  and  C_18 
ROOT
HETATM    1  C   UNL     1      -4.388 -14.056 -37.626  1.00  0.00     0.133 C 
HETATM    2  C   UNL     1      -3.563 -15.144 -36.840  1.00  0.00     0.073 C 
HETATM    3  C   UNL     1      -2.560 -14.455 -35.887  1.00  0.00     0.047 C 
HETATM    4  C   UNL     1      -4.458 -16.119 -36.028  1.00  0.00     0.097 C 
HETATM    5  C   UNL     1      -5.416 -15.322 -35.235  1.00  0.00     0.042 A 
HETATM    6  C   UNL     1      -5.966 -14.121 -35.622  1.00  0.00     0.030 A 
HETATM    7  C   UNL     1      -6.744 -13.752 -34.517  1.00  0.00     0.190 A 
HETATM    8  N   UNL     1      -6.689 -14.619 -33.513  1.00  0.00    -0.149 NA
HETATM    9  N   UNL     1      -5.877 -15.586 -33.978  1.00  0.00    -0.279 N 
HETATM   10  H   UNL     1      -5.674 -16.377 -33.374  1.00  0.00     0.189 HD
HETATM   11  C   UNL     1      -5.670 -13.477 -36.937  1.00  0.00     0.074 C 
ENDROOT
BRANCH  11  12
HETATM   12  C   UNL     1      -6.979 -13.529 -37.720  1.00  0.00    -0.048 A 
HETATM   13  C   UNL     1      -7.454 -12.361 -38.338  1.00  0.00     0.009 A 
HETATM   14  C   UNL     1      -8.651 -12.367 -39.061  1.00  0.00     0.024 A 
HETATM   15  C   UNL     1      -9.388 -13.543 -39.179  1.00  0.00     0.034 A 
HETATM   16 CL   UNL     1     -10.857 -13.550 -40.072  1.00  0.00    -0.084 Cl
HETATM   17  C   UNL     1      -8.934 -14.715 -38.586  1.00  0.00     0.024 A 
HETATM   18  C   UNL     1      -7.734 -14.709 -37.872  1.00  0.00     0.009 A 
ENDBRANCH  11  12
BRANCH   1  19
HETATM   19  C   UNL     1      -4.581 -14.401 -39.086  1.00  0.00     0.267 C 
HETATM   20  O   UNL     1      -4.877 -15.536 -39.450  1.00  0.00    -0.265 OA
BRANCH  19  21
HETATM   21  O   UNL     1      -4.420 -13.339 -39.914  1.00  0.00    -0.321 OA
BRANCH  21  22
HETATM   22  C   UNL     1      -4.718 -13.592 -41.296  1.00  0.00     0.174 C 
HETATM   23  C   UNL     1      -6.144 -13.197 -41.637  1.00  0.00     0.034 C 
ENDBRANCH  21  22
ENDBRANCH  19  21
ENDBRANCH   1  19
BRANCH   2  24
HETATM   24  O   UNL     1      -2.759 -15.937 -37.727  1.00  0.00    -0.389 OA
HETATM   25  H   UNL     1      -1.937 -16.191 -37.270  1.00  0.00     0.210 HD
ENDBRANCH   2  24
BRANCH   7  26
HETATM   26  O   UNL     1      -7.519 -12.679 -34.342  1.00  0.00    -0.343 OA
HETATM   27  H   UNL     1      -8.138 -12.603 -35.082  1.00  0.00     0.219 HD
ENDBRANCH   7  26
TORSDOF 6
ENDMDL
MODEL 9
REMARK VINA RESULT:      -6.5      3.304      5.328
REMARK  6 active torsions:
REMARK  status: ('A' for Active; 'I' for Inactive)
REMARK    1  A    between atoms: C_2  and  O_3 
REMARK    2  A    between atoms: O_3  and  C_4 
REMARK    3  A    between atoms: C_4  and  C_5 
REMARK    4  A    between atoms: C_6  and  O_7 
REMARK    5  A    between atoms: C_12  and  O_13 
REMARK    6  A    between atoms: C_17  and  C_18 
ROOT
HETATM    1  C   UNL     1      -7.081   4.036 -32.168  1.00  0.00     0.133 C 
HETATM    2  C   UNL     1      -6.630   5.408 -32.795  1.00  0.00     0.073 C 
HETATM    3  C   UNL     1      -6.171   6.372 -31.677  1.00  0.00     0.047 C 
HETATM    4  C   UNL     1      -5.492   5.256 -33.841  1.00  0.00     0.097 C 
HETATM    5  C   UNL     1      -4.425   4.422 -33.252  1.00  0.00     0.042 A 
HETATM    6  C   UNL     1      -4.621   3.388 -32.365  1.00  0.00     0.030 A 
HETATM    7  C   UNL     1      -3.318   2.968 -32.066  1.00  0.00     0.190 A 
HETATM    8  N   UNL     1      -2.377   3.671 -32.686  1.00  0.00    -0.149 NA
HETATM    9  N   UNL     1      -3.078   4.553 -33.422  1.00  0.00    -0.279 N 
HETATM   10  H   UNL     1      -2.566   5.217 -33.994  1.00  0.00     0.189 HD
HETATM   11  C   UNL     1      -5.975   2.960 -31.900  1.00  0.00     0.074 C 
ENDROOT
BRANCH  11  12
HETATM   12  C   UNL     1      -6.185   1.567 -32.487  1.00  0.00    -0.048 A 
HETATM   13  C   UNL     1      -6.090   1.388 -33.876  1.00  0.00     0.009 A 
HETATM   14  C   UNL     1      -6.280   0.129 -34.453  1.00  0.00     0.024 A 
HETATM   15  C   UNL     1      -6.564  -0.972 -33.647  1.00  0.00     0.034 A 
HETATM   16 CL   UNL     1      -6.792  -2.520 -34.357  1.00  0.00    -0.084 Cl
HETATM   17  C   UNL     1      -6.651  -0.823 -32.267  1.00  0.00     0.024 A 
HETATM   18  C   UNL     1      -6.454   0.434 -31.692  1.00  0.00     0.009 A 
ENDBRANCH  11  12
BRANCH   1  19
HETATM   19  C   UNL     1      -8.335   3.479 -32.804  1.00  0.00     0.267 C 
HETATM   20  O   UNL     1      -8.542   3.563 -34.011  1.00  0.00    -0.265 OA
BRANCH  19  21
HETATM   21  O   UNL     1      -9.163   2.873 -31.916  1.00  0.00    -0.321 OA
BRANCH  21  22
HETATM   22  C   UNL     1      -9.363   3.587 -30.686  1.00  0.00     0.174 C 
HETATM   23  C   UNL     1     -10.766   4.163 -30.600  1.00  0.00     0.034 C 
ENDBRANCH  21  22
ENDBRANCH  19  21
ENDBRANCH   1  19
BRANCH   2  24
HETATM   24  O   UNL     1      -7.724   6.075 -33.444  1.00  0.00    -0.389 OA
HETATM   25  H   UNL     1      -8.244   5.419 -33.944  1.00  0.00     0.210 HD
ENDBRANCH   2  24
BRANCH   7  26
HETATM   26  O   UNL     1      -2.903   1.980 -31.270  1.00  0.00    -0.343 OA
HETATM   27  H   UNL     1      -2.198   2.306 -30.692  1.00  0.00     0.219 HD
ENDBRANCH   7  26
TORSDOF 6
ENDMDL
MODEL 10
REMARK VINA RESULT:      -6.4      2.600      3.247
REMARK  6 active torsions:
REMARK  status: ('A' for Active; 'I' for Inactive)
REMARK    1  A    between atoms: C_2  and  O_3 
REMARK    2  A    between atoms: O_3  and  C_4 
REMARK    3  A    between atoms: C_4  and  C_5 
REMARK    4  A    between atoms: C_6  and  O_7 
REMARK    5  A    between atoms: C_12  and  O_13 
REMARK    6  A    between atoms: C_17  and  C_18 
ROOT
HETATM    1  C   UNL     1      -5.521   0.475 -32.923  1.00  0.00     0.133 C 
HETATM    2  C   UNL     1      -4.184  -0.032 -32.263  1.00  0.00     0.073 C 
HETATM    3  C   UNL     1      -3.069  -0.113 -33.330  1.00  0.00     0.047 C 
HETATM    4  C   UNL     1      -3.707   0.863 -31.087  1.00  0.00     0.097 C 
HETATM    5  C   UNL     1      -3.725   2.271 -31.535  1.00  0.00     0.042 A 
HETATM    6  C   UNL     1      -4.623   2.811 -32.427  1.00  0.00     0.030 A 
HETATM    7  C   UNL     1      -4.185   4.135 -32.563  1.00  0.00     0.190 A 
HETATM    8  N   UNL     1      -3.104   4.415 -31.844  1.00  0.00    -0.149 NA
HETATM    9  N   UNL     1      -2.842   3.258 -31.207  1.00  0.00    -0.279 N 
HETATM   10  H   UNL     1      -2.041   3.221 -30.586  1.00  0.00     0.189 HD
HETATM   11  C   UNL     1      -5.732   2.023 -33.044  1.00  0.00     0.074 C 
ENDROOT
BRANCH  11  12
HETATM   12  C   UNL     1      -7.018   2.609 -32.470  1.00  0.00    -0.048 A 
HETATM   13  C   UNL     1      -7.099   2.862 -31.091  1.00  0.00     0.009 A 
HETATM   14  C   UNL     1      -8.261   3.396 -30.526  1.00  0.00     0.024 A 
HETATM   15  C   UNL     1      -9.358   3.688 -31.333  1.00  0.00     0.034 A 
HETATM   16 CL   UNL     1     -10.784   4.348 -30.637  1.00  0.00    -0.084 Cl
HETATM   17  C   UNL     1      -9.299   3.457 -32.703  1.00  0.00     0.024 A 
HETATM   18  C   UNL     1      -8.135   2.932 -33.267  1.00  0.00     0.009 A 
ENDBRANCH  11  12
BRANCH   1  19
HETATM   19  C   UNL     1      -6.742  -0.272 -32.434  1.00  0.00     0.267 C 
HETATM   20  O   UNL     1      -6.946  -0.469 -31.240  1.00  0.00    -0.265 OA
BRANCH  19  21
HETATM   21  O   UNL     1      -7.569  -0.661 -33.437  1.00  0.00    -0.321 OA
BRANCH  21  22
HETATM   22  C   UNL     1      -6.910  -1.153 -34.614  1.00  0.00     0.174 C 
HETATM   23  C   UNL     1      -6.712  -2.657 -34.551  1.00  0.00     0.034 C 
ENDBRANCH  21  22
ENDBRANCH  19  21
ENDBRANCH   1  19
BRANCH   2  24
HETATM   24  O   UNL     1      -4.321  -1.369 -31.757  1.00  0.00    -0.389 OA
HETATM   25  H   UNL     1      -3.578  -1.910 -32.080  1.00  0.00     0.210 HD
ENDBRANCH   2  24
BRANCH   7  26
HETATM   26  O   UNL     1      -4.695   5.130 -33.292  1.00  0.00    -0.343 OA
HETATM   27  H   UNL     1      -5.653   5.017 -33.367  1.00  0.00     0.219 HD
ENDBRANCH   7  26
TORSDOF 6
ENDMDL
