MODEL 1
REMARK VINA RESULT:      -7.7      0.000      0.000
REMARK  5 active torsions:
REMARK  status: ('A' for Active; 'I' for Inactive)
REMARK    1  A    between atoms: C_2  and  O_3 
REMARK    2  A    between atoms: C_4  and  C_5 
REMARK    3  A    between atoms: C_5  and  O_6 
REMARK    4  A    between atoms: C_9  and  C_10 
REMARK    5  A    between atoms: C_22  and  O_23 
ROOT
HETATM    1  C   UNL     1      -8.923   1.164 -32.847  1.00  0.00     0.047 C 
HETATM    2  C   UNL     1      -7.902   2.296 -32.642  1.00  0.00     0.073 C 
HETATM    3  C   UNL     1      -6.596   2.039 -33.464  1.00  0.00     0.133 C 
HETATM    4  C   UNL     1      -5.581   1.007 -32.886  1.00  0.00     0.074 C 
HETATM    5  C   UNL     1      -5.662   0.919 -31.401  1.00  0.00     0.030 A 
HETATM    6  C   UNL     1      -6.596   1.587 -30.638  1.00  0.00     0.042 A 
HETATM    7  N   UNL     1      -6.319   1.300 -29.331  1.00  0.00    -0.279 N 
HETATM    8  H   UNL     1      -6.795   1.627 -28.495  1.00  0.00     0.189 HD
HETATM    9  N   UNL     1      -5.247   0.493 -29.189  1.00  0.00    -0.149 NA
HETATM   10  C   UNL     1      -4.857   0.301 -30.443  1.00  0.00     0.190 A 
HETATM   11  C   UNL     1      -7.651   2.506 -31.123  1.00  0.00     0.097 C 
ENDROOT
BRANCH   4  12
HETATM   12  C   UNL     1      -5.745  -0.389 -33.486  1.00  0.00    -0.048 A 
HETATM   13  C   UNL     1      -4.570  -1.117 -33.769  1.00  0.00     0.009 A 
HETATM   14  C   UNL     1      -4.627  -2.397 -34.325  1.00  0.00     0.024 A 
HETATM   15  C   UNL     1      -5.860  -2.970 -34.616  1.00  0.00     0.034 A 
HETATM   16 CL   UNL     1      -5.935  -4.546 -35.301  1.00  0.00    -0.084 Cl
HETATM   17  C   UNL     1      -7.034  -2.273 -34.353  1.00  0.00     0.024 A 
HETATM   18  C   UNL     1      -6.976  -0.992 -33.791  1.00  0.00     0.009 A 
ENDBRANCH   4  12
BRANCH   3  19
HETATM   19  C   UNL     1      -5.878   3.351 -33.729  1.00  0.00     0.266 C 
HETATM   20  O   UNL     1      -6.343   4.223 -34.455  1.00  0.00    -0.265 OA
BRANCH  19  21
HETATM   21  O   UNL     1      -4.692   3.442 -33.074  1.00  0.00    -0.326 OA
HETATM   22  C   UNL     1      -4.612   4.524 -32.144  1.00  0.00     0.213 C 
ENDBRANCH  19  21
ENDBRANCH   3  19
BRANCH   2  23
HETATM   23  O   UNL     1      -8.565   3.480 -33.127  1.00  0.00    -0.389 OA
HETATM   24  H   UNL     1      -9.519   3.296 -33.207  1.00  0.00     0.210 HD
ENDBRANCH   2  23
BRANCH  10  25
HETATM   25  O   UNL     1      -3.765  -0.439 -30.594  1.00  0.00    -0.343 OA
HETATM   26  H   UNL     1      -4.069  -1.353 -30.463  1.00  0.00     0.219 HD
ENDBRANCH  10  25
TORSDOF 5
ENDMDL
MODEL 2
REMARK VINA RESULT:      -7.5      2.347      3.416
REMARK  5 active torsions:
REMARK  status: ('A' for Active; 'I' for Inactive)
REMARK    1  A    between atoms: C_2  and  O_3 
REMARK    2  A    between atoms: C_4  and  C_5 
REMARK    3  A    between atoms: C_5  and  O_6 
REMARK    4  A    between atoms: C_9  and  C_10 
REMARK    5  A    between atoms: C_22  and  O_23 
ROOT
HETATM    1  C   UNL     1      -5.507   4.232 -34.380  1.00  0.00     0.047 C 
HETATM    2  C   UNL     1      -4.866   4.880 -33.141  1.00  0.00     0.073 C 
HETATM    3  C   UNL     1      -3.848   3.910 -32.453  1.00  0.00     0.133 C 
HETATM    4  C   UNL     1      -4.436   2.772 -31.565  1.00  0.00     0.074 C 
HETATM    5  C   UNL     1      -5.755   3.146 -30.981  1.00  0.00     0.030 A 
HETATM    6  C   UNL     1      -6.427   4.314 -31.277  1.00  0.00     0.042 A 
HETATM    7  N   UNL     1      -7.560   4.324 -30.515  1.00  0.00    -0.279 N 
HETATM    8  H   UNL     1      -8.286   5.033 -30.466  1.00  0.00     0.189 HD
HETATM    9  N   UNL     1      -7.666   3.237 -29.721  1.00  0.00    -0.149 NA
HETATM   10  C   UNL     1      -6.558   2.562 -30.003  1.00  0.00     0.190 A 
HETATM   11  C   UNL     1      -5.978   5.395 -32.184  1.00  0.00     0.097 C 
ENDROOT
BRANCH   4  12
HETATM   12  C   UNL     1      -4.572   1.445 -32.311  1.00  0.00    -0.048 A 
HETATM   13  C   UNL     1      -3.472   0.562 -32.272  1.00  0.00     0.009 A 
HETATM   14  C   UNL     1      -3.507  -0.669 -32.932  1.00  0.00     0.024 A 
HETATM   15  C   UNL     1      -4.640  -1.036 -33.650  1.00  0.00     0.034 A 
HETATM   16 CL   UNL     1      -4.687  -2.551 -34.464  1.00  0.00    -0.084 Cl
HETATM   17  C   UNL     1      -5.736  -0.183 -33.709  1.00  0.00     0.024 A 
HETATM   18  C   UNL     1      -5.703   1.048 -33.044  1.00  0.00     0.009 A 
ENDBRANCH   4  12
BRANCH   3  19
HETATM   19  C   UNL     1      -2.835   4.701 -31.645  1.00  0.00     0.266 C 
HETATM   20  O   UNL     1      -3.160   5.607 -30.885  1.00  0.00    -0.265 OA
BRANCH  19  21
HETATM   21  O   UNL     1      -1.559   4.287 -31.853  1.00  0.00    -0.326 OA
HETATM   22  C   UNL     1      -0.564   5.275 -31.580  1.00  0.00     0.213 C 
ENDBRANCH  19  21
ENDBRANCH   3  19
BRANCH   2  23
HETATM   23  O   UNL     1      -4.177   6.039 -33.648  1.00  0.00    -0.389 OA
HETATM   24  H   UNL     1      -3.221   5.850 -33.677  1.00  0.00     0.210 HD
ENDBRANCH   2  23
BRANCH  10  25
HETATM   25  O   UNL     1      -6.382   1.443 -29.309  1.00  0.00    -0.343 OA
HETATM   26  H   UNL     1      -5.527   1.096 -29.619  1.00  0.00     0.219 HD
ENDBRANCH  10  25
TORSDOF 5
ENDMDL
MODEL 3
REMARK VINA RESULT:      -7.3      3.211      5.256
REMARK  5 active torsions:
REMARK  status: ('A' for Active; 'I' for Inactive)
REMARK    1  A    between atoms: C_2  and  O_3 
REMARK    2  A    between atoms: C_4  and  C_5 
REMARK    3  A    between atoms: C_5  and  O_6 
REMARK    4  A    between atoms: C_9  and  C_10 
REMARK    5  A    between atoms: C_22  and  O_23 
ROOT
HETATM    1  C   UNL     1      -4.422   0.157 -32.539  1.00  0.00     0.047 C 
HETATM    2  C   UNL     1      -5.943   0.236 -32.751  1.00  0.00     0.073 C 
HETATM    3  C   UNL     1      -6.321   1.394 -33.732  1.00  0.00     0.133 C 
HETATM    4  C   UNL     1      -6.317   2.844 -33.159  1.00  0.00     0.074 C 
HETATM    5  C   UNL     1      -6.601   2.865 -31.697  1.00  0.00     0.030 A 
HETATM    6  C   UNL     1      -6.741   1.733 -30.921  1.00  0.00     0.042 A 
HETATM    7  N   UNL     1      -7.044   2.152 -29.657  1.00  0.00    -0.279 N 
HETATM    8  H   UNL     1      -7.226   1.593 -28.829  1.00  0.00     0.189 HD
HETATM    9  N   UNL     1      -7.128   3.496 -29.558  1.00  0.00    -0.149 NA
HETATM   10  C   UNL     1      -6.883   3.896 -30.800  1.00  0.00     0.190 A 
HETATM   11  C   UNL     1      -6.661   0.325 -31.376  1.00  0.00     0.097 C 
ENDROOT
BRANCH   4  12
HETATM   12  C   UNL     1      -5.011   3.589 -33.431  1.00  0.00    -0.048 A 
HETATM   13  C   UNL     1      -5.003   4.522 -34.489  1.00  0.00     0.009 A 
HETATM   14  C   UNL     1      -3.850   5.242 -34.813  1.00  0.00     0.024 A 
HETATM   15  C   UNL     1      -2.681   5.035 -34.089  1.00  0.00     0.034 A 
HETATM   16 CL   UNL     1      -1.259   5.918 -34.484  1.00  0.00    -0.084 Cl
HETATM   17  C   UNL     1      -2.659   4.116 -33.045  1.00  0.00     0.024 A 
HETATM   18  C   UNL     1      -3.816   3.400 -32.718  1.00  0.00     0.009 A 
ENDBRANCH   4  12
BRANCH   3  19
HETATM   19  C   UNL     1      -7.667   1.116 -34.378  1.00  0.00     0.266 C 
HETATM   20  O   UNL     1      -7.819   0.264 -35.246  1.00  0.00    -0.265 OA
BRANCH  19  21
HETATM   21  O   UNL     1      -8.659   1.900 -33.882  1.00  0.00    -0.326 OA
HETATM   22  C   UNL     1      -9.766   1.180 -33.338  1.00  0.00     0.213 C 
ENDBRANCH  19  21
ENDBRANCH   3  19
BRANCH   2  23
HETATM   23  O   UNL     1      -6.299  -1.036 -33.329  1.00  0.00    -0.389 OA
HETATM   24  H   UNL     1      -5.787  -1.737 -32.886  1.00  0.00     0.210 HD
ENDBRANCH   2  23
BRANCH  10  25
HETATM   25  O   UNL     1      -6.949   5.207 -31.001  1.00  0.00    -0.343 OA
HETATM   26  H   UNL     1      -6.207   5.400 -31.599  1.00  0.00     0.219 HD
ENDBRANCH  10  25
TORSDOF 5
ENDMDL
MODEL 4
REMARK VINA RESULT:      -7.2      2.728      4.079
REMARK  5 active torsions:
REMARK  status: ('A' for Active; 'I' for Inactive)
REMARK    1  A    between atoms: C_2  and  O_3 
REMARK    2  A    between atoms: C_4  and  C_5 
REMARK    3  A    between atoms: C_5  and  O_6 
REMARK    4  A    between atoms: C_9  and  C_10 
REMARK    5  A    between atoms: C_22  and  O_23 
ROOT
HETATM    1  C   UNL     1      -6.389   1.643 -30.070  1.00  0.00     0.047 C 
HETATM    2  C   UNL     1      -5.224   2.011 -31.005  1.00  0.00     0.073 C 
HETATM    3  C   UNL     1      -5.742   2.455 -32.413  1.00  0.00     0.133 C 
HETATM    4  C   UNL     1      -6.187   1.330 -33.396  1.00  0.00     0.074 C 
HETATM    5  C   UNL     1      -5.470   0.050 -33.138  1.00  0.00     0.030 A 
HETATM    6  C   UNL     1      -4.599  -0.149 -32.087  1.00  0.00     0.042 A 
HETATM    7  N   UNL     1      -4.107  -1.417 -32.214  1.00  0.00    -0.279 N 
HETATM    8  H   UNL     1      -3.434  -1.899 -31.624  1.00  0.00     0.189 HD
HETATM    9  N   UNL     1      -4.591  -2.060 -33.297  1.00  0.00    -0.149 NA
HETATM   10  C   UNL     1      -5.386  -1.149 -33.846  1.00  0.00     0.190 A 
HETATM   11  C   UNL     1      -4.204   0.840 -31.058  1.00  0.00     0.097 C 
ENDROOT
BRANCH   4  12
HETATM   12  C   UNL     1      -7.694   1.079 -33.372  1.00  0.00    -0.048 A 
HETATM   13  C   UNL     1      -8.502   1.898 -34.188  1.00  0.00     0.009 A 
HETATM   14  C   UNL     1      -9.891   1.744 -34.221  1.00  0.00     0.024 A 
HETATM   15  C   UNL     1     -10.497   0.772 -33.433  1.00  0.00     0.034 A 
HETATM   16 CL   UNL     1     -12.206   0.579 -33.471  1.00  0.00    -0.084 Cl
HETATM   17  C   UNL     1      -9.725  -0.045 -32.615  1.00  0.00     0.024 A 
HETATM   18  C   UNL     1      -8.334   0.107 -32.586  1.00  0.00     0.009 A 
ENDBRANCH   4  12
BRANCH   3  19
HETATM   19  C   UNL     1      -4.713   3.337 -33.096  1.00  0.00     0.266 C 
HETATM   20  O   UNL     1      -3.515   3.276 -32.837  1.00  0.00    -0.265 OA
BRANCH  19  21
HETATM   21  O   UNL     1      -5.263   4.172 -34.014  1.00  0.00    -0.326 OA
HETATM   22  C   UNL     1      -6.162   5.139 -33.471  1.00  0.00     0.213 C 
ENDBRANCH  19  21
ENDBRANCH   3  19
BRANCH   2  23
HETATM   23  O   UNL     1      -4.565   3.114 -30.352  1.00  0.00    -0.389 OA
HETATM   24  H   UNL     1      -5.207   3.836 -30.229  1.00  0.00     0.210 HD
ENDBRANCH   2  23
BRANCH  10  25
HETATM   25  O   UNL     1      -5.970  -1.512 -34.982  1.00  0.00    -0.343 OA
HETATM   26  H   UNL     1      -6.066  -2.477 -34.909  1.00  0.00     0.219 HD
ENDBRANCH  10  25
TORSDOF 5
ENDMDL
MODEL 5
REMARK VINA RESULT:      -7.1      4.808      7.371
REMARK  5 active torsions:
REMARK  status: ('A' for Active; 'I' for Inactive)
REMARK    1  A    between atoms: C_2  and  O_3 
REMARK    2  A    between atoms: C_4  and  C_5 
REMARK    3  A    between atoms: C_5  and  O_6 
REMARK    4  A    between atoms: C_9  and  C_10 
REMARK    5  A    between atoms: C_22  and  O_23 
ROOT
HETATM    1  C   UNL     1      -5.215   4.716 -30.412  1.00  0.00     0.047 C 
HETATM    2  C   UNL     1      -4.995   3.475 -31.293  1.00  0.00     0.073 C 
HETATM    3  C   UNL     1      -3.498   3.021 -31.272  1.00  0.00     0.133 C 
HETATM    4  C   UNL     1      -2.495   3.832 -32.148  1.00  0.00     0.074 C 
HETATM    5  C   UNL     1      -3.161   4.452 -33.327  1.00  0.00     0.030 A 
HETATM    6  C   UNL     1      -4.520   4.408 -33.558  1.00  0.00     0.042 A 
HETATM    7  N   UNL     1      -4.740   5.035 -34.751  1.00  0.00    -0.279 N 
HETATM    8  H   UNL     1      -5.619   5.180 -35.240  1.00  0.00     0.189 HD
HETATM    9  N   UNL     1      -3.602   5.476 -35.328  1.00  0.00    -0.149 NA
HETATM   10  C   UNL     1      -2.670   5.091 -34.466  1.00  0.00     0.190 A 
HETATM   11  C   UNL     1      -5.545   3.742 -32.722  1.00  0.00     0.097 C 
ENDROOT
BRANCH   4  12
HETATM   12  C   UNL     1      -1.753   4.911 -31.359  1.00  0.00    -0.048 A 
HETATM   13  C   UNL     1      -0.481   4.583 -30.848  1.00  0.00     0.009 A 
HETATM   14  C   UNL     1       0.263   5.506 -30.108  1.00  0.00     0.024 A 
HETATM   15  C   UNL     1      -0.256   6.772 -29.861  1.00  0.00     0.034 A 
HETATM   16 CL   UNL     1       0.657   7.911 -28.951  1.00  0.00    -0.084 Cl
HETATM   17  C   UNL     1      -1.510   7.120 -30.349  1.00  0.00     0.024 A 
HETATM   18  C   UNL     1      -2.253   6.196 -31.093  1.00  0.00     0.009 A 
ENDBRANCH   4  12
BRANCH   3  19
HETATM   19  C   UNL     1      -3.392   1.548 -31.626  1.00  0.00     0.266 C 
HETATM   20  O   UNL     1      -2.681   0.769 -31.000  1.00  0.00    -0.265 OA
BRANCH  19  21
HETATM   21  O   UNL     1      -4.169   1.205 -32.685  1.00  0.00    -0.326 OA
HETATM   22  C   UNL     1      -4.232  -0.198 -32.944  1.00  0.00     0.213 C 
ENDBRANCH  19  21
ENDBRANCH   3  19
BRANCH   2  23
HETATM   23  O   UNL     1      -5.828   2.456 -30.706  1.00  0.00    -0.389 OA
HETATM   24  H   UNL     1      -6.337   2.019 -31.413  1.00  0.00     0.210 HD
ENDBRANCH   2  23
BRANCH  10  25
HETATM   25  O   UNL     1      -1.419   5.365 -34.818  1.00  0.00    -0.343 OA
HETATM   26  H   UNL     1      -1.382   6.336 -34.854  1.00  0.00     0.219 HD
ENDBRANCH  10  25
TORSDOF 5
ENDMDL
MODEL 6
REMARK VINA RESULT:      -6.9      1.946      2.929
REMARK  5 active torsions:
REMARK  status: ('A' for Active; 'I' for Inactive)
REMARK    1  A    between atoms: C_2  and  O_3 
REMARK    2  A    between atoms: C_4  and  C_5 
REMARK    3  A    between atoms: C_5  and  O_6 
REMARK    4  A    between atoms: C_9  and  C_10 
REMARK    5  A    between atoms: C_22  and  O_23 
ROOT
HETATM    1  C   UNL     1      -7.380  -0.066 -30.333  1.00  0.00     0.047 C 
HETATM    2  C   UNL     1      -7.649   1.197 -31.169  1.00  0.00     0.073 C 
HETATM    3  C   UNL     1      -7.268   0.976 -32.671  1.00  0.00     0.133 C 
HETATM    4  C   UNL     1      -5.755   1.043 -33.040  1.00  0.00     0.074 C 
HETATM    5  C   UNL     1      -4.993   1.921 -32.108  1.00  0.00     0.030 A 
HETATM    6  C   UNL     1      -5.538   2.514 -30.988  1.00  0.00     0.042 A 
HETATM    7  N   UNL     1      -4.553   3.276 -30.425  1.00  0.00    -0.279 N 
HETATM    8  H   UNL     1      -4.599   3.860 -29.595  1.00  0.00     0.189 HD
HETATM    9  N   UNL     1      -3.396   3.231 -31.118  1.00  0.00    -0.149 NA
HETATM   10  C   UNL     1      -3.696   2.432 -32.135  1.00  0.00     0.190 A 
HETATM   11  C   UNL     1      -6.939   2.417 -30.520  1.00  0.00     0.097 C 
ENDROOT
BRANCH   4  12
HETATM   12  C   UNL     1      -5.094  -0.333 -33.094  1.00  0.00    -0.048 A 
HETATM   13  C   UNL     1      -5.471  -1.195 -34.145  1.00  0.00     0.009 A 
HETATM   14  C   UNL     1      -4.922  -2.474 -34.266  1.00  0.00     0.024 A 
HETATM   15  C   UNL     1      -3.991  -2.917 -33.334  1.00  0.00     0.034 A 
HETATM   16 CL   UNL     1      -3.313  -4.492 -33.479  1.00  0.00    -0.084 Cl
HETATM   17  C   UNL     1      -3.606  -2.091 -32.284  1.00  0.00     0.024 A 
HETATM   18  C   UNL     1      -4.152  -0.808 -32.166  1.00  0.00     0.009 A 
ENDBRANCH   4  12
BRANCH   3  19
HETATM   19  C   UNL     1      -8.041   1.939 -33.554  1.00  0.00     0.266 C 
HETATM   20  O   UNL     1      -7.782   3.137 -33.609  1.00  0.00    -0.265 OA
BRANCH  19  21
HETATM   21  O   UNL     1      -9.022   1.328 -34.267  1.00  0.00    -0.326 OA
HETATM   22  C   UNL     1     -10.277   2.009 -34.252  1.00  0.00     0.213 C 
ENDBRANCH  19  21
ENDBRANCH   3  19
BRANCH   2  23
HETATM   23  O   UNL     1      -9.067   1.421 -31.048  1.00  0.00    -0.389 OA
HETATM   24  H   UNL     1      -9.217   2.164 -30.434  1.00  0.00     0.210 HD
ENDBRANCH   2  23
BRANCH  10  25
HETATM   25  O   UNL     1      -2.724   2.248 -33.021  1.00  0.00    -0.343 OA
HETATM   26  H   UNL     1      -2.052   1.734 -32.542  1.00  0.00     0.219 HD
ENDBRANCH  10  25
TORSDOF 5
ENDMDL
MODEL 7
REMARK VINA RESULT:      -6.9      1.952      2.816
REMARK  5 active torsions:
REMARK  status: ('A' for Active; 'I' for Inactive)
REMARK    1  A    between atoms: C_2  and  O_3 
REMARK    2  A    between atoms: C_4  and  C_5 
REMARK    3  A    between atoms: C_5  and  O_6 
REMARK    4  A    between atoms: C_9  and  C_10 
REMARK    5  A    between atoms: C_22  and  O_23 
ROOT
HETATM    1  C   UNL     1      -8.831   2.200 -31.016  1.00  0.00     0.047 C 
HETATM    2  C   UNL     1      -8.349   3.527 -31.625  1.00  0.00     0.073 C 
HETATM    3  C   UNL     1      -7.903   3.342 -33.113  1.00  0.00     0.133 C 
HETATM    4  C   UNL     1      -6.502   2.708 -33.365  1.00  0.00     0.074 C 
HETATM    5  C   UNL     1      -5.561   2.974 -32.241  1.00  0.00     0.030 A 
HETATM    6  C   UNL     1      -5.917   3.609 -31.070  1.00  0.00     0.042 A 
HETATM    7  N   UNL     1      -4.784   3.714 -30.314  1.00  0.00    -0.279 N 
HETATM    8  H   UNL     1      -4.669   4.136 -29.397  1.00  0.00     0.189 HD
HETATM    9  N   UNL     1      -3.698   3.198 -30.927  1.00  0.00    -0.149 NA
HETATM   10  C   UNL     1      -4.187   2.785 -32.089  1.00  0.00     0.190 A 
HETATM   11  C   UNL     1      -7.250   4.151 -30.720  1.00  0.00     0.097 C 
ENDROOT
BRANCH   4  12
HETATM   12  C   UNL     1      -6.567   1.203 -33.624  1.00  0.00    -0.048 A 
HETATM   13  C   UNL     1      -7.094   0.779 -34.862  1.00  0.00     0.009 A 
HETATM   14  C   UNL     1      -7.198  -0.577 -35.180  1.00  0.00     0.024 A 
HETATM   15  C   UNL     1      -6.784  -1.535 -34.261  1.00  0.00     0.034 A 
HETATM   16 CL   UNL     1      -6.910  -3.207 -34.648  1.00  0.00    -0.084 Cl
HETATM   17  C   UNL     1      -6.265  -1.146 -33.031  1.00  0.00     0.024 A 
HETATM   18  C   UNL     1      -6.157   0.213 -32.716  1.00  0.00     0.009 A 
ENDBRANCH   4  12
BRANCH   3  19
HETATM   19  C   UNL     1      -7.994   4.664 -33.856  1.00  0.00     0.266 C 
HETATM   20  O   UNL     1      -7.041   5.429 -33.957  1.00  0.00    -0.265 OA
BRANCH  19  21
HETATM   21  O   UNL     1      -9.223   4.884 -34.389  1.00  0.00    -0.326 OA
HETATM   22  C   UNL     1      -9.938   3.698 -34.738  1.00  0.00     0.213 C 
ENDBRANCH  19  21
ENDBRANCH   3  19
BRANCH   2  23
HETATM   23  O   UNL     1      -9.494   4.399 -31.558  1.00  0.00    -0.389 OA
HETATM   24  H   UNL     1      -9.972   4.227 -30.726  1.00  0.00     0.210 HD
ENDBRANCH   2  23
BRANCH  10  25
HETATM   25  O   UNL     1      -3.300   2.263 -32.929  1.00  0.00    -0.343 OA
HETATM   26  H   UNL     1      -2.794   3.028 -33.254  1.00  0.00     0.219 HD
ENDBRANCH  10  25
TORSDOF 5
ENDMDL
MODEL 8
REMARK VINA RESULT:      -6.9      4.841      7.211
REMARK  5 active torsions:
REMARK  status: ('A' for Active; 'I' for Inactive)
REMARK    1  A    between atoms: C_2  and  O_3 
REMARK    2  A    between atoms: C_4  and  C_5 
REMARK    3  A    between atoms: C_5  and  O_6 
REMARK    4  A    between atoms: C_9  and  C_10 
REMARK    5  A    between atoms: C_22  and  O_23 
ROOT
HETATM    1  C   UNL     1      -0.491   5.024 -30.382  1.00  0.00     0.047 C 
HETATM    2  C   UNL     1      -0.893   6.404 -30.930  1.00  0.00     0.073 C 
HETATM    3  C   UNL     1      -2.432   6.647 -30.784  1.00  0.00     0.133 C 
HETATM    4  C   UNL     1      -3.365   5.952 -31.822  1.00  0.00     0.074 C 
HETATM    5  C   UNL     1      -2.677   5.724 -33.124  1.00  0.00     0.030 A 
HETATM    6  C   UNL     1      -1.343   5.994 -33.350  1.00  0.00     0.042 A 
HETATM    7  N   UNL     1      -1.098   5.707 -34.663  1.00  0.00    -0.279 N 
HETATM    8  H   UNL     1      -0.228   5.796 -35.180  1.00  0.00     0.189 HD
HETATM    9  N   UNL     1      -2.197   5.279 -35.319  1.00  0.00    -0.149 NA
HETATM   10  C   UNL     1      -3.133   5.323 -34.380  1.00  0.00     0.190 A 
HETATM   11  C   UNL     1      -0.373   6.562 -32.386  1.00  0.00     0.097 C 
ENDROOT
BRANCH   4  12
HETATM   12  C   UNL     1      -3.939   4.630 -31.315  1.00  0.00    -0.048 A 
HETATM   13  C   UNL     1      -5.077   4.692 -30.484  1.00  0.00     0.009 A 
HETATM   14  C   UNL     1      -5.663   3.533 -29.969  1.00  0.00     0.024 A 
HETATM   15  C   UNL     1      -5.116   2.290 -30.271  1.00  0.00     0.034 A 
HETATM   16 CL   UNL     1      -5.834   0.860 -29.639  1.00  0.00    -0.084 Cl
HETATM   17  C   UNL     1      -3.992   2.200 -31.083  1.00  0.00     0.024 A 
HETATM   18  C   UNL     1      -3.408   3.362 -31.602  1.00  0.00     0.009 A 
ENDBRANCH   4  12
BRANCH   3  19
HETATM   19  C   UNL     1      -2.728   8.136 -30.765  1.00  0.00     0.266 C 
HETATM   20  O   UNL     1      -2.918   8.784 -31.789  1.00  0.00    -0.265 OA
BRANCH  19  21
HETATM   21  O   UNL     1      -2.766   8.648 -29.508  1.00  0.00    -0.326 OA
HETATM   22  C   UNL     1      -3.390   7.802 -28.543  1.00  0.00     0.213 C 
ENDBRANCH  19  21
ENDBRANCH   3  19
BRANCH   2  23
HETATM   23  O   UNL     1      -0.166   7.347 -30.119  1.00  0.00    -0.389 OA
HETATM   24  H   UNL     1       0.680   6.944 -29.849  1.00  0.00     0.210 HD
ENDBRANCH   2  23
BRANCH  10  25
HETATM   25  O   UNL     1      -4.355   4.988 -34.777  1.00  0.00    -0.343 OA
HETATM   26  H   UNL     1      -4.818   5.836 -34.885  1.00  0.00     0.219 HD
ENDBRANCH  10  25
TORSDOF 5
ENDMDL
MODEL 9
REMARK VINA RESULT:      -6.7     14.802     16.663
REMARK  5 active torsions:
REMARK  status: ('A' for Active; 'I' for Inactive)
REMARK    1  A    between atoms: C_2  and  O_3 
REMARK    2  A    between atoms: C_4  and  C_5 
REMARK    3  A    between atoms: C_5  and  O_6 
REMARK    4  A    between atoms: C_9  and  C_10 
REMARK    5  A    between atoms: C_22  and  O_23 
ROOT
HETATM    1  C   UNL     1      -6.905 -16.344 -38.743  1.00  0.00     0.047 C 
HETATM    2  C   UNL     1      -7.616 -14.999 -38.514  1.00  0.00     0.073 C 
HETATM    3  C   UNL     1      -7.488 -14.067 -39.764  1.00  0.00     0.133 C 
HETATM    4  C   UNL     1      -6.131 -13.326 -39.965  1.00  0.00     0.074 C 
HETATM    5  C   UNL     1      -5.432 -13.086 -38.671  1.00  0.00     0.030 A 
HETATM    6  C   UNL     1      -5.876 -13.558 -37.454  1.00  0.00     0.042 A 
HETATM    7  N   UNL     1      -5.008 -13.093 -36.507  1.00  0.00    -0.279 N 
HETATM    8  H   UNL     1      -5.031 -13.235 -35.501  1.00  0.00     0.189 HD
HETATM    9  N   UNL     1      -4.026 -12.328 -37.029  1.00  0.00    -0.149 NA
HETATM   10  C   UNL     1      -4.319 -12.320 -38.323  1.00  0.00     0.190 A 
HETATM   11  C   UNL     1      -7.101 -14.351 -37.199  1.00  0.00     0.097 C 
ENDROOT
BRANCH   4  12
HETATM   12  C   UNL     1      -5.189 -14.056 -40.921  1.00  0.00    -0.048 A 
HETATM   13  C   UNL     1      -5.438 -13.927 -42.303  1.00  0.00     0.009 A 
HETATM   14  C   UNL     1      -4.631 -14.567 -43.248  1.00  0.00     0.024 A 
HETATM   15  C   UNL     1      -3.566 -15.354 -42.827  1.00  0.00     0.034 A 
HETATM   16 CL   UNL     1      -2.571 -16.144 -43.987  1.00  0.00    -0.084 Cl
HETATM   17  C   UNL     1      -3.301 -15.504 -41.470  1.00  0.00     0.024 A 
HETATM   18  C   UNL     1      -4.106 -14.859 -40.524  1.00  0.00     0.009 A 
ENDBRANCH   4  12
BRANCH   3  19
HETATM   19  C   UNL     1      -8.618 -13.053 -39.781  1.00  0.00     0.266 C 
HETATM   20  O   UNL     1      -8.564 -11.996 -39.162  1.00  0.00    -0.265 OA
BRANCH  19  21
HETATM   21  O   UNL     1      -9.664 -13.445 -40.552  1.00  0.00    -0.326 OA
HETATM   22  C   UNL     1     -10.924 -12.896 -40.163  1.00  0.00     0.213 C 
ENDBRANCH  19  21
ENDBRANCH   3  19
BRANCH   2  23
HETATM   23  O   UNL     1      -8.998 -15.347 -38.298  1.00  0.00    -0.389 OA
HETATM   24  H   UNL     1      -9.154 -15.434 -37.340  1.00  0.00     0.210 HD
ENDBRANCH   2  23
BRANCH  10  25
HETATM   25  O   UNL     1      -3.518 -11.583 -39.084  1.00  0.00    -0.343 OA
HETATM   26  H   UNL     1      -3.532 -10.702 -38.672  1.00  0.00     0.219 HD
ENDBRANCH  10  25
TORSDOF 5
ENDMDL
MODEL 10
REMARK VINA RESULT:      -6.7      3.452      5.856
REMARK  5 active torsions:
REMARK  status: ('A' for Active; 'I' for Inactive)
REMARK    1  A    between atoms: C_2  and  O_3 
REMARK    2  A    between atoms: C_4  and  C_5 
REMARK    3  A    between atoms: C_5  and  O_6 
REMARK    4  A    between atoms: C_9  and  C_10 
REMARK    5  A    between atoms: C_22  and  O_23 
ROOT
HETATM    1  C   UNL     1      -5.857   1.364 -29.966  1.00  0.00     0.047 C 
HETATM    2  C   UNL     1      -6.304   0.771 -31.312  1.00  0.00     0.073 C 
HETATM    3  C   UNL     1      -5.320   1.166 -32.463  1.00  0.00     0.133 C 
HETATM    4  C   UNL     1      -5.447   2.607 -33.046  1.00  0.00     0.074 C 
HETATM    5  C   UNL     1      -6.832   3.140 -32.913  1.00  0.00     0.030 A 
HETATM    6  C   UNL     1      -7.852   2.485 -32.255  1.00  0.00     0.042 A 
HETATM    7  N   UNL     1      -8.971   3.256 -32.391  1.00  0.00    -0.279 N 
HETATM    8  H   UNL     1      -9.910   3.080 -32.044  1.00  0.00     0.189 HD
HETATM    9  N   UNL     1      -8.751   4.375 -33.114  1.00  0.00    -0.149 NA
HETATM   10  C   UNL     1      -7.468   4.267 -33.435  1.00  0.00     0.190 A 
HETATM   11  C   UNL     1      -7.781   1.162 -31.594  1.00  0.00     0.097 C 
ENDROOT
BRANCH   4  12
HETATM   12  C   UNL     1      -4.463   3.592 -32.418  1.00  0.00    -0.048 A 
HETATM   13  C   UNL     1      -3.125   3.546 -32.862  1.00  0.00     0.009 A 
HETATM   14  C   UNL     1      -2.156   4.405 -32.336  1.00  0.00     0.024 A 
HETATM   15  C   UNL     1      -2.507   5.321 -31.351  1.00  0.00     0.034 A 
HETATM   16 CL   UNL     1      -1.318   6.381 -30.701  1.00  0.00    -0.084 Cl
HETATM   17  C   UNL     1      -3.818   5.385 -30.891  1.00  0.00     0.024 A 
HETATM   18  C   UNL     1      -4.788   4.527 -31.421  1.00  0.00     0.009 A 
ENDBRANCH   4  12
BRANCH   3  19
HETATM   19  C   UNL     1      -5.407   0.160 -33.597  1.00  0.00     0.266 C 
HETATM   20  O   UNL     1      -6.186   0.289 -34.535  1.00  0.00    -0.265 OA
BRANCH  19  21
HETATM   21  O   UNL     1      -4.532  -0.869 -33.454  1.00  0.00    -0.326 OA
HETATM   22  C   UNL     1      -4.957  -2.094 -34.052  1.00  0.00     0.213 C 
ENDBRANCH  19  21
ENDBRANCH   3  19
BRANCH   2  23
HETATM   23  O   UNL     1      -6.278  -0.656 -31.111  1.00  0.00    -0.389 OA
HETATM   24  H   UNL     1      -5.511  -1.027 -31.585  1.00  0.00     0.210 HD
ENDBRANCH   2  23
BRANCH  10  25
HETATM   25  O   UNL     1      -6.989   5.237 -34.205  1.00  0.00    -0.343 OA
HETATM   26  H   UNL     1      -7.774   5.618 -34.634  1.00  0.00     0.219 HD
ENDBRANCH  10  25
TORSDOF 5
ENDMDL
