MODEL 1
REMARK VINA RESULT:     -10.0      0.000      0.000
REMARK  4 active torsions:
REMARK  status: ('A' for Active; 'I' for Inactive)
REMARK    1  A    between atoms: C_3  and  C_4 
REMARK    2  A    between atoms: C_4  and  N_5 
REMARK       I    between atoms: N_5  and  C_6 
REMARK       I    between atoms: C_6  and  N_7 
REMARK    3  A    between atoms: N_7  and  C_8 
REMARK    4  A    between atoms: C_16  and  C_17 
ROOT
HETATM    1  C   UNL     1      -5.988   4.126 -29.612  1.00  0.00     0.049 C 
HETATM    2  C   UNL     1      -5.638   2.846 -30.326  1.00  0.00    -0.054 A 
HETATM    3  C   UNL     1      -4.738   2.806 -31.411  1.00  0.00    -0.034 A 
HETATM    4  C   UNL     1      -4.388   1.559 -31.967  1.00  0.00     0.023 A 
HETATM    5  C   UNL     1      -4.985   0.375 -31.517  1.00  0.00    -0.004 A 
HETATM    6  C   UNL     1      -5.869   0.423 -30.437  1.00  0.00     0.014 A 
HETATM    7  C   UNL     1      -6.181   1.645 -29.839  1.00  0.00     0.008 A 
ENDROOT
BRANCH   3   8
HETATM    8  C   UNL     1      -4.159   4.060 -32.021  1.00  0.00     0.163 C 
BRANCH   8   9
HETATM    9  N   UNL     1      -3.309   4.775 -31.101  1.00  0.00    -0.339 N 
HETATM   10  C   UNL     1      -1.959   4.801 -31.340  1.00  0.00     0.316 C 
HETATM   11  N   UNL     1      -1.270   5.347 -30.288  1.00  0.00    -0.339 N 
HETATM   12  O   UNL     1      -1.436   4.380 -32.364  1.00  0.00    -0.247 OA
HETATM   13  H   UNL     1      -1.806   5.961 -29.693  1.00  0.00     0.164 HD
HETATM   14  H   UNL     1      -3.585   4.766 -30.131  1.00  0.00     0.164 HD
BRANCH  11  15
HETATM   15  C   UNL     1       0.166   5.593 -30.383  1.00  0.00     0.086 C 
HETATM   16  C   UNL     1       0.453   7.087 -30.598  1.00  0.00     0.025 C 
HETATM   17  C   UNL     1       0.198   7.918 -29.341  1.00  0.00     0.002 C 
HETATM   18  C   UNL     1       0.959   7.369 -28.138  1.00  0.00     0.000 C 
HETATM   19  C   UNL     1       0.649   5.896 -27.897  1.00  0.00     0.002 C 
HETATM   20  C   UNL     1       0.896   5.055 -29.147  1.00  0.00     0.025 C 
ENDBRANCH  11  15
ENDBRANCH   8   9
ENDBRANCH   3   8
BRANCH   5  21
HETATM   21  C   UNL     1      -4.652  -0.960 -32.106  1.00  0.00     0.098 C 
HETATM   22  N   UNL     1      -3.662  -1.597 -31.553  1.00  0.00    -0.169 NA
HETATM   23  N   UNL     1      -3.249  -2.794 -32.070  1.00  0.00    -0.238 N 
HETATM   24  C   UNL     1      -2.166  -3.461 -31.376  1.00  0.00     0.183 C 
HETATM   25  C   UNL     1      -3.741  -3.353 -33.241  1.00  0.00     0.274 C 
HETATM   26  O   UNL     1      -3.297  -4.378 -33.754  1.00  0.00    -0.266 OA
HETATM   27  C   UNL     1      -4.895  -2.670 -33.852  1.00  0.00     0.046 A 
HETATM   28  C   UNL     1      -5.405  -1.518 -33.260  1.00  0.00     0.011 A 
HETATM   29  C   UNL     1      -5.510  -3.226 -34.984  1.00  0.00     0.018 A 
HETATM   30  C   UNL     1      -6.600  -0.977 -33.755  1.00  0.00     0.015 A 
HETATM   31  C   UNL     1      -7.215  -1.528 -34.883  1.00  0.00     0.001 A 
HETATM   32  C   UNL     1      -6.662  -2.643 -35.508  1.00  0.00     0.001 A 
ENDBRANCH   5  21
TORSDOF 4
ENDMDL
MODEL 2
REMARK VINA RESULT:      -9.5      2.680      3.420
REMARK  4 active torsions:
REMARK  status: ('A' for Active; 'I' for Inactive)
REMARK    1  A    between atoms: C_3  and  C_4 
REMARK    2  A    between atoms: C_4  and  N_5 
REMARK       I    between atoms: N_5  and  C_6 
REMARK       I    between atoms: C_6  and  N_7 
REMARK    3  A    between atoms: N_7  and  C_8 
REMARK    4  A    between atoms: C_16  and  C_17 
ROOT
HETATM    1  C   UNL     1     -10.012   3.944 -34.276  1.00  0.00     0.049 C 
HETATM    2  C   UNL     1      -8.871   3.000 -33.996  1.00  0.00    -0.054 A 
HETATM    3  C   UNL     1      -7.556   3.451 -33.759  1.00  0.00    -0.034 A 
HETATM    4  C   UNL     1      -6.562   2.515 -33.411  1.00  0.00     0.023 A 
HETATM    5  C   UNL     1      -6.840   1.143 -33.385  1.00  0.00    -0.004 A 
HETATM    6  C   UNL     1      -8.146   0.706 -33.614  1.00  0.00     0.014 A 
HETATM    7  C   UNL     1      -9.154   1.627 -33.902  1.00  0.00     0.008 A 
ENDROOT
BRANCH   3   8
HETATM    8  C   UNL     1      -7.168   4.904 -33.895  1.00  0.00     0.163 C 
BRANCH   8   9
HETATM    9  N   UNL     1      -5.947   5.215 -33.194  1.00  0.00    -0.339 N 
HETATM   10  C   UNL     1      -4.775   5.255 -33.904  1.00  0.00     0.316 C 
HETATM   11  N   UNL     1      -3.687   5.369 -33.078  1.00  0.00    -0.339 N 
HETATM   12  O   UNL     1      -4.711   5.187 -35.125  1.00  0.00    -0.247 OA
HETATM   13  H   UNL     1      -3.875   5.766 -32.169  1.00  0.00     0.164 HD
HETATM   14  H   UNL     1      -5.876   4.885 -32.243  1.00  0.00     0.164 HD
BRANCH  11  15
HETATM   15  C   UNL     1      -2.348   5.561 -33.628  1.00  0.00     0.086 C 
HETATM   16  C   UNL     1      -2.063   7.051 -33.868  1.00  0.00     0.025 C 
HETATM   17  C   UNL     1      -1.848   7.823 -32.566  1.00  0.00     0.002 C 
HETATM   18  C   UNL     1      -0.770   7.179 -31.700  1.00  0.00     0.000 C 
HETATM   19  C   UNL     1      -1.068   5.709 -31.427  1.00  0.00     0.002 C 
HETATM   20  C   UNL     1      -1.288   4.927 -32.720  1.00  0.00     0.025 C 
ENDBRANCH  11  15
ENDBRANCH   8   9
ENDBRANCH   3   8
BRANCH   5  21
HETATM   21  C   UNL     1      -5.798   0.124 -33.045  1.00  0.00     0.098 C 
HETATM   22  N   UNL     1      -4.880   0.504 -32.204  1.00  0.00    -0.169 NA
HETATM   23  N   UNL     1      -3.854  -0.343 -31.888  1.00  0.00    -0.238 N 
HETATM   24  C   UNL     1      -2.893   0.138 -30.916  1.00  0.00     0.183 C 
HETATM   25  C   UNL     1      -3.639  -1.573 -32.494  1.00  0.00     0.274 C 
HETATM   26  O   UNL     1      -2.660  -2.284 -32.278  1.00  0.00    -0.266 OA
HETATM   27  C   UNL     1      -4.694  -2.040 -33.410  1.00  0.00     0.046 A 
HETATM   28  C   UNL     1      -5.809  -1.238 -33.640  1.00  0.00     0.011 A 
HETATM   29  C   UNL     1      -4.597  -3.314 -33.987  1.00  0.00     0.018 A 
HETATM   30  C   UNL     1      -6.877  -1.764 -34.380  1.00  0.00     0.015 A 
HETATM   31  C   UNL     1      -6.783  -3.034 -34.957  1.00  0.00     0.001 A 
HETATM   32  C   UNL     1      -5.637  -3.804 -34.775  1.00  0.00     0.001 A 
ENDBRANCH   5  21
TORSDOF 4
ENDMDL
MODEL 3
REMARK VINA RESULT:      -9.4      4.911      6.427
REMARK  4 active torsions:
REMARK  status: ('A' for Active; 'I' for Inactive)
REMARK    1  A    between atoms: C_3  and  C_4 
REMARK    2  A    between atoms: C_4  and  N_5 
REMARK       I    between atoms: N_5  and  C_6 
REMARK       I    between atoms: C_6  and  N_7 
REMARK    3  A    between atoms: N_7  and  C_8 
REMARK    4  A    between atoms: C_16  and  C_17 
ROOT
HETATM    1  C   UNL     1      -4.679  -0.597 -32.464  1.00  0.00     0.049 C 
HETATM    2  C   UNL     1      -6.085  -0.107 -32.695  1.00  0.00    -0.054 A 
HETATM    3  C   UNL     1      -6.557   1.115 -32.173  1.00  0.00    -0.034 A 
HETATM    4  C   UNL     1      -7.854   1.551 -32.511  1.00  0.00     0.023 A 
HETATM    5  C   UNL     1      -8.707   0.750 -33.280  1.00  0.00    -0.004 A 
HETATM    6  C   UNL     1      -8.229  -0.455 -33.799  1.00  0.00     0.014 A 
HETATM    7  C   UNL     1      -6.927  -0.872 -33.521  1.00  0.00     0.008 A 
ENDROOT
BRANCH   3   8
HETATM    8  C   UNL     1      -5.728   1.962 -31.237  1.00  0.00     0.163 C 
BRANCH   8   9
HETATM    9  N   UNL     1      -5.100   3.071 -31.910  1.00  0.00    -0.339 N 
HETATM   10  C   UNL     1      -3.730   3.132 -31.936  1.00  0.00     0.316 C 
HETATM   11  N   UNL     1      -3.287   4.329 -32.436  1.00  0.00    -0.339 N 
HETATM   12  O   UNL     1      -2.997   2.231 -31.550  1.00  0.00    -0.247 OA
HETATM   13  H   UNL     1      -3.941   4.817 -33.031  1.00  0.00     0.164 HD
HETATM   14  H   UNL     1      -5.580   3.957 -31.866  1.00  0.00     0.164 HD
BRANCH  11  15
HETATM   15  C   UNL     1      -1.865   4.559 -32.674  1.00  0.00     0.086 C 
HETATM   16  C   UNL     1      -1.635   5.174 -34.063  1.00  0.00     0.025 C 
HETATM   17  C   UNL     1      -2.080   6.635 -34.137  1.00  0.00     0.002 C 
HETATM   18  C   UNL     1      -1.438   7.476 -33.037  1.00  0.00     0.000 C 
HETATM   19  C   UNL     1      -1.695   6.890 -31.653  1.00  0.00     0.002 C 
HETATM   20  C   UNL     1      -1.258   5.429 -31.569  1.00  0.00     0.025 C 
ENDBRANCH  11  15
ENDBRANCH   8   9
ENDBRANCH   3   8
BRANCH   5  21
HETATM   21  C   UNL     1     -10.098   1.175 -33.632  1.00  0.00     0.098 C 
HETATM   22  N   UNL     1     -11.032   0.290 -33.439  1.00  0.00    -0.169 NA
HETATM   23  N   UNL     1     -12.322   0.573 -33.795  1.00  0.00    -0.238 N 
HETATM   24  C   UNL     1     -13.310  -0.448 -33.514  1.00  0.00     0.183 C 
HETATM   25  C   UNL     1     -12.714   1.720 -34.471  1.00  0.00     0.274 C 
HETATM   26  O   UNL     1     -13.857   1.922 -34.877  1.00  0.00    -0.266 OA
HETATM   27  C   UNL     1     -11.679   2.753 -34.654  1.00  0.00     0.046 A 
HETATM   28  C   UNL     1     -10.390   2.526 -34.179  1.00  0.00     0.011 A 
HETATM   29  C   UNL     1     -12.021   3.979 -35.241  1.00  0.00     0.018 A 
HETATM   30  C   UNL     1      -9.465   3.578 -34.210  1.00  0.00     0.015 A 
HETATM   31  C   UNL     1      -9.802   4.803 -34.796  1.00  0.00     0.001 A 
HETATM   32  C   UNL     1     -11.075   4.999 -35.326  1.00  0.00     0.001 A 
ENDBRANCH   5  21
TORSDOF 4
ENDMDL
MODEL 4
REMARK VINA RESULT:      -9.3      2.923      4.332
REMARK  4 active torsions:
REMARK  status: ('A' for Active; 'I' for Inactive)
REMARK    1  A    between atoms: C_3  and  C_4 
REMARK    2  A    between atoms: C_4  and  N_5 
REMARK       I    between atoms: N_5  and  C_6 
REMARK       I    between atoms: C_6  and  N_7 
REMARK    3  A    between atoms: N_7  and  C_8 
REMARK    4  A    between atoms: C_16  and  C_17 
ROOT
HETATM    1  C   UNL     1     -10.502   3.126 -33.326  1.00  0.00     0.049 C 
HETATM    2  C   UNL     1      -9.388   2.124 -33.488  1.00  0.00    -0.054 A 
HETATM    3  C   UNL     1      -8.056   2.507 -33.750  1.00  0.00    -0.034 A 
HETATM    4  C   UNL     1      -7.053   1.518 -33.795  1.00  0.00     0.023 A 
HETATM    5  C   UNL     1      -7.372   0.161 -33.672  1.00  0.00    -0.004 A 
HETATM    6  C   UNL     1      -8.692  -0.210 -33.405  1.00  0.00     0.014 A 
HETATM    7  C   UNL     1      -9.686   0.764 -33.300  1.00  0.00     0.008 A 
ENDROOT
BRANCH   3   8
HETATM    8  C   UNL     1      -7.672   3.943 -34.016  1.00  0.00     0.163 C 
BRANCH   8   9
HETATM    9  N   UNL     1      -6.243   4.126 -34.083  1.00  0.00    -0.339 N 
HETATM   10  C   UNL     1      -5.695   5.235 -33.492  1.00  0.00     0.316 C 
HETATM   11  N   UNL     1      -4.367   5.369 -33.803  1.00  0.00    -0.339 N 
HETATM   12  O   UNL     1      -6.320   6.013 -32.783  1.00  0.00    -0.247 OA
HETATM   13  H   UNL     1      -3.899   4.517 -34.076  1.00  0.00     0.164 HD
HETATM   14  H   UNL     1      -5.785   3.801 -34.921  1.00  0.00     0.164 HD
BRANCH  11  15
HETATM   15  C   UNL     1      -3.554   6.408 -33.176  1.00  0.00     0.086 C 
HETATM   16  C   UNL     1      -3.151   6.002 -31.751  1.00  0.00     0.025 C 
HETATM   17  C   UNL     1      -2.097   4.895 -31.732  1.00  0.00     0.002 C 
HETATM   18  C   UNL     1      -0.879   5.263 -32.575  1.00  0.00     0.000 C 
HETATM   19  C   UNL     1      -1.269   5.630 -34.003  1.00  0.00     0.002 C 
HETATM   20  C   UNL     1      -2.326   6.733 -34.034  1.00  0.00     0.025 C 
ENDBRANCH  11  15
ENDBRANCH   8   9
ENDBRANCH   3   8
BRANCH   5  21
HETATM   21  C   UNL     1      -6.332  -0.913 -33.741  1.00  0.00     0.098 C 
HETATM   22  N   UNL     1      -6.625  -1.946 -34.474  1.00  0.00    -0.169 NA
HETATM   23  N   UNL     1      -5.759  -3.002 -34.541  1.00  0.00    -0.238 N 
HETATM   24  C   UNL     1      -6.139  -4.099 -35.408  1.00  0.00     0.183 C 
HETATM   25  C   UNL     1      -4.604  -3.117 -33.778  1.00  0.00     0.274 C 
HETATM   26  O   UNL     1      -3.883  -4.113 -33.768  1.00  0.00    -0.266 OA
HETATM   27  C   UNL     1      -4.232  -1.936 -32.981  1.00  0.00     0.046 A 
HETATM   28  C   UNL     1      -5.043  -0.805 -33.007  1.00  0.00     0.011 A 
HETATM   29  C   UNL     1      -3.030  -1.938 -32.259  1.00  0.00     0.018 A 
HETATM   30  C   UNL     1      -4.592   0.364 -32.379  1.00  0.00     0.015 A 
HETATM   31  C   UNL     1      -3.394   0.365 -31.658  1.00  0.00     0.001 A 
HETATM   32  C   UNL     1      -2.620  -0.790 -31.584  1.00  0.00     0.001 A 
ENDBRANCH   5  21
TORSDOF 4
ENDMDL
MODEL 5
REMARK VINA RESULT:      -9.2      4.016      9.169
REMARK  4 active torsions:
REMARK  status: ('A' for Active; 'I' for Inactive)
REMARK    1  A    between atoms: C_3  and  C_4 
REMARK    2  A    between atoms: C_4  and  N_5 
REMARK       I    between atoms: N_5  and  C_6 
REMARK       I    between atoms: C_6  and  N_7 
REMARK    3  A    between atoms: N_7  and  C_8 
REMARK    4  A    between atoms: C_16  and  C_17 
ROOT
HETATM    1  C   UNL     1      -4.628  -2.203 -33.828  1.00  0.00     0.049 C 
HETATM    2  C   UNL     1      -4.591  -0.764 -33.386  1.00  0.00    -0.054 A 
HETATM    3  C   UNL     1      -5.591   0.165 -33.744  1.00  0.00    -0.034 A 
HETATM    4  C   UNL     1      -5.537   1.470 -33.214  1.00  0.00     0.023 A 
HETATM    5  C   UNL     1      -4.464   1.880 -32.414  1.00  0.00    -0.004 A 
HETATM    6  C   UNL     1      -3.482   0.952 -32.058  1.00  0.00     0.014 A 
HETATM    7  C   UNL     1      -3.554  -0.360 -32.528  1.00  0.00     0.008 A 
ENDROOT
BRANCH   3   8
HETATM    8  C   UNL     1      -6.703  -0.183 -34.703  1.00  0.00     0.163 C 
BRANCH   8   9
HETATM    9  N   UNL     1      -7.673   0.877 -34.828  1.00  0.00    -0.339 N 
HETATM   10  C   UNL     1      -8.892   0.726 -34.220  1.00  0.00     0.316 C 
HETATM   11  N   UNL     1      -9.766   1.717 -34.586  1.00  0.00    -0.339 N 
HETATM   12  O   UNL     1      -9.167  -0.188 -33.453  1.00  0.00    -0.247 OA
HETATM   13  H   UNL     1      -9.338   2.571 -34.913  1.00  0.00     0.164 HD
HETATM   14  H   UNL     1      -7.674   1.388 -35.698  1.00  0.00     0.164 HD
BRANCH  11  15
HETATM   15  C   UNL     1     -11.079   1.825 -33.957  1.00  0.00     0.086 C 
HETATM   16  C   UNL     1     -11.202   3.137 -33.167  1.00  0.00     0.025 C 
HETATM   17  C   UNL     1     -11.323   4.359 -34.077  1.00  0.00     0.002 C 
HETATM   18  C   UNL     1     -12.460   4.202 -35.083  1.00  0.00     0.000 C 
HETATM   19  C   UNL     1     -12.322   2.920 -35.897  1.00  0.00     0.002 C 
HETATM   20  C   UNL     1     -12.197   1.692 -34.998  1.00  0.00     0.025 C 
ENDBRANCH  11  15
ENDBRANCH   8   9
ENDBRANCH   3   8
BRANCH   5  21
HETATM   21  C   UNL     1      -4.367   3.266 -31.858  1.00  0.00     0.098 C 
HETATM   22  N   UNL     1      -5.090   3.512 -30.806  1.00  0.00    -0.169 NA
HETATM   23  N   UNL     1      -5.111   4.772 -30.273  1.00  0.00    -0.238 N 
HETATM   24  C   UNL     1      -5.912   4.957 -29.079  1.00  0.00     0.183 C 
HETATM   25  C   UNL     1      -4.492   5.874 -30.845  1.00  0.00     0.274 C 
HETATM   26  O   UNL     1      -4.598   7.022 -30.416  1.00  0.00    -0.266 OA
HETATM   27  C   UNL     1      -3.629   5.605 -32.008  1.00  0.00     0.046 A 
HETATM   28  C   UNL     1      -3.500   4.302 -32.481  1.00  0.00     0.011 A 
HETATM   29  C   UNL     1      -2.894   6.651 -32.583  1.00  0.00     0.018 A 
HETATM   30  C   UNL     1      -2.551   4.036 -33.478  1.00  0.00     0.015 A 
HETATM   31  C   UNL     1      -1.817   5.078 -34.054  1.00  0.00     0.001 A 
HETATM   32  C   UNL     1      -1.999   6.388 -33.618  1.00  0.00     0.001 A 
ENDBRANCH   5  21
TORSDOF 4
ENDMDL
MODEL 6
REMARK VINA RESULT:      -9.2      4.934      6.826
REMARK  4 active torsions:
REMARK  status: ('A' for Active; 'I' for Inactive)
REMARK    1  A    between atoms: C_3  and  C_4 
REMARK    2  A    between atoms: C_4  and  N_5 
REMARK       I    between atoms: N_5  and  C_6 
REMARK       I    between atoms: C_6  and  N_7 
REMARK    3  A    between atoms: N_7  and  C_8 
REMARK    4  A    between atoms: C_16  and  C_17 
ROOT
HETATM    1  C   UNL     1      -5.131  -0.861 -33.429  1.00  0.00     0.049 C 
HETATM    2  C   UNL     1      -6.360   0.000 -33.561  1.00  0.00    -0.054 A 
HETATM    3  C   UNL     1      -6.553   1.168 -32.792  1.00  0.00    -0.034 A 
HETATM    4  C   UNL     1      -7.683   1.972 -33.039  1.00  0.00     0.023 A 
HETATM    5  C   UNL     1      -8.656   1.586 -33.969  1.00  0.00    -0.004 A 
HETATM    6  C   UNL     1      -8.452   0.433 -34.731  1.00  0.00     0.014 A 
HETATM    7  C   UNL     1      -7.309  -0.343 -34.538  1.00  0.00     0.008 A 
ENDROOT
BRANCH   3   8
HETATM    8  C   UNL     1      -5.604   1.569 -31.689  1.00  0.00     0.163 C 
BRANCH   8   9
HETATM    9  N   UNL     1      -5.006   2.860 -31.922  1.00  0.00    -0.339 N 
HETATM   10  C   UNL     1      -3.669   2.919 -32.221  1.00  0.00     0.316 C 
HETATM   11  N   UNL     1      -3.209   4.210 -32.224  1.00  0.00    -0.339 N 
HETATM   12  O   UNL     1      -2.974   1.938 -32.449  1.00  0.00    -0.247 OA
HETATM   13  H   UNL     1      -3.911   4.919 -32.378  1.00  0.00     0.164 HD
HETATM   14  H   UNL     1      -5.372   3.631 -31.383  1.00  0.00     0.164 HD
BRANCH  11  15
HETATM   15  C   UNL     1      -1.844   4.516 -32.646  1.00  0.00     0.086 C 
HETATM   16  C   UNL     1      -1.818   4.999 -34.104  1.00  0.00     0.025 C 
HETATM   17  C   UNL     1      -2.389   6.408 -34.265  1.00  0.00     0.002 C 
HETATM   18  C   UNL     1      -1.705   7.403 -33.332  1.00  0.00     0.000 C 
HETATM   19  C   UNL     1      -1.762   6.947 -31.878  1.00  0.00     0.002 C 
HETATM   20  C   UNL     1      -1.197   5.539 -31.706  1.00  0.00     0.025 C 
ENDBRANCH  11  15
ENDBRANCH   8   9
ENDBRANCH   3   8
BRANCH   5  21
HETATM   21  C   UNL     1      -9.878   2.407 -34.234  1.00  0.00     0.098 C 
HETATM   22  N   UNL     1      -9.672   3.621 -34.654  1.00  0.00    -0.169 NA
HETATM   23  N   UNL     1     -10.731   4.461 -34.858  1.00  0.00    -0.238 N 
HETATM   24  C   UNL     1     -10.422   5.784 -35.362  1.00  0.00     0.183 C 
HETATM   25  C   UNL     1     -12.047   4.154 -34.537  1.00  0.00     0.274 C 
HETATM   26  O   UNL     1     -12.980   4.949 -34.628  1.00  0.00    -0.266 OA
HETATM   27  C   UNL     1     -12.305   2.769 -34.107  1.00  0.00     0.046 A 
HETATM   28  C   UNL     1     -11.247   1.868 -34.019  1.00  0.00     0.011 A 
HETATM   29  C   UNL     1     -13.621   2.355 -33.857  1.00  0.00     0.018 A 
HETATM   30  C   UNL     1     -11.530   0.517 -33.772  1.00  0.00     0.015 A 
HETATM   31  C   UNL     1     -12.841   0.101 -33.522  1.00  0.00     0.001 A 
HETATM   32  C   UNL     1     -13.886   1.022 -33.549  1.00  0.00     0.001 A 
ENDBRANCH   5  21
TORSDOF 4
ENDMDL
MODEL 7
REMARK VINA RESULT:      -9.1      3.184     10.641
REMARK  4 active torsions:
REMARK  status: ('A' for Active; 'I' for Inactive)
REMARK    1  A    between atoms: C_3  and  C_4 
REMARK    2  A    between atoms: C_4  and  N_5 
REMARK       I    between atoms: N_5  and  C_6 
REMARK       I    between atoms: C_6  and  N_7 
REMARK    3  A    between atoms: N_7  and  C_8 
REMARK    4  A    between atoms: C_16  and  C_17 
ROOT
HETATM    1  C   UNL     1      -1.613   5.205 -34.820  1.00  0.00     0.049 C 
HETATM    2  C   UNL     1      -1.823   5.952 -33.528  1.00  0.00    -0.054 A 
HETATM    3  C   UNL     1      -2.173   5.302 -32.326  1.00  0.00    -0.034 A 
HETATM    4  C   UNL     1      -2.260   6.055 -31.139  1.00  0.00     0.023 A 
HETATM    5  C   UNL     1      -2.090   7.445 -31.152  1.00  0.00    -0.004 A 
HETATM    6  C   UNL     1      -1.736   8.079 -32.344  1.00  0.00     0.014 A 
HETATM    7  C   UNL     1      -1.590   7.337 -33.517  1.00  0.00     0.008 A 
ENDROOT
BRANCH   3   8
HETATM    8  C   UNL     1      -2.490   3.827 -32.274  1.00  0.00     0.163 C 
BRANCH   8   9
HETATM    9  N   UNL     1      -3.842   3.541 -32.686  1.00  0.00    -0.339 N 
HETATM   10  C   UNL     1      -4.407   2.351 -32.304  1.00  0.00     0.316 C 
HETATM   11  N   UNL     1      -5.609   2.140 -32.926  1.00  0.00    -0.339 N 
HETATM   12  O   UNL     1      -3.892   1.572 -31.511  1.00  0.00    -0.247 OA
HETATM   13  H   UNL     1      -6.079   2.971 -33.253  1.00  0.00     0.164 HD
HETATM   14  H   UNL     1      -4.123   3.892 -33.589  1.00  0.00     0.164 HD
BRANCH  11  15
HETATM   15  C   UNL     1      -6.446   0.997 -32.567  1.00  0.00     0.086 C 
HETATM   16  C   UNL     1      -7.935   1.366 -32.638  1.00  0.00     0.025 C 
HETATM   17  C   UNL     1      -8.432   1.523 -34.075  1.00  0.00     0.002 C 
HETATM   18  C   UNL     1      -8.119   0.290 -34.918  1.00  0.00     0.000 C 
HETATM   19  C   UNL     1      -6.634  -0.057 -34.882  1.00  0.00     0.002 C 
HETATM   20  C   UNL     1      -6.126  -0.214 -33.451  1.00  0.00     0.025 C 
ENDBRANCH  11  15
ENDBRANCH   8   9
ENDBRANCH   3   8
BRANCH   5  21
HETATM   21  C   UNL     1      -2.202   8.274 -29.911  1.00  0.00     0.098 C 
HETATM   22  N   UNL     1      -3.367   8.803 -29.679  1.00  0.00    -0.169 NA
HETATM   23  N   UNL     1      -3.539   9.628 -28.602  1.00  0.00    -0.238 N 
HETATM   24  C   UNL     1      -4.876  10.147 -28.390  1.00  0.00     0.183 C 
HETATM   25  C   UNL     1      -2.513  10.052 -27.769  1.00  0.00     0.274 C 
HETATM   26  O   UNL     1      -2.657  10.872 -26.865  1.00  0.00    -0.266 OA
HETATM   27  C   UNL     1      -1.198   9.425 -27.987  1.00  0.00     0.046 A 
HETATM   28  C   UNL     1      -1.044   8.486 -29.002  1.00  0.00     0.011 A 
HETATM   29  C   UNL     1      -0.134   9.730 -27.125  1.00  0.00     0.018 A 
HETATM   30  C   UNL     1       0.163   7.778 -29.090  1.00  0.00     0.015 A 
HETATM   31  C   UNL     1       1.226   8.080 -28.233  1.00  0.00     0.001 A 
HETATM   32  C   UNL     1       1.084   9.067 -27.260  1.00  0.00     0.001 A 
ENDBRANCH   5  21
TORSDOF 4
ENDMDL
MODEL 8
REMARK VINA RESULT:      -9.1      3.566      5.064
REMARK  4 active torsions:
REMARK  status: ('A' for Active; 'I' for Inactive)
REMARK    1  A    between atoms: C_3  and  C_4 
REMARK    2  A    between atoms: C_4  and  N_5 
REMARK       I    between atoms: N_5  and  C_6 
REMARK       I    between atoms: C_6  and  N_7 
REMARK    3  A    between atoms: N_7  and  C_8 
REMARK    4  A    between atoms: C_16  and  C_17 
ROOT
HETATM    1  C   UNL     1      -1.263   5.809 -34.596  1.00  0.00     0.049 C 
HETATM    2  C   UNL     1      -2.518   5.165 -34.065  1.00  0.00    -0.054 A 
HETATM    3  C   UNL     1      -2.589   4.591 -32.778  1.00  0.00    -0.034 A 
HETATM    4  C   UNL     1      -3.823   4.092 -32.316  1.00  0.00     0.023 A 
HETATM    5  C   UNL     1      -4.951   4.078 -33.145  1.00  0.00    -0.004 A 
HETATM    6  C   UNL     1      -4.874   4.655 -34.414  1.00  0.00     0.014 A 
HETATM    7  C   UNL     1      -3.673   5.205 -34.863  1.00  0.00     0.008 A 
ENDROOT
BRANCH   3   8
HETATM    8  C   UNL     1      -1.376   4.465 -31.888  1.00  0.00     0.163 C 
BRANCH   8   9
HETATM    9  N   UNL     1      -1.380   5.428 -30.815  1.00  0.00    -0.339 N 
HETATM   10  C   UNL     1      -0.389   5.362 -29.870  1.00  0.00     0.316 C 
HETATM   11  N   UNL     1      -0.633   6.208 -28.820  1.00  0.00    -0.339 N 
HETATM   12  O   UNL     1       0.589   4.629 -29.953  1.00  0.00    -0.247 OA
HETATM   13  H   UNL     1      -1.243   6.986 -29.025  1.00  0.00     0.164 HD
HETATM   14  H   UNL     1      -2.283   5.733 -30.485  1.00  0.00     0.164 HD
BRANCH  11  15
HETATM   15  C   UNL     1       0.358   6.395 -27.764  1.00  0.00     0.086 C 
HETATM   16  C   UNL     1       1.125   7.712 -27.960  1.00  0.00     0.025 C 
HETATM   17  C   UNL     1       0.271   8.940 -27.642  1.00  0.00     0.002 C 
HETATM   18  C   UNL     1      -0.345   8.852 -26.249  1.00  0.00     0.000 C 
HETATM   19  C   UNL     1      -1.139   7.563 -26.061  1.00  0.00     0.002 C 
HETATM   20  C   UNL     1      -0.297   6.330 -26.380  1.00  0.00     0.025 C 
ENDBRANCH  11  15
ENDBRANCH   8   9
ENDBRANCH   3   8
BRANCH   5  21
HETATM   21  C   UNL     1      -6.268   3.531 -32.690  1.00  0.00     0.098 C 
HETATM   22  N   UNL     1      -7.031   4.353 -32.031  1.00  0.00    -0.169 NA
HETATM   23  N   UNL     1      -8.223   3.916 -31.522  1.00  0.00    -0.238 N 
HETATM   24  C   UNL     1      -9.033   4.900 -30.832  1.00  0.00     0.183 C 
HETATM   25  C   UNL     1      -8.652   2.596 -31.555  1.00  0.00     0.274 C 
HETATM   26  O   UNL     1      -9.676   2.192 -31.009  1.00  0.00    -0.266 OA
HETATM   27  C   UNL     1      -7.825   1.664 -32.340  1.00  0.00     0.046 A 
HETATM   28  C   UNL     1      -6.674   2.128 -32.970  1.00  0.00     0.011 A 
HETATM   29  C   UNL     1      -8.242   0.335 -32.502  1.00  0.00     0.018 A 
HETATM   30  C   UNL     1      -5.991   1.273 -33.846  1.00  0.00     0.015 A 
HETATM   31  C   UNL     1      -6.404  -0.053 -34.009  1.00  0.00     0.001 A 
HETATM   32  C   UNL     1      -7.521  -0.528 -33.325  1.00  0.00     0.001 A 
ENDBRANCH   5  21
TORSDOF 4
ENDMDL
MODEL 9
REMARK VINA RESULT:      -9.0      2.124      2.799
REMARK  4 active torsions:
REMARK  status: ('A' for Active; 'I' for Inactive)
REMARK    1  A    between atoms: C_3  and  C_4 
REMARK    2  A    between atoms: C_4  and  N_5 
REMARK       I    between atoms: N_5  and  C_6 
REMARK       I    between atoms: C_6  and  N_7 
REMARK    3  A    between atoms: N_7  and  C_8 
REMARK    4  A    between atoms: C_16  and  C_17 
ROOT
HETATM    1  C   UNL     1      -6.920   5.801 -28.739  1.00  0.00     0.049 C 
HETATM    2  C   UNL     1      -6.559   4.637 -29.625  1.00  0.00    -0.054 A 
HETATM    3  C   UNL     1      -5.469   4.677 -30.521  1.00  0.00    -0.034 A 
HETATM    4  C   UNL     1      -5.135   3.516 -31.247  1.00  0.00     0.023 A 
HETATM    5  C   UNL     1      -5.919   2.359 -31.159  1.00  0.00    -0.004 A 
HETATM    6  C   UNL     1      -6.991   2.326 -30.264  1.00  0.00     0.014 A 
HETATM    7  C   UNL     1      -7.298   3.449 -29.495  1.00  0.00     0.008 A 
ENDROOT
BRANCH   3   8
HETATM    8  C   UNL     1      -4.665   5.933 -30.751  1.00  0.00     0.163 C 
BRANCH   8   9
HETATM    9  N   UNL     1      -3.452   5.959 -29.972  1.00  0.00    -0.339 N 
HETATM   10  C   UNL     1      -3.219   7.036 -29.156  1.00  0.00     0.316 C 
HETATM   11  N   UNL     1      -1.952   7.012 -28.635  1.00  0.00    -0.339 N 
HETATM   12  O   UNL     1      -4.041   7.915 -28.931  1.00  0.00    -0.247 OA
HETATM   13  H   UNL     1      -1.518   6.101 -28.598  1.00  0.00     0.164 HD
HETATM   14  H   UNL     1      -2.636   5.540 -30.392  1.00  0.00     0.164 HD
BRANCH  11  15
HETATM   15  C   UNL     1      -1.535   7.992 -27.636  1.00  0.00     0.086 C 
HETATM   16  C   UNL     1      -1.123   7.301 -26.328  1.00  0.00     0.025 C 
HETATM   17  C   UNL     1       0.214   6.569 -26.448  1.00  0.00     0.002 C 
HETATM   18  C   UNL     1       1.315   7.489 -26.967  1.00  0.00     0.000 C 
HETATM   19  C   UNL     1       0.927   8.149 -28.286  1.00  0.00     0.002 C 
HETATM   20  C   UNL     1      -0.409   8.880 -28.178  1.00  0.00     0.025 C 
ENDBRANCH  11  15
ENDBRANCH   8   9
ENDBRANCH   3   8
BRANCH   5  21
HETATM   21  C   UNL     1      -5.603   1.121 -31.938  1.00  0.00     0.098 C 
HETATM   22  N   UNL     1      -4.563   0.447 -31.543  1.00  0.00    -0.169 NA
HETATM   23  N   UNL     1      -4.166  -0.662 -32.239  1.00  0.00    -0.238 N 
HETATM   24  C   UNL     1      -3.021  -1.380 -31.715  1.00  0.00     0.183 C 
HETATM   25  C   UNL     1      -4.731  -1.079 -33.436  1.00  0.00     0.274 C 
HETATM   26  O   UNL     1      -4.306  -2.017 -34.107  1.00  0.00    -0.266 OA
HETATM   27  C   UNL     1      -5.940  -0.358 -33.870  1.00  0.00     0.046 A 
HETATM   28  C   UNL     1      -6.428   0.693 -33.099  1.00  0.00     0.011 A 
HETATM   29  C   UNL     1      -6.625  -0.782 -35.018  1.00  0.00     0.018 A 
HETATM   30  C   UNL     1      -7.666   1.259 -33.434  1.00  0.00     0.015 A 
HETATM   31  C   UNL     1      -8.351   0.839 -34.579  1.00  0.00     0.001 A 
HETATM   32  C   UNL     1      -7.824  -0.171 -35.380  1.00  0.00     0.001 A 
ENDBRANCH   5  21
TORSDOF 4
ENDMDL
MODEL 10
REMARK VINA RESULT:      -9.0      2.421      3.598
REMARK  4 active torsions:
REMARK  status: ('A' for Active; 'I' for Inactive)
REMARK    1  A    between atoms: C_3  and  C_4 
REMARK    2  A    between atoms: C_4  and  N_5 
REMARK       I    between atoms: N_5  and  C_6 
REMARK       I    between atoms: C_6  and  N_7 
REMARK    3  A    between atoms: N_7  and  C_8 
REMARK    4  A    between atoms: C_16  and  C_17 
ROOT
HETATM    1  C   UNL     1      -6.962   5.673 -28.790  1.00  0.00     0.049 C 
HETATM    2  C   UNL     1      -6.707   4.588 -29.804  1.00  0.00    -0.054 A 
HETATM    3  C   UNL     1      -5.682   4.680 -30.769  1.00  0.00    -0.034 A 
HETATM    4  C   UNL     1      -5.443   3.584 -31.622  1.00  0.00     0.023 A 
HETATM    5  C   UNL     1      -6.260   2.448 -31.584  1.00  0.00    -0.004 A 
HETATM    6  C   UNL     1      -7.267   2.362 -30.620  1.00  0.00     0.014 A 
HETATM    7  C   UNL     1      -7.478   3.416 -29.730  1.00  0.00     0.008 A 
ENDROOT
BRANCH   3   8
HETATM    8  C   UNL     1      -4.850   5.928 -30.941  1.00  0.00     0.163 C 
BRANCH   8   9
HETATM    9  N   UNL     1      -3.649   5.901 -30.145  1.00  0.00    -0.339 N 
HETATM   10  C   UNL     1      -3.377   6.970 -29.331  1.00  0.00     0.316 C 
HETATM   11  N   UNL     1      -2.120   6.889 -28.791  1.00  0.00    -0.339 N 
HETATM   12  O   UNL     1      -4.160   7.888 -29.121  1.00  0.00    -0.247 OA
HETATM   13  H   UNL     1      -1.730   5.958 -28.743  1.00  0.00     0.164 HD
HETATM   14  H   UNL     1      -2.848   5.442 -30.551  1.00  0.00     0.164 HD
BRANCH  11  15
HETATM   15  C   UNL     1      -1.671   7.854 -27.791  1.00  0.00     0.086 C 
HETATM   16  C   UNL     1      -1.280   7.147 -26.485  1.00  0.00     0.025 C 
HETATM   17  C   UNL     1       0.033   6.374 -26.607  1.00  0.00     0.002 C 
HETATM   18  C   UNL     1       1.162   7.259 -27.126  1.00  0.00     0.000 C 
HETATM   19  C   UNL     1       0.794   7.934 -28.443  1.00  0.00     0.002 C 
HETATM   20  C   UNL     1      -0.519   8.707 -28.333  1.00  0.00     0.025 C 
ENDBRANCH  11  15
ENDBRANCH   8   9
ENDBRANCH   3   8
BRANCH   5  21
HETATM   21  C   UNL     1      -6.046   1.280 -32.495  1.00  0.00     0.098 C 
HETATM   22  N   UNL     1      -6.904   1.146 -33.464  1.00  0.00    -0.169 NA
HETATM   23  N   UNL     1      -6.820   0.070 -34.303  1.00  0.00    -0.238 N 
HETATM   24  C   UNL     1      -7.789   0.011 -35.379  1.00  0.00     0.183 C 
HETATM   25  C   UNL     1      -5.935  -0.987 -34.137  1.00  0.00     0.274 C 
HETATM   26  O   UNL     1      -5.933  -1.998 -34.836  1.00  0.00    -0.266 OA
HETATM   27  C   UNL     1      -4.925  -0.827 -33.077  1.00  0.00     0.046 A 
HETATM   28  C   UNL     1      -4.922   0.327 -32.298  1.00  0.00     0.011 A 
HETATM   29  C   UNL     1      -3.936  -1.807 -32.909  1.00  0.00     0.018 A 
HETATM   30  C   UNL     1      -3.859   0.539 -31.409  1.00  0.00     0.015 A 
HETATM   31  C   UNL     1      -2.871  -0.437 -31.239  1.00  0.00     0.001 A 
HETATM   32  C   UNL     1      -2.917  -1.617 -31.977  1.00  0.00     0.001 A 
ENDBRANCH   5  21
TORSDOF 4
ENDMDL
