MODEL 1
REMARK VINA RESULT:      -9.0      0.000      0.000
REMARK  5 active torsions:
REMARK  status: ('A' for Active; 'I' for Inactive)
REMARK    1  A    between atoms: C_2  and  O_3 
REMARK    2  A    between atoms: O_3  and  C_4 
REMARK    3  A    between atoms: C_8  and  C_9 
REMARK    4  A    between atoms: C_9  and  N_10 
REMARK       I    between atoms: N_10  and  C_11 
REMARK       I    between atoms: C_11  and  N_12 
REMARK    5  A    between atoms: N_12  and  C_13 
ROOT
HETATM    1  N   UNL     1      -6.077   2.700 -31.831  1.00  0.00    -0.339 N 
HETATM    2  C   UNL     1      -5.722   1.390 -32.034  1.00  0.00     0.316 C 
HETATM    3  N   UNL     1      -6.671   0.709 -32.762  1.00  0.00    -0.337 N 
HETATM    4  O   UNL     1      -4.690   0.888 -31.608  1.00  0.00    -0.247 OA
HETATM    5  H   UNL     1      -7.060   2.920 -31.866  1.00  0.00     0.164 HD
HETATM    6  H   UNL     1      -7.225   1.275 -33.389  1.00  0.00     0.164 HD
ENDROOT
BRANCH   1   7
HETATM    7  C   UNL     1      -5.225   3.592 -31.073  1.00  0.00     0.163 C 
BRANCH   7   8
HETATM    8  C   UNL     1      -4.110   4.202 -31.885  1.00  0.00    -0.035 A 
HETATM    9  C   UNL     1      -4.337   4.897 -33.075  1.00  0.00     0.028 A 
HETATM   10  C   UNL     1      -3.256   5.465 -33.732  1.00  0.00     0.120 A 
HETATM   11  N   UNL     1      -1.985   5.406 -33.285  1.00  0.00    -0.237 NA
HETATM   12  C   UNL     1      -1.783   4.768 -32.120  1.00  0.00     0.165 A 
HETATM   13  C   UNL     1      -2.799   4.160 -31.395  1.00  0.00     0.066 A 
BRANCH  12  14
HETATM   14  O   UNL     1      -0.532   4.714 -31.551  1.00  0.00    -0.324 OA
BRANCH  14  15
HETATM   15  C   UNL     1      -0.103   5.743 -30.641  1.00  0.00     0.058 C 
HETATM   16  C   UNL     1      -1.264   6.429 -29.906  1.00  0.00     0.045 C 
HETATM   17  C   UNL     1       0.841   6.750 -31.313  1.00  0.00     0.045 C 
HETATM   18  C   UNL     1       0.714   4.973 -29.583  1.00  0.00     0.045 C 
ENDBRANCH  14  15
ENDBRANCH  12  14
ENDBRANCH   7   8
ENDBRANCH   1   7
BRANCH   3  19
HETATM   19  C   UNL     1      -6.455  -0.659 -33.139  1.00  0.00     0.100 A 
HETATM   20  C   UNL     1      -5.191  -1.090 -33.845  1.00  0.00     0.049 A 
HETATM   21  C   UNL     1      -6.514  -1.049 -34.594  1.00  0.00     0.024 A 
HETATM   22  C   UNL     1      -4.797  -2.534 -33.866  1.00  0.00    -0.045 A 
HETATM   23  C   UNL     1      -6.909  -2.453 -35.026  1.00  0.00     0.046 A 
HETATM   24  C   UNL     1      -5.765  -3.309 -34.534  1.00  0.00    -0.051 A 
HETATM   25  C   UNL     1      -5.632  -4.683 -34.671  1.00  0.00     0.007 A 
HETATM   26  C   UNL     1      -4.503  -5.295 -34.126  1.00  0.00     0.001 A 
HETATM   27  C   UNL     1      -3.531  -4.534 -33.458  1.00  0.00     0.001 A 
HETATM   28  C   UNL     1      -3.677  -3.149 -33.324  1.00  0.00     0.008 A 
ENDBRANCH   3  19
TORSDOF 5
ENDMDL
MODEL 2
REMARK VINA RESULT:      -9.0      1.881      2.537
REMARK  5 active torsions:
REMARK  status: ('A' for Active; 'I' for Inactive)
REMARK    1  A    between atoms: C_2  and  O_3 
REMARK    2  A    between atoms: O_3  and  C_4 
REMARK    3  A    between atoms: C_8  and  C_9 
REMARK    4  A    between atoms: C_9  and  N_10 
REMARK       I    between atoms: N_10  and  C_11 
REMARK       I    between atoms: C_11  and  N_12 
REMARK    5  A    between atoms: N_12  and  C_13 
ROOT
HETATM    1  N   UNL     1      -4.947   2.407 -30.475  1.00  0.00    -0.339 N 
HETATM    2  C   UNL     1      -5.611   1.487 -31.247  1.00  0.00     0.316 C 
HETATM    3  N   UNL     1      -4.774   0.485 -31.681  1.00  0.00    -0.337 N 
HETATM    4  O   UNL     1      -6.801   1.559 -31.523  1.00  0.00    -0.247 OA
HETATM    5  H   UNL     1      -3.952   2.492 -30.614  1.00  0.00     0.164 HD
HETATM    6  H   UNL     1      -3.980   0.294 -31.086  1.00  0.00     0.164 HD
ENDROOT
BRANCH   1   7
HETATM    7  C   UNL     1      -5.639   3.555 -29.929  1.00  0.00     0.163 C 
BRANCH   7   8
HETATM    8  C   UNL     1      -5.178   4.872 -30.502  1.00  0.00    -0.035 A 
HETATM    9  C   UNL     1      -5.241   6.069 -29.785  1.00  0.00     0.028 A 
HETATM   10  C   UNL     1      -4.751   7.226 -30.374  1.00  0.00     0.120 A 
HETATM   11  N   UNL     1      -4.195   7.270 -31.603  1.00  0.00    -0.237 NA
HETATM   12  C   UNL     1      -4.106   6.106 -32.268  1.00  0.00     0.165 A 
HETATM   13  C   UNL     1      -4.576   4.900 -31.765  1.00  0.00     0.066 A 
BRANCH  12  14
HETATM   14  O   UNL     1      -3.495   6.040 -33.498  1.00  0.00    -0.324 OA
BRANCH  14  15
HETATM   15  C   UNL     1      -2.067   5.897 -33.593  1.00  0.00     0.058 C 
HETATM   16  C   UNL     1      -1.466   5.029 -32.476  1.00  0.00     0.045 C 
HETATM   17  C   UNL     1      -1.359   7.252 -33.725  1.00  0.00     0.045 C 
HETATM   18  C   UNL     1      -1.866   5.136 -34.919  1.00  0.00     0.045 C 
ENDBRANCH  14  15
ENDBRANCH  12  14
ENDBRANCH   7   8
ENDBRANCH   1   7
BRANCH   3  19
HETATM   19  C   UNL     1      -5.291  -0.614 -32.448  1.00  0.00     0.100 A 
HETATM   20  C   UNL     1      -4.457  -1.293 -33.510  1.00  0.00     0.049 A 
HETATM   21  C   UNL     1      -5.633  -0.411 -33.903  1.00  0.00     0.024 A 
HETATM   22  C   UNL     1      -4.834  -2.655 -34.003  1.00  0.00    -0.045 A 
HETATM   23  C   UNL     1      -6.700  -1.247 -34.592  1.00  0.00     0.046 A 
HETATM   24  C   UNL     1      -6.102  -2.634 -34.617  1.00  0.00    -0.051 A 
HETATM   25  C   UNL     1      -6.677  -3.782 -35.142  1.00  0.00     0.007 A 
HETATM   26  C   UNL     1      -5.965  -4.979 -35.048  1.00  0.00     0.001 A 
HETATM   27  C   UNL     1      -4.702  -5.013 -34.439  1.00  0.00     0.001 A 
HETATM   28  C   UNL     1      -4.133  -3.849 -33.912  1.00  0.00     0.008 A 
ENDBRANCH   3  19
TORSDOF 5
ENDMDL
MODEL 3
REMARK VINA RESULT:      -9.0      2.506      3.704
REMARK  5 active torsions:
REMARK  status: ('A' for Active; 'I' for Inactive)
REMARK    1  A    between atoms: C_2  and  O_3 
REMARK    2  A    between atoms: O_3  and  C_4 
REMARK    3  A    between atoms: C_8  and  C_9 
REMARK    4  A    between atoms: C_9  and  N_10 
REMARK       I    between atoms: N_10  and  C_11 
REMARK       I    between atoms: C_11  and  N_12 
REMARK    5  A    between atoms: N_12  and  C_13 
ROOT
HETATM    1  N   UNL     1      -3.594   4.236 -30.770  1.00  0.00    -0.339 N 
HETATM    2  C   UNL     1      -3.600   3.242 -31.715  1.00  0.00     0.316 C 
HETATM    3  N   UNL     1      -3.831   2.005 -31.156  1.00  0.00    -0.337 N 
HETATM    4  O   UNL     1      -3.411   3.434 -32.909  1.00  0.00    -0.247 OA
HETATM    5  H   UNL     1      -3.374   3.969 -29.823  1.00  0.00     0.164 HD
HETATM    6  H   UNL     1      -4.367   2.010 -30.300  1.00  0.00     0.164 HD
ENDROOT
BRANCH   1   7
HETATM    7  C   UNL     1      -3.352   5.614 -31.142  1.00  0.00     0.163 C 
BRANCH   7   8
HETATM    8  C   UNL     1      -1.967   6.102 -30.797  1.00  0.00    -0.035 A 
HETATM    9  C   UNL     1      -0.833   5.721 -31.517  1.00  0.00     0.028 A 
HETATM   10  C   UNL     1       0.396   6.256 -31.158  1.00  0.00     0.120 A 
HETATM   11  N   UNL     1       0.570   7.143 -30.157  1.00  0.00    -0.237 NA
HETATM   12  C   UNL     1      -0.533   7.530 -29.495  1.00  0.00     0.165 A 
HETATM   13  C   UNL     1      -1.804   7.045 -29.776  1.00  0.00     0.066 A 
BRANCH  12  14
HETATM   14  O   UNL     1      -0.466   8.481 -28.503  1.00  0.00    -0.324 OA
BRANCH  14  15
HETATM   15  C   UNL     1       0.281   8.224 -27.301  1.00  0.00     0.058 C 
HETATM   16  C   UNL     1       1.729   8.735 -27.362  1.00  0.00     0.045 C 
HETATM   17  C   UNL     1       0.199   6.752 -26.873  1.00  0.00     0.045 C 
HETATM   18  C   UNL     1      -0.453   9.061 -26.233  1.00  0.00     0.045 C 
ENDBRANCH  14  15
ENDBRANCH  12  14
ENDBRANCH   7   8
ENDBRANCH   1   7
BRANCH   3  19
HETATM   19  C   UNL     1      -3.943   0.840 -31.989  1.00  0.00     0.100 A 
HETATM   20  C   UNL     1      -5.102  -0.119 -31.847  1.00  0.00     0.049 A 
HETATM   21  C   UNL     1      -3.709  -0.525 -31.393  1.00  0.00     0.024 A 
HETATM   22  C   UNL     1      -5.426  -1.073 -32.954  1.00  0.00    -0.045 A 
HETATM   23  C   UNL     1      -3.206  -1.685 -32.239  1.00  0.00     0.046 A 
HETATM   24  C   UNL     1      -4.356  -1.963 -33.178  1.00  0.00    -0.051 A 
HETATM   25  C   UNL     1      -4.411  -2.935 -34.166  1.00  0.00     0.007 A 
HETATM   26  C   UNL     1      -5.565  -3.018 -34.947  1.00  0.00     0.001 A 
HETATM   27  C   UNL     1      -6.636  -2.138 -34.733  1.00  0.00     0.001 A 
HETATM   28  C   UNL     1      -6.569  -1.161 -33.736  1.00  0.00     0.008 A 
ENDBRANCH   3  19
TORSDOF 5
ENDMDL
MODEL 4
REMARK VINA RESULT:      -8.4      4.784      6.855
REMARK  5 active torsions:
REMARK  status: ('A' for Active; 'I' for Inactive)
REMARK    1  A    between atoms: C_2  and  O_3 
REMARK    2  A    between atoms: O_3  and  C_4 
REMARK    3  A    between atoms: C_8  and  C_9 
REMARK    4  A    between atoms: C_9  and  N_10 
REMARK       I    between atoms: N_10  and  C_11 
REMARK       I    between atoms: C_11  and  N_12 
REMARK    5  A    between atoms: N_12  and  C_13 
ROOT
HETATM    1  N   UNL     1      -7.058   2.506 -31.134  1.00  0.00    -0.339 N 
HETATM    2  C   UNL     1      -7.223   1.224 -31.595  1.00  0.00     0.316 C 
HETATM    3  N   UNL     1      -6.146   0.806 -32.343  1.00  0.00    -0.337 N 
HETATM    4  O   UNL     1      -8.215   0.542 -31.375  1.00  0.00    -0.247 OA
HETATM    5  H   UNL     1      -6.436   3.105 -31.655  1.00  0.00     0.164 HD
HETATM    6  H   UNL     1      -5.264   1.243 -32.115  1.00  0.00     0.164 HD
ENDROOT
BRANCH   1   7
HETATM    7  C   UNL     1      -8.083   3.147 -30.339  1.00  0.00     0.163 C 
BRANCH   7   8
HETATM    8  C   UNL     1      -9.119   3.877 -31.157  1.00  0.00    -0.035 A 
HETATM    9  C   UNL     1      -8.952   5.197 -31.580  1.00  0.00     0.028 A 
HETATM   10  C   UNL     1      -9.936   5.775 -32.369  1.00  0.00     0.120 A 
HETATM   11  N   UNL     1     -11.051   5.133 -32.774  1.00  0.00    -0.237 NA
HETATM   12  C   UNL     1     -11.184   3.852 -32.393  1.00  0.00     0.165 A 
HETATM   13  C   UNL     1     -10.258   3.191 -31.597  1.00  0.00     0.066 A 
BRANCH  12  14
HETATM   14  O   UNL     1     -12.254   3.096 -32.813  1.00  0.00    -0.324 OA
BRANCH  14  15
HETATM   15  C   UNL     1     -12.114   2.197 -33.927  1.00  0.00     0.058 C 
HETATM   16  C   UNL     1     -12.816   0.847 -33.712  1.00  0.00     0.045 C 
HETATM   17  C   UNL     1     -10.650   2.032 -34.357  1.00  0.00     0.045 C 
HETATM   18  C   UNL     1     -12.857   2.919 -35.070  1.00  0.00     0.045 C 
ENDBRANCH  14  15
ENDBRANCH  12  14
ENDBRANCH   7   8
ENDBRANCH   1   7
BRANCH   3  19
HETATM   19  C   UNL     1      -6.094  -0.533 -32.860  1.00  0.00     0.100 A 
HETATM   20  C   UNL     1      -4.886  -1.039 -33.614  1.00  0.00     0.049 A 
HETATM   21  C   UNL     1      -6.190  -0.761 -34.348  1.00  0.00     0.024 A 
HETATM   22  C   UNL     1      -4.670  -2.510 -33.785  1.00  0.00    -0.045 A 
HETATM   23  C   UNL     1      -6.749  -2.054 -34.919  1.00  0.00     0.046 A 
HETATM   24  C   UNL     1      -5.721  -3.089 -34.524  1.00  0.00    -0.051 A 
HETATM   25  C   UNL     1      -5.754  -4.447 -34.803  1.00  0.00     0.007 A 
HETATM   26  C   UNL     1      -4.711  -5.244 -34.330  1.00  0.00     0.001 A 
HETATM   27  C   UNL     1      -3.659  -4.679 -33.593  1.00  0.00     0.001 A 
HETATM   28  C   UNL     1      -3.637  -3.308 -33.317  1.00  0.00     0.008 A 
ENDBRANCH   3  19
TORSDOF 5
ENDMDL
MODEL 5
REMARK VINA RESULT:      -8.3      1.385      2.057
REMARK  5 active torsions:
REMARK  status: ('A' for Active; 'I' for Inactive)
REMARK    1  A    between atoms: C_2  and  O_3 
REMARK    2  A    between atoms: O_3  and  C_4 
REMARK    3  A    between atoms: C_8  and  C_9 
REMARK    4  A    between atoms: C_9  and  N_10 
REMARK       I    between atoms: N_10  and  C_11 
REMARK       I    between atoms: C_11  and  N_12 
REMARK    5  A    between atoms: N_12  and  C_13 
ROOT
HETATM    1  N   UNL     1      -6.474   3.509 -33.302  1.00  0.00    -0.339 N 
HETATM    2  C   UNL     1      -5.788   2.321 -33.275  1.00  0.00     0.316 C 
HETATM    3  N   UNL     1      -6.447   1.334 -33.973  1.00  0.00    -0.337 N 
HETATM    4  O   UNL     1      -4.725   2.159 -32.691  1.00  0.00    -0.247 OA
HETATM    5  H   UNL     1      -7.470   3.462 -33.454  1.00  0.00     0.164 HD
HETATM    6  H   UNL     1      -7.042   1.657 -34.723  1.00  0.00     0.164 HD
ENDROOT
BRANCH   1   7
HETATM    7  C   UNL     1      -5.964   4.676 -32.614  1.00  0.00     0.163 C 
BRANCH   7   8
HETATM    8  C   UNL     1      -4.662   5.190 -33.174  1.00  0.00    -0.035 A 
HETATM    9  C   UNL     1      -4.326   5.078 -34.526  1.00  0.00     0.028 A 
HETATM   10  C   UNL     1      -3.126   5.621 -34.962  1.00  0.00     0.120 A 
HETATM   11  N   UNL     1      -2.258   6.274 -34.163  1.00  0.00    -0.237 NA
HETATM   12  C   UNL     1      -2.608   6.408 -32.873  1.00  0.00     0.165 A 
HETATM   13  C   UNL     1      -3.782   5.892 -32.341  1.00  0.00     0.066 A 
BRANCH  12  14
HETATM   14  O   UNL     1      -1.819   7.115 -31.996  1.00  0.00    -0.324 OA
BRANCH  14  15
HETATM   15  C   UNL     1      -1.032   6.425 -31.009  1.00  0.00     0.058 C 
HETATM   16  C   UNL     1      -1.026   4.900 -31.192  1.00  0.00     0.045 C 
HETATM   17  C   UNL     1      -1.405   6.841 -29.579  1.00  0.00     0.045 C 
HETATM   18  C   UNL     1       0.403   6.923 -31.279  1.00  0.00     0.045 C 
ENDBRANCH  14  15
ENDBRANCH  12  14
ENDBRANCH   7   8
ENDBRANCH   1   7
BRANCH   3  19
HETATM   19  C   UNL     1      -5.860   0.032 -34.122  1.00  0.00     0.100 A 
HETATM   20  C   UNL     1      -6.556  -1.208 -33.611  1.00  0.00     0.049 A 
HETATM   21  C   UNL     1      -5.313  -0.681 -32.911  1.00  0.00     0.024 A 
HETATM   22  C   UNL     1      -6.154  -2.558 -34.118  1.00  0.00    -0.045 A 
HETATM   23  C   UNL     1      -4.184  -1.694 -33.027  1.00  0.00     0.046 A 
HETATM   24  C   UNL     1      -4.812  -2.838 -33.789  1.00  0.00    -0.051 A 
HETATM   25  C   UNL     1      -4.203  -4.026 -34.163  1.00  0.00     0.007 A 
HETATM   26  C   UNL     1      -4.954  -4.955 -34.884  1.00  0.00     0.001 A 
HETATM   27  C   UNL     1      -6.290  -4.687 -35.218  1.00  0.00     0.001 A 
HETATM   28  C   UNL     1      -6.894  -3.485 -34.836  1.00  0.00     0.008 A 
ENDBRANCH   3  19
TORSDOF 5
ENDMDL
MODEL 6
REMARK VINA RESULT:      -8.2      2.503      3.421
REMARK  5 active torsions:
REMARK  status: ('A' for Active; 'I' for Inactive)
REMARK    1  A    between atoms: C_2  and  O_3 
REMARK    2  A    between atoms: O_3  and  C_4 
REMARK    3  A    between atoms: C_8  and  C_9 
REMARK    4  A    between atoms: C_9  and  N_10 
REMARK       I    between atoms: N_10  and  C_11 
REMARK       I    between atoms: C_11  and  N_12 
REMARK    5  A    between atoms: N_12  and  C_13 
ROOT
HETATM    1  N   UNL     1      -8.592   1.926 -32.665  1.00  0.00    -0.339 N 
HETATM    2  C   UNL     1      -7.873   0.774 -32.477  1.00  0.00     0.316 C 
HETATM    3  N   UNL     1      -7.762   0.044 -33.639  1.00  0.00    -0.337 N 
HETATM    4  O   UNL     1      -7.397   0.433 -31.402  1.00  0.00    -0.247 OA
HETATM    5  H   UNL     1      -9.247   1.939 -33.432  1.00  0.00     0.164 HD
HETATM    6  H   UNL     1      -7.806   0.580 -34.494  1.00  0.00     0.164 HD
ENDROOT
BRANCH   1   7
HETATM    7  C   UNL     1      -8.842   2.834 -31.565  1.00  0.00     0.163 C 
BRANCH   7   8
HETATM    8  C   UNL     1      -7.663   3.708 -31.220  1.00  0.00    -0.035 A 
HETATM    9  C   UNL     1      -7.142   3.795 -29.927  1.00  0.00     0.028 A 
HETATM   10  C   UNL     1      -6.026   4.589 -29.709  1.00  0.00     0.120 A 
HETATM   11  N   UNL     1      -5.391   5.280 -30.677  1.00  0.00    -0.237 NA
HETATM   12  C   UNL     1      -5.878   5.160 -31.923  1.00  0.00     0.165 A 
HETATM   13  C   UNL     1      -6.994   4.397 -32.238  1.00  0.00     0.066 A 
BRANCH  12  14
HETATM   14  O   UNL     1      -5.258   5.774 -32.987  1.00  0.00    -0.324 OA
BRANCH  14  15
HETATM   15  C   UNL     1      -4.059   5.213 -33.551  1.00  0.00     0.058 C 
HETATM   16  C   UNL     1      -4.103   5.096 -35.083  1.00  0.00     0.045 C 
HETATM   17  C   UNL     1      -3.667   3.892 -32.876  1.00  0.00     0.045 C 
HETATM   18  C   UNL     1      -2.975   6.253 -33.205  1.00  0.00     0.045 C 
ENDBRANCH  14  15
ENDBRANCH  12  14
ENDBRANCH   7   8
ENDBRANCH   1   7
BRANCH   3  19
HETATM   19  C   UNL     1      -6.987  -1.165 -33.668  1.00  0.00     0.100 A 
HETATM   20  C   UNL     1      -5.489  -1.134 -33.865  1.00  0.00     0.049 A 
HETATM   21  C   UNL     1      -6.400  -1.643 -34.972  1.00  0.00     0.024 A 
HETATM   22  C   UNL     1      -4.659  -2.322 -33.493  1.00  0.00    -0.045 A 
HETATM   23  C   UNL     1      -6.130  -3.117 -35.230  1.00  0.00     0.046 A 
HETATM   24  C   UNL     1      -5.017  -3.447 -34.263  1.00  0.00    -0.051 A 
HETATM   25  C   UNL     1      -4.397  -4.675 -34.092  1.00  0.00     0.007 A 
HETATM   26  C   UNL     1      -3.395  -4.781 -33.126  1.00  0.00     0.001 A 
HETATM   27  C   UNL     1      -3.030  -3.669 -32.353  1.00  0.00     0.001 A 
HETATM   28  C   UNL     1      -3.663  -2.435 -32.533  1.00  0.00     0.008 A 
ENDBRANCH   3  19
TORSDOF 5
ENDMDL
MODEL 7
REMARK VINA RESULT:      -8.2      1.655      2.232
REMARK  5 active torsions:
REMARK  status: ('A' for Active; 'I' for Inactive)
REMARK    1  A    between atoms: C_2  and  O_3 
REMARK    2  A    between atoms: O_3  and  C_4 
REMARK    3  A    between atoms: C_8  and  C_9 
REMARK    4  A    between atoms: C_9  and  N_10 
REMARK       I    between atoms: N_10  and  C_11 
REMARK       I    between atoms: C_11  and  N_12 
REMARK    5  A    between atoms: N_12  and  C_13 
ROOT
HETATM    1  N   UNL     1      -6.159   2.586 -31.457  1.00  0.00    -0.339 N 
HETATM    2  C   UNL     1      -5.884   1.257 -31.657  1.00  0.00     0.316 C 
HETATM    3  N   UNL     1      -6.638   0.726 -32.679  1.00  0.00    -0.337 N 
HETATM    4  O   UNL     1      -5.072   0.621 -30.997  1.00  0.00    -0.247 OA
HETATM    5  H   UNL     1      -7.065   2.917 -31.753  1.00  0.00     0.164 HD
HETATM    6  H   UNL     1      -6.929   1.382 -33.389  1.00  0.00     0.164 HD
ENDROOT
BRANCH   1   7
HETATM    7  C   UNL     1      -5.487   3.336 -30.417  1.00  0.00     0.163 C 
BRANCH   7   8
HETATM    8  C   UNL     1      -4.323   4.155 -30.915  1.00  0.00    -0.035 A 
HETATM    9  C   UNL     1      -3.212   3.583 -31.540  1.00  0.00     0.028 A 
HETATM   10  C   UNL     1      -2.207   4.417 -32.009  1.00  0.00     0.120 A 
HETATM   11  N   UNL     1      -2.238   5.762 -31.914  1.00  0.00    -0.237 NA
HETATM   12  C   UNL     1      -3.327   6.303 -31.344  1.00  0.00     0.165 A 
HETATM   13  C   UNL     1      -4.379   5.551 -30.838  1.00  0.00     0.066 A 
BRANCH  12  14
HETATM   14  O   UNL     1      -3.479   7.668 -31.263  1.00  0.00    -0.324 OA
BRANCH  14  15
HETATM   15  C   UNL     1      -3.081   8.374 -30.074  1.00  0.00     0.058 C 
HETATM   16  C   UNL     1      -1.972   7.661 -29.285  1.00  0.00     0.045 C 
HETATM   17  C   UNL     1      -4.281   8.743 -29.192  1.00  0.00     0.045 C 
HETATM   18  C   UNL     1      -2.481   9.687 -30.617  1.00  0.00     0.045 C 
ENDBRANCH  14  15
ENDBRANCH  12  14
ENDBRANCH   7   8
ENDBRANCH   1   7
BRANCH   3  19
HETATM   19  C   UNL     1      -6.449  -0.637 -33.089  1.00  0.00     0.100 A 
HETATM   20  C   UNL     1      -5.213  -1.066 -33.846  1.00  0.00     0.049 A 
HETATM   21  C   UNL     1      -6.560  -0.998 -34.549  1.00  0.00     0.024 A 
HETATM   22  C   UNL     1      -4.835  -2.513 -33.907  1.00  0.00    -0.045 A 
HETATM   23  C   UNL     1      -6.984  -2.389 -34.995  1.00  0.00     0.046 A 
HETATM   24  C   UNL     1      -5.833  -3.266 -34.558  1.00  0.00    -0.051 A 
HETATM   25  C   UNL     1      -5.719  -4.638 -34.726  1.00  0.00     0.007 A 
HETATM   26  C   UNL     1      -4.579  -5.271 -34.231  1.00  0.00     0.001 A 
HETATM   27  C   UNL     1      -3.578  -4.533 -33.581  1.00  0.00     0.001 A 
HETATM   28  C   UNL     1      -3.704  -3.150 -33.416  1.00  0.00     0.008 A 
ENDBRANCH   3  19
TORSDOF 5
ENDMDL
MODEL 8
REMARK VINA RESULT:      -8.0      2.212      3.068
REMARK  5 active torsions:
REMARK  status: ('A' for Active; 'I' for Inactive)
REMARK    1  A    between atoms: C_2  and  O_3 
REMARK    2  A    between atoms: O_3  and  C_4 
REMARK    3  A    between atoms: C_8  and  C_9 
REMARK    4  A    between atoms: C_9  and  N_10 
REMARK       I    between atoms: N_10  and  C_11 
REMARK       I    between atoms: C_11  and  N_12 
REMARK    5  A    between atoms: N_12  and  C_13 
ROOT
HETATM    1  N   UNL     1      -5.120   3.717 -29.827  1.00  0.00    -0.339 N 
HETATM    2  C   UNL     1      -5.215   2.851 -30.887  1.00  0.00     0.316 C 
HETATM    3  N   UNL     1      -4.361   1.780 -30.751  1.00  0.00    -0.337 N 
HETATM    4  O   UNL     1      -5.961   3.020 -31.842  1.00  0.00    -0.247 OA
HETATM    5  H   UNL     1      -4.254   3.718 -29.310  1.00  0.00     0.164 HD
HETATM    6  H   UNL     1      -4.130   1.528 -29.800  1.00  0.00     0.164 HD
ENDROOT
BRANCH   1   7
HETATM    7  C   UNL     1      -5.921   4.922 -29.778  1.00  0.00     0.163 C 
BRANCH   7   8
HETATM    8  C   UNL     1      -5.218   6.141 -30.318  1.00  0.00    -0.035 A 
HETATM    9  C   UNL     1      -5.906   7.256 -30.804  1.00  0.00     0.028 A 
HETATM   10  C   UNL     1      -5.177   8.353 -31.239  1.00  0.00     0.120 A 
HETATM   11  N   UNL     1      -3.830   8.424 -31.209  1.00  0.00    -0.237 NA
HETATM   12  C   UNL     1      -3.180   7.362 -30.706  1.00  0.00     0.165 A 
HETATM   13  C   UNL     1      -3.821   6.216 -30.255  1.00  0.00     0.066 A 
BRANCH  12  14
HETATM   14  O   UNL     1      -1.811   7.368 -30.573  1.00  0.00    -0.324 OA
BRANCH  14  15
HETATM   15  C   UNL     1      -0.986   6.656 -31.512  1.00  0.00     0.058 C 
HETATM   16  C   UNL     1      -1.391   5.183 -31.683  1.00  0.00     0.045 C 
HETATM   17  C   UNL     1       0.509   6.819 -31.208  1.00  0.00     0.045 C 
HETATM   18  C   UNL     1      -1.269   7.364 -32.853  1.00  0.00     0.045 C 
ENDBRANCH  14  15
ENDBRANCH  12  14
ENDBRANCH   7   8
ENDBRANCH   1   7
BRANCH   3  19
HETATM   19  C   UNL     1      -4.357   0.724 -31.724  1.00  0.00     0.100 A 
HETATM   20  C   UNL     1      -5.392  -0.377 -31.693  1.00  0.00     0.049 A 
HETATM   21  C   UNL     1      -3.949  -0.668 -31.311  1.00  0.00     0.024 A 
HETATM   22  C   UNL     1      -5.632  -1.216 -32.909  1.00  0.00    -0.045 A 
HETATM   23  C   UNL     1      -3.337  -1.644 -32.304  1.00  0.00     0.046 A 
HETATM   24  C   UNL     1      -4.472  -1.936 -33.258  1.00  0.00    -0.051 A 
HETATM   25  C   UNL     1      -4.439  -2.776 -34.361  1.00  0.00     0.007 A 
HETATM   26  C   UNL     1      -5.595  -2.898 -35.133  1.00  0.00     0.001 A 
HETATM   27  C   UNL     1      -6.756  -2.186 -34.796  1.00  0.00     0.001 A 
HETATM   28  C   UNL     1      -6.777  -1.341 -33.682  1.00  0.00     0.008 A 
ENDBRANCH   3  19
TORSDOF 5
ENDMDL
MODEL 9
REMARK VINA RESULT:      -7.9      2.406      3.040
REMARK  5 active torsions:
REMARK  status: ('A' for Active; 'I' for Inactive)
REMARK    1  A    between atoms: C_2  and  O_3 
REMARK    2  A    between atoms: O_3  and  C_4 
REMARK    3  A    between atoms: C_8  and  C_9 
REMARK    4  A    between atoms: C_9  and  N_10 
REMARK       I    between atoms: N_10  and  C_11 
REMARK       I    between atoms: C_11  and  N_12 
REMARK    5  A    between atoms: N_12  and  C_13 
ROOT
HETATM    1  N   UNL     1      -6.217   3.004 -31.066  1.00  0.00    -0.339 N 
HETATM    2  C   UNL     1      -6.611   1.757 -31.483  1.00  0.00     0.316 C 
HETATM    3  N   UNL     1      -5.743   1.230 -32.413  1.00  0.00    -0.337 N 
HETATM    4  O   UNL     1      -7.618   1.190 -31.082  1.00  0.00    -0.247 OA
HETATM    5  H   UNL     1      -5.635   3.536 -31.695  1.00  0.00     0.164 HD
HETATM    6  H   UNL     1      -4.790   1.559 -32.352  1.00  0.00     0.164 HD
ENDROOT
BRANCH   1   7
HETATM    7  C   UNL     1      -6.998   3.745 -30.100  1.00  0.00     0.163 C 
BRANCH   7   8
HETATM    8  C   UNL     1      -6.365   5.046 -29.676  1.00  0.00    -0.035 A 
HETATM    9  C   UNL     1      -6.376   5.495 -28.353  1.00  0.00     0.028 A 
HETATM   10  C   UNL     1      -5.727   6.682 -28.046  1.00  0.00     0.120 A 
HETATM   11  N   UNL     1      -5.065   7.435 -28.947  1.00  0.00    -0.237 NA
HETATM   12  C   UNL     1      -5.029   6.976 -30.209  1.00  0.00     0.165 A 
HETATM   13  C   UNL     1      -5.654   5.804 -30.615  1.00  0.00     0.066 A 
BRANCH  12  14
HETATM   14  O   UNL     1      -4.321   7.640 -31.184  1.00  0.00    -0.324 OA
BRANCH  14  15
HETATM   15  C   UNL     1      -2.883   7.663 -31.149  1.00  0.00     0.058 C 
HETATM   16  C   UNL     1      -2.275   6.505 -30.344  1.00  0.00     0.045 C 
HETATM   17  C   UNL     1      -2.338   9.029 -30.711  1.00  0.00     0.045 C 
HETATM   18  C   UNL     1      -2.482   7.452 -32.624  1.00  0.00     0.045 C 
ENDBRANCH  14  15
ENDBRANCH  12  14
ENDBRANCH   7   8
ENDBRANCH   1   7
BRANCH   3  19
HETATM   19  C   UNL     1      -5.943  -0.097 -32.924  1.00  0.00     0.100 A 
HETATM   20  C   UNL     1      -4.941  -0.739 -33.856  1.00  0.00     0.049 A 
HETATM   21  C   UNL     1      -6.298  -0.290 -34.377  1.00  0.00     0.024 A 
HETATM   22  C   UNL     1      -4.941  -2.223 -34.050  1.00  0.00    -0.045 A 
HETATM   23  C   UNL     1      -7.098  -1.495 -34.846  1.00  0.00     0.046 A 
HETATM   24  C   UNL     1      -6.159  -2.656 -34.612  1.00  0.00    -0.051 A 
HETATM   25  C   UNL     1      -6.407  -3.995 -34.874  1.00  0.00     0.007 A 
HETATM   26  C   UNL     1      -5.411  -4.923 -34.567  1.00  0.00     0.001 A 
HETATM   27  C   UNL     1      -4.195  -4.505 -34.007  1.00  0.00     0.001 A 
HETATM   28  C   UNL     1      -3.956  -3.152 -33.745  1.00  0.00     0.008 A 
ENDBRANCH   3  19
TORSDOF 5
ENDMDL
MODEL 10
REMARK VINA RESULT:      -7.9      3.678      4.990
REMARK  5 active torsions:
REMARK  status: ('A' for Active; 'I' for Inactive)
REMARK    1  A    between atoms: C_2  and  O_3 
REMARK    2  A    between atoms: O_3  and  C_4 
REMARK    3  A    between atoms: C_8  and  C_9 
REMARK    4  A    between atoms: C_9  and  N_10 
REMARK       I    between atoms: N_10  and  C_11 
REMARK       I    between atoms: C_11  and  N_12 
REMARK    5  A    between atoms: N_12  and  C_13 
ROOT
HETATM    1  N   UNL     1      -9.902   1.398 -34.529  1.00  0.00    -0.339 N 
HETATM    2  C   UNL     1      -9.014   0.603 -33.848  1.00  0.00     0.316 C 
HETATM    3  N   UNL     1      -8.254  -0.163 -34.703  1.00  0.00    -0.337 N 
HETATM    4  O   UNL     1      -8.919   0.574 -32.628  1.00  0.00    -0.247 OA
HETATM    5  H   UNL     1     -10.179   1.093 -35.449  1.00  0.00     0.164 HD
HETATM    6  H   UNL     1      -8.113   0.225 -35.625  1.00  0.00     0.164 HD
ENDROOT
BRANCH   1   7
HETATM    7  C   UNL     1     -10.810   2.272 -33.819  1.00  0.00     0.163 C 
BRANCH   7   8
HETATM    8  C   UNL     1     -10.197   3.591 -33.421  1.00  0.00    -0.035 A 
HETATM    9  C   UNL     1     -10.768   4.430 -32.461  1.00  0.00     0.028 A 
HETATM   10  C   UNL     1     -10.110   5.603 -32.123  1.00  0.00     0.120 A 
HETATM   11  N   UNL     1      -8.932   5.987 -32.654  1.00  0.00    -0.237 NA
HETATM   12  C   UNL     1      -8.373   5.156 -33.549  1.00  0.00     0.165 A 
HETATM   13  C   UNL     1      -8.959   3.965 -33.957  1.00  0.00     0.066 A 
BRANCH  12  14
HETATM   14  O   UNL     1      -7.140   5.429 -34.095  1.00  0.00    -0.324 OA
BRANCH  14  15
HETATM   15  C   UNL     1      -5.939   5.152 -33.352  1.00  0.00     0.058 C 
HETATM   16  C   UNL     1      -6.064   3.933 -32.426  1.00  0.00     0.045 C 
HETATM   17  C   UNL     1      -5.416   6.393 -32.617  1.00  0.00     0.045 C 
HETATM   18  C   UNL     1      -4.913   4.791 -34.445  1.00  0.00     0.045 C 
ENDBRANCH  14  15
ENDBRANCH  12  14
ENDBRANCH   7   8
ENDBRANCH   1   7
BRANCH   3  19
HETATM   19  C   UNL     1      -7.217  -1.014 -34.190  1.00  0.00     0.100 A 
HETATM   20  C   UNL     1      -5.759  -0.629 -34.296  1.00  0.00     0.049 A 
HETATM   21  C   UNL     1      -6.321  -1.757 -35.148  1.00  0.00     0.024 A 
HETATM   22  C   UNL     1      -4.742  -1.294 -33.423  1.00  0.00    -0.045 A 
HETATM   23  C   UNL     1      -5.664  -3.074 -34.764  1.00  0.00     0.046 A 
HETATM   24  C   UNL     1      -4.683  -2.678 -33.685  1.00  0.00    -0.051 A 
HETATM   25  C   UNL     1      -3.823  -3.516 -32.991  1.00  0.00     0.007 A 
HETATM   26  C   UNL     1      -3.003  -2.955 -32.010  1.00  0.00     0.001 A 
HETATM   27  C   UNL     1      -3.053  -1.579 -31.740  1.00  0.00     0.001 A 
HETATM   28  C   UNL     1      -3.925  -0.744 -32.445  1.00  0.00     0.008 A 
ENDBRANCH   3  19
TORSDOF 5
ENDMDL
