MODEL 1
REMARK VINA RESULT:      -7.9      0.000      0.000
REMARK  10 active torsions:
REMARK  status: ('A' for Active; 'I' for Inactive)
REMARK    1  A    between atoms: C_6  and  N_7 
REMARK    2  A    between atoms: C_8  and  S_9 
REMARK    3  A    between atoms: S_9  and  C_10 
REMARK    4  A    between atoms: C_10  and  C_11 
REMARK       I    between atoms: C_11  and  N_12 
REMARK    5  A    between atoms: N_12  and  C_13 
REMARK    6  A    between atoms: C_13  and  C_14 
REMARK    7  A    between atoms: C_14  and  C_15 
REMARK    8  A    between atoms: C_17  and  O_18 
REMARK    9  A    between atoms: C_20  and  O_21 
REMARK   10  A    between atoms: C_29  and  N_30 
ROOT
HETATM    1  N   UNL     1      -9.436   1.748 -33.333  1.00  0.00    -0.276 N 
HETATM    2  C   UNL     1      -9.630   2.994 -33.992  1.00  0.00     0.177 A 
HETATM    3  N   UNL     1     -10.739   3.381 -34.578  1.00  0.00    -0.204 NA
HETATM    4  C   UNL     1     -11.749   2.490 -34.490  1.00  0.00     0.162 A 
HETATM    5  C   UNL     1     -11.767   1.254 -33.908  1.00  0.00     0.081 A 
HETATM    6  C   UNL     1     -10.549   0.807 -33.303  1.00  0.00     0.124 A 
HETATM    7  N   UNL     1     -13.008   2.676 -34.980  1.00  0.00    -0.260 N 
HETATM    8  H   UNL     1     -13.373   3.486 -35.471  1.00  0.00     0.191 HD
HETATM    9  N   UNL     1     -13.827   1.627 -34.745  1.00  0.00    -0.177 NA
HETATM   10  C   UNL     1     -13.065   0.747 -34.075  1.00  0.00     0.068 A 
HETATM   11  C   UNL     1     -13.655  -0.539 -33.636  1.00  0.00     0.073 C 
ENDROOT
BRANCH   2  12
HETATM   12  S   UNL     1      -8.304   4.180 -34.050  1.00  0.00    -0.082 SA
BRANCH  12  13
HETATM   13  C   UNL     1      -8.991   5.512 -33.028  1.00  0.00     0.185 C 
BRANCH  13  14
HETATM   14  C   UNL     1      -8.509   5.422 -31.588  1.00  0.00     0.227 C 
HETATM   15  N   UNL     1      -7.141   5.555 -31.448  1.00  0.00    -0.360 N 
HETATM   16  H   UNL     1      -6.549   5.607 -32.267  1.00  0.00     0.162 HD
HETATM   17  O   UNL     1      -9.265   5.304 -30.627  1.00  0.00    -0.273 OA
BRANCH  15  18
HETATM   18  C   UNL     1      -6.504   5.642 -30.147  1.00  0.00     0.127 C 
BRANCH  18  19
HETATM   19  C   UNL     1      -5.499   4.515 -29.897  1.00  0.00     0.058 C 
BRANCH  19  20
HETATM   20  C   UNL     1      -4.327   4.616 -30.844  1.00  0.00    -0.054 A 
HETATM   21  C   UNL     1      -3.454   5.713 -30.779  1.00  0.00     0.046 A 
HETATM   22  C   UNL     1      -2.392   5.841 -31.683  1.00  0.00     0.102 A 
HETATM   23  C   UNL     1      -2.198   4.856 -32.673  1.00  0.00     0.101 A 
HETATM   24  C   UNL     1      -3.066   3.762 -32.734  1.00  0.00     0.040 A 
HETATM   25  C   UNL     1      -4.123   3.644 -31.828  1.00  0.00     0.010 A 
BRANCH  22  26
HETATM   26  O   UNL     1      -1.501   6.886 -31.691  1.00  0.00    -0.353 OA
HETATM   27  C   UNL     1      -1.907   8.094 -32.316  1.00  0.00     0.210 C 
ENDBRANCH  22  26
BRANCH  23  28
HETATM   28  O   UNL     1      -1.140   5.058 -33.525  1.00  0.00    -0.353 OA
HETATM   29  C   UNL     1      -1.432   5.297 -34.895  1.00  0.00     0.210 C 
ENDBRANCH  23  28
ENDBRANCH  19  20
ENDBRANCH  18  19
ENDBRANCH  15  18
ENDBRANCH  13  14
ENDBRANCH  12  13
ENDBRANCH   2  12
BRANCH   1  30
HETATM   30  C   UNL     1      -8.206   1.416 -32.691  1.00  0.00     0.045 A 
HETATM   31  C   UNL     1      -7.200   0.717 -33.369  1.00  0.00     0.054 A 
HETATM   32  C   UNL     1      -6.038   0.317 -32.700  1.00  0.00     0.042 A 
HETATM   33  C   UNL     1      -5.865   0.592 -31.335  1.00  0.00    -0.040 A 
HETATM   34 CL   UNL     1      -4.845  -0.542 -33.607  1.00  0.00    -0.084 Cl
HETATM   35  C   UNL     1      -4.629   0.170 -30.588  1.00  0.00     0.050 C 
HETATM   36  C   UNL     1      -6.871   1.296 -30.660  1.00  0.00     0.011 A 
HETATM   37  C   UNL     1      -8.029   1.702 -31.329  1.00  0.00     0.031 A 
ENDBRANCH   1  30
BRANCH   6  38
HETATM   38  N   UNL     1     -10.452  -0.404 -32.787  1.00  0.00    -0.384 N 
HETATM   39  H   UNL     1     -10.008  -1.163 -33.284  1.00  0.00     0.157 HD
HETATM   40  H   UNL     1     -10.801  -0.588 -31.854  1.00  0.00     0.157 HD
ENDBRANCH   6  38
TORSDOF 10
ENDMDL
MODEL 2
REMARK VINA RESULT:      -7.9      4.549      7.035
REMARK  10 active torsions:
REMARK  status: ('A' for Active; 'I' for Inactive)
REMARK    1  A    between atoms: C_6  and  N_7 
REMARK    2  A    between atoms: C_8  and  S_9 
REMARK    3  A    between atoms: S_9  and  C_10 
REMARK    4  A    between atoms: C_10  and  C_11 
REMARK       I    between atoms: C_11  and  N_12 
REMARK    5  A    between atoms: N_12  and  C_13 
REMARK    6  A    between atoms: C_13  and  C_14 
REMARK    7  A    between atoms: C_14  and  C_15 
REMARK    8  A    between atoms: C_17  and  O_18 
REMARK    9  A    between atoms: C_20  and  O_21 
REMARK   10  A    between atoms: C_29  and  N_30 
ROOT
HETATM    1  N   UNL     1      -4.794   4.246 -31.792  1.00  0.00    -0.276 N 
HETATM    2  C   UNL     1      -4.558   5.374 -32.627  1.00  0.00     0.177 A 
HETATM    3  N   UNL     1      -4.585   6.628 -32.239  1.00  0.00    -0.204 NA
HETATM    4  C   UNL     1      -4.838   6.793 -30.923  1.00  0.00     0.162 A 
HETATM    5  C   UNL     1      -5.088   5.853 -29.963  1.00  0.00     0.081 A 
HETATM    6  C   UNL     1      -5.101   4.485 -30.386  1.00  0.00     0.124 A 
HETATM    7  N   UNL     1      -4.877   7.991 -30.273  1.00  0.00    -0.260 N 
HETATM    8  H   UNL     1      -4.728   8.916 -30.662  1.00  0.00     0.191 HD
HETATM    9  N   UNL     1      -5.141   7.867 -28.954  1.00  0.00    -0.177 NA
HETATM   10  C   UNL     1      -5.265   6.545 -28.756  1.00  0.00     0.068 A 
HETATM   11  C   UNL     1      -5.548   6.037 -27.392  1.00  0.00     0.073 C 
ENDROOT
BRANCH   2  12
HETATM   12  S   UNL     1      -4.172   5.134 -34.347  1.00  0.00    -0.082 SA
BRANCH  12  13
HETATM   13  C   UNL     1      -2.359   5.103 -34.290  1.00  0.00     0.185 C 
BRANCH  13  14
HETATM   14  C   UNL     1      -1.794   6.376 -33.676  1.00  0.00     0.227 C 
HETATM   15  N   UNL     1      -1.245   6.194 -32.421  1.00  0.00    -0.360 N 
HETATM   16  H   UNL     1      -1.325   5.300 -31.956  1.00  0.00     0.162 HD
HETATM   17  O   UNL     1      -1.769   7.456 -34.261  1.00  0.00    -0.273 OA
BRANCH  15  18
HETATM   18  C   UNL     1      -0.529   7.253 -31.733  1.00  0.00     0.127 C 
BRANCH  18  19
HETATM   19  C   UNL     1       0.402   6.731 -30.637  1.00  0.00     0.058 C 
BRANCH  19  20
HETATM   20  C   UNL     1      -0.098   7.126 -29.267  1.00  0.00    -0.054 A 
HETATM   21  C   UNL     1       0.799   7.269 -28.198  1.00  0.00     0.046 A 
HETATM   22  C   UNL     1       0.341   7.588 -26.914  1.00  0.00     0.102 A 
HETATM   23  C   UNL     1      -1.039   7.767 -26.691  1.00  0.00     0.101 A 
HETATM   24  C   UNL     1      -1.931   7.629 -27.758  1.00  0.00     0.040 A 
HETATM   25  C   UNL     1      -1.465   7.309 -29.036  1.00  0.00     0.010 A 
BRANCH  22  26
HETATM   26  O   UNL     1       1.152   7.736 -25.814  1.00  0.00    -0.353 OA
HETATM   27  C   UNL     1       2.271   8.602 -25.932  1.00  0.00     0.210 C 
ENDBRANCH  22  26
BRANCH  23  28
HETATM   28  O   UNL     1      -1.409   8.071 -25.403  1.00  0.00    -0.353 OA
HETATM   29  C   UNL     1      -2.771   7.888 -25.047  1.00  0.00     0.210 C 
ENDBRANCH  23  28
ENDBRANCH  19  20
ENDBRANCH  18  19
ENDBRANCH  15  18
ENDBRANCH  13  14
ENDBRANCH  12  13
ENDBRANCH   2  12
BRANCH   1  30
HETATM   30  C   UNL     1      -4.713   2.910 -32.285  1.00  0.00     0.045 A 
HETATM   31  C   UNL     1      -5.807   2.302 -32.911  1.00  0.00     0.054 A 
HETATM   32  C   UNL     1      -5.744   0.961 -33.306  1.00  0.00     0.042 A 
HETATM   33  C   UNL     1      -4.592   0.196 -33.069  1.00  0.00    -0.040 A 
HETATM   34 CL   UNL     1      -7.137   0.283 -34.071  1.00  0.00    -0.084 Cl
HETATM   35  C   UNL     1      -4.497  -1.249 -33.477  1.00  0.00     0.050 C 
HETATM   36  C   UNL     1      -3.496   0.809 -32.446  1.00  0.00     0.011 A 
HETATM   37  C   UNL     1      -3.557   2.150 -32.057  1.00  0.00     0.031 A 
ENDBRANCH   1  30
BRANCH   6  38
HETATM   38  N   UNL     1      -5.412   3.517 -29.544  1.00  0.00    -0.384 N 
HETATM   39  H   UNL     1      -6.333   3.436 -29.139  1.00  0.00     0.157 HD
HETATM   40  H   UNL     1      -4.727   2.808 -29.311  1.00  0.00     0.157 HD
ENDBRANCH   6  38
TORSDOF 10
ENDMDL
MODEL 3
REMARK VINA RESULT:      -7.7      4.432      9.756
REMARK  10 active torsions:
REMARK  status: ('A' for Active; 'I' for Inactive)
REMARK    1  A    between atoms: C_6  and  N_7 
REMARK    2  A    between atoms: C_8  and  S_9 
REMARK    3  A    between atoms: S_9  and  C_10 
REMARK    4  A    between atoms: C_10  and  C_11 
REMARK       I    between atoms: C_11  and  N_12 
REMARK    5  A    between atoms: N_12  and  C_13 
REMARK    6  A    between atoms: C_13  and  C_14 
REMARK    7  A    between atoms: C_14  and  C_15 
REMARK    8  A    between atoms: C_17  and  O_18 
REMARK    9  A    between atoms: C_20  and  O_21 
REMARK   10  A    between atoms: C_29  and  N_30 
ROOT
HETATM    1  N   UNL     1      -1.840   7.130 -29.559  1.00  0.00    -0.276 N 
HETATM    2  C   UNL     1      -3.032   7.499 -28.874  1.00  0.00     0.177 A 
HETATM    3  N   UNL     1      -3.092   7.962 -27.647  1.00  0.00    -0.204 NA
HETATM    4  C   UNL     1      -1.890   8.101 -27.049  1.00  0.00     0.162 A 
HETATM    5  C   UNL     1      -0.644   7.808 -27.529  1.00  0.00     0.081 A 
HETATM    6  C   UNL     1      -0.572   7.264 -28.851  1.00  0.00     0.124 A 
HETATM    7  N   UNL     1      -1.685   8.599 -25.797  1.00  0.00    -0.260 N 
HETATM    8  H   UNL     1      -2.381   8.933 -25.138  1.00  0.00     0.191 HD
HETATM    9  N   UNL     1      -0.380   8.637 -25.450  1.00  0.00    -0.177 NA
HETATM   10  C   UNL     1       0.269   8.155 -26.522  1.00  0.00     0.068 A 
HETATM   11  C   UNL     1       1.748   8.066 -26.497  1.00  0.00     0.073 C 
ENDROOT
BRANCH   2  12
HETATM   12  S   UNL     1      -4.603   7.361 -29.697  1.00  0.00    -0.082 SA
BRANCH  12  13
HETATM   13  C   UNL     1      -5.295   5.901 -28.872  1.00  0.00     0.185 C 
BRANCH  13  14
HETATM   14  C   UNL     1      -5.658   4.811 -29.870  1.00  0.00     0.227 C 
HETATM   15  N   UNL     1      -5.451   3.529 -29.396  1.00  0.00    -0.360 N 
HETATM   16  H   UNL     1      -5.005   3.385 -28.499  1.00  0.00     0.162 HD
HETATM   17  O   UNL     1      -6.148   5.039 -30.973  1.00  0.00    -0.273 OA
BRANCH  15  18
HETATM   18  C   UNL     1      -5.870   2.356 -30.140  1.00  0.00     0.127 C 
BRANCH  18  19
HETATM   19  C   UNL     1      -4.698   1.472 -30.572  1.00  0.00     0.058 C 
BRANCH  19  20
HETATM   20  C   UNL     1      -5.105   0.539 -31.688  1.00  0.00    -0.054 A 
HETATM   21  C   UNL     1      -6.457   0.402 -32.039  1.00  0.00     0.046 A 
HETATM   22  C   UNL     1      -6.852  -0.496 -33.039  1.00  0.00     0.102 A 
HETATM   23  C   UNL     1      -5.880  -1.273 -33.701  1.00  0.00     0.101 A 
HETATM   24  C   UNL     1      -4.533  -1.132 -33.352  1.00  0.00     0.040 A 
HETATM   25  C   UNL     1      -4.150  -0.235 -32.352  1.00  0.00     0.010 A 
BRANCH  22  26
HETATM   26  O   UNL     1      -8.153  -0.695 -33.434  1.00  0.00    -0.353 OA
HETATM   27  C   UNL     1      -9.021   0.429 -33.438  1.00  0.00     0.210 C 
ENDBRANCH  22  26
BRANCH  23  28
HETATM   28  O   UNL     1      -6.348  -2.134 -34.663  1.00  0.00    -0.353 OA
HETATM   29  C   UNL     1      -5.493  -3.190 -35.076  1.00  0.00     0.210 C 
ENDBRANCH  23  28
ENDBRANCH  19  20
ENDBRANCH  18  19
ENDBRANCH  15  18
ENDBRANCH  13  14
ENDBRANCH  12  13
ENDBRANCH   2  12
BRANCH   1  30
HETATM   30  C   UNL     1      -1.857   6.664 -30.907  1.00  0.00     0.045 A 
HETATM   31  C   UNL     1      -2.280   5.367 -31.221  1.00  0.00     0.054 A 
HETATM   32  C   UNL     1      -2.203   4.894 -32.536  1.00  0.00     0.042 A 
HETATM   33  C   UNL     1      -1.686   5.700 -33.561  1.00  0.00    -0.040 A 
HETATM   34 CL   UNL     1      -2.744   3.282 -32.841  1.00  0.00    -0.084 Cl
HETATM   35  C   UNL     1      -1.586   5.216 -34.981  1.00  0.00     0.050 C 
HETATM   36  C   UNL     1      -1.267   7.000 -33.244  1.00  0.00     0.011 A 
HETATM   37  C   UNL     1      -1.350   7.476 -31.933  1.00  0.00     0.031 A 
ENDBRANCH   1  30
BRANCH   6  38
HETATM   38  N   UNL     1       0.581   6.878 -29.365  1.00  0.00    -0.384 N 
HETATM   39  H   UNL     1       1.233   6.306 -28.847  1.00  0.00     0.157 HD
HETATM   40  H   UNL     1       0.822   7.127 -30.317  1.00  0.00     0.157 HD
ENDBRANCH   6  38
TORSDOF 10
ENDMDL
MODEL 4
REMARK VINA RESULT:      -7.7      3.442      7.232
REMARK  10 active torsions:
REMARK  status: ('A' for Active; 'I' for Inactive)
REMARK    1  A    between atoms: C_6  and  N_7 
REMARK    2  A    between atoms: C_8  and  S_9 
REMARK    3  A    between atoms: S_9  and  C_10 
REMARK    4  A    between atoms: C_10  and  C_11 
REMARK       I    between atoms: C_11  and  N_12 
REMARK    5  A    between atoms: N_12  and  C_13 
REMARK    6  A    between atoms: C_13  and  C_14 
REMARK    7  A    between atoms: C_14  and  C_15 
REMARK    8  A    between atoms: C_17  and  O_18 
REMARK    9  A    between atoms: C_20  and  O_21 
REMARK   10  A    between atoms: C_29  and  N_30 
ROOT
HETATM    1  N   UNL     1      -5.371   4.123 -31.424  1.00  0.00    -0.276 N 
HETATM    2  C   UNL     1      -5.403   2.709 -31.270  1.00  0.00     0.177 A 
HETATM    3  N   UNL     1      -6.448   2.008 -30.896  1.00  0.00    -0.204 NA
HETATM    4  C   UNL     1      -7.559   2.744 -30.681  1.00  0.00     0.162 A 
HETATM    5  C   UNL     1      -7.734   4.096 -30.773  1.00  0.00     0.081 A 
HETATM    6  C   UNL     1      -6.589   4.873 -31.140  1.00  0.00     0.124 A 
HETATM    7  N   UNL     1      -8.778   2.246 -30.328  1.00  0.00    -0.260 N 
HETATM    8  H   UNL     1      -9.035   1.276 -30.176  1.00  0.00     0.191 HD
HETATM    9  N   UNL     1      -9.720   3.204 -30.187  1.00  0.00    -0.177 NA
HETATM   10  C   UNL     1      -9.080   4.351 -30.468  1.00  0.00     0.068 A 
HETATM   11  C   UNL     1      -9.827   5.630 -30.425  1.00  0.00     0.073 C 
ENDROOT
BRANCH   2  12
HETATM   12  S   UNL     1      -3.944   1.749 -31.612  1.00  0.00    -0.082 SA
BRANCH  12  13
HETATM   13  C   UNL     1      -4.463   0.116 -31.017  1.00  0.00     0.185 C 
BRANCH  13  14
HETATM   14  C   UNL     1      -4.813  -0.816 -32.168  1.00  0.00     0.227 C 
HETATM   15  N   UNL     1      -6.154  -0.807 -32.505  1.00  0.00    -0.360 N 
HETATM   16  H   UNL     1      -6.815  -0.286 -31.944  1.00  0.00     0.162 HD
HETATM   17  O   UNL     1      -3.979  -1.473 -32.785  1.00  0.00    -0.273 OA
BRANCH  15  18
HETATM   18  C   UNL     1      -6.661  -1.516 -33.665  1.00  0.00     0.127 C 
BRANCH  18  19
HETATM   19  C   UNL     1      -6.805  -0.621 -34.898  1.00  0.00     0.058 C 
BRANCH  19  20
HETATM   20  C   UNL     1      -7.550   0.649 -34.561  1.00  0.00    -0.054 A 
HETATM   21  C   UNL     1      -8.934   0.618 -34.330  1.00  0.00     0.046 A 
HETATM   22  C   UNL     1      -9.644   1.796 -34.064  1.00  0.00     0.102 A 
HETATM   23  C   UNL     1      -8.961   3.028 -34.028  1.00  0.00     0.101 A 
HETATM   24  C   UNL     1      -7.581   3.056 -34.254  1.00  0.00     0.040 A 
HETATM   25  C   UNL     1      -6.882   1.875 -34.520  1.00  0.00     0.010 A 
BRANCH  22  26
HETATM   26  O   UNL     1     -10.998   1.852 -33.837  1.00  0.00    -0.353 OA
HETATM   27  C   UNL     1     -11.861   1.683 -34.951  1.00  0.00     0.210 C 
ENDBRANCH  22  26
BRANCH  23  28
HETATM   28  O   UNL     1      -9.728   4.137 -33.769  1.00  0.00    -0.353 OA
HETATM   29  C   UNL     1      -9.232   5.398 -34.195  1.00  0.00     0.210 C 
ENDBRANCH  23  28
ENDBRANCH  19  20
ENDBRANCH  18  19
ENDBRANCH  15  18
ENDBRANCH  13  14
ENDBRANCH  12  13
ENDBRANCH   2  12
BRANCH   1  30
HETATM   30  C   UNL     1      -4.200   4.809 -31.866  1.00  0.00     0.045 A 
HETATM   31  C   UNL     1      -3.286   5.345 -30.952  1.00  0.00     0.054 A 
HETATM   32  C   UNL     1      -2.192   6.094 -31.399  1.00  0.00     0.042 A 
HETATM   33  C   UNL     1      -1.999   6.338 -32.768  1.00  0.00    -0.040 A 
HETATM   34 CL   UNL     1      -1.109   6.722 -30.209  1.00  0.00    -0.084 Cl
HETATM   35  C   UNL     1      -0.836   7.144 -33.277  1.00  0.00     0.050 C 
HETATM   36  C   UNL     1      -2.914   5.796 -33.681  1.00  0.00     0.011 A 
HETATM   37  C   UNL     1      -4.004   5.042 -33.235  1.00  0.00     0.031 A 
ENDBRANCH   1  30
BRANCH   6  38
HETATM   38  N   UNL     1      -6.646   6.191 -31.176  1.00  0.00    -0.384 N 
HETATM   39  H   UNL     1      -6.903   6.693 -32.013  1.00  0.00     0.157 HD
HETATM   40  H   UNL     1      -6.459   6.730 -30.338  1.00  0.00     0.157 HD
ENDBRANCH   6  38
TORSDOF 10
ENDMDL
MODEL 5
REMARK VINA RESULT:      -7.7      3.447      7.979
REMARK  10 active torsions:
REMARK  status: ('A' for Active; 'I' for Inactive)
REMARK    1  A    between atoms: C_6  and  N_7 
REMARK    2  A    between atoms: C_8  and  S_9 
REMARK    3  A    between atoms: S_9  and  C_10 
REMARK    4  A    between atoms: C_10  and  C_11 
REMARK       I    between atoms: C_11  and  N_12 
REMARK    5  A    between atoms: N_12  and  C_13 
REMARK    6  A    between atoms: C_13  and  C_14 
REMARK    7  A    between atoms: C_14  and  C_15 
REMARK    8  A    between atoms: C_17  and  O_18 
REMARK    9  A    between atoms: C_20  and  O_21 
REMARK   10  A    between atoms: C_29  and  N_30 
ROOT
HETATM    1  N   UNL     1      -4.784   3.074 -31.746  1.00  0.00    -0.276 N 
HETATM    2  C   UNL     1      -5.648   3.635 -30.764  1.00  0.00     0.177 A 
HETATM    3  N   UNL     1      -5.461   4.779 -30.149  1.00  0.00    -0.204 NA
HETATM    4  C   UNL     1      -4.353   5.443 -30.542  1.00  0.00     0.162 A 
HETATM    5  C   UNL     1      -3.405   5.081 -31.459  1.00  0.00     0.081 A 
HETATM    6  C   UNL     1      -3.580   3.816 -32.105  1.00  0.00     0.124 A 
HETATM    7  N   UNL     1      -3.963   6.667 -30.085  1.00  0.00    -0.260 N 
HETATM    8  H   UNL     1      -4.429   7.253 -29.399  1.00  0.00     0.191 HD
HETATM    9  N   UNL     1      -2.820   7.104 -30.655  1.00  0.00    -0.177 NA
HETATM   10  C   UNL     1      -2.474   6.130 -31.512  1.00  0.00     0.068 A 
HETATM   11  C   UNL     1      -1.252   6.285 -32.335  1.00  0.00     0.073 C 
ENDROOT
BRANCH   2  12
HETATM   12  S   UNL     1      -7.133   2.772 -30.298  1.00  0.00    -0.082 SA
BRANCH  12  13
HETATM   13  C   UNL     1      -8.159   4.149 -29.713  1.00  0.00     0.185 C 
BRANCH  13  14
HETATM   14  C   UNL     1      -9.118   4.633 -30.790  1.00  0.00     0.227 C 
HETATM   15  N   UNL     1      -8.499   5.303 -31.829  1.00  0.00    -0.360 N 
HETATM   16  H   UNL     1      -7.510   5.512 -31.781  1.00  0.00     0.162 HD
HETATM   17  O   UNL     1     -10.324   4.402 -30.777  1.00  0.00    -0.273 OA
BRANCH  15  18
HETATM   18  C   UNL     1      -9.221   5.714 -33.019  1.00  0.00     0.127 C 
BRANCH  18  19
HETATM   19  C   UNL     1      -8.945   4.816 -34.227  1.00  0.00     0.058 C 
BRANCH  19  20
HETATM   20  C   UNL     1     -10.079   3.844 -34.449  1.00  0.00    -0.054 A 
HETATM   21  C   UNL     1     -10.088   2.603 -33.794  1.00  0.00     0.046 A 
HETATM   22  C   UNL     1     -11.110   1.674 -34.029  1.00  0.00     0.102 A 
HETATM   23  C   UNL     1     -12.142   1.989 -34.937  1.00  0.00     0.101 A 
HETATM   24  C   UNL     1     -12.133   3.227 -35.585  1.00  0.00     0.040 A 
HETATM   25  C   UNL     1     -11.108   4.146 -35.345  1.00  0.00     0.010 A 
BRANCH  22  26
HETATM   26  O   UNL     1     -11.187   0.437 -33.436  1.00  0.00    -0.353 OA
HETATM   27  C   UNL     1     -10.021  -0.061 -32.797  1.00  0.00     0.210 C 
ENDBRANCH  22  26
BRANCH  23  28
HETATM   28  O   UNL     1     -13.102   1.023 -35.118  1.00  0.00    -0.353 OA
HETATM   29  C   UNL     1     -14.321   1.161 -34.403  1.00  0.00     0.210 C 
ENDBRANCH  23  28
ENDBRANCH  19  20
ENDBRANCH  18  19
ENDBRANCH  15  18
ENDBRANCH  13  14
ENDBRANCH  12  13
ENDBRANCH   2  12
BRANCH   1  30
HETATM   30  C   UNL     1      -5.076   1.837 -32.393  1.00  0.00     0.045 A 
HETATM   31  C   UNL     1      -5.962   1.777 -33.475  1.00  0.00     0.054 A 
HETATM   32  C   UNL     1      -6.310   0.545 -34.040  1.00  0.00     0.042 A 
HETATM   33  C   UNL     1      -5.795  -0.654 -33.523  1.00  0.00    -0.040 A 
HETATM   34 CL   UNL     1      -7.409   0.554 -35.373  1.00  0.00    -0.084 Cl
HETATM   35  C   UNL     1      -6.155  -1.993 -34.105  1.00  0.00     0.050 C 
HETATM   36  C   UNL     1      -4.905  -0.589 -32.442  1.00  0.00     0.011 A 
HETATM   37  C   UNL     1      -4.551   0.641 -31.882  1.00  0.00     0.031 A 
ENDBRANCH   1  30
BRANCH   6  38
HETATM   38  N   UNL     1      -2.673   3.351 -32.944  1.00  0.00    -0.384 N 
HETATM   39  H   UNL     1      -2.910   2.705 -33.682  1.00  0.00     0.157 HD
HETATM   40  H   UNL     1      -1.712   3.665 -32.878  1.00  0.00     0.157 HD
ENDBRANCH   6  38
TORSDOF 10
ENDMDL
MODEL 6
REMARK VINA RESULT:      -7.6      2.066      2.990
REMARK  10 active torsions:
REMARK  status: ('A' for Active; 'I' for Inactive)
REMARK    1  A    between atoms: C_6  and  N_7 
REMARK    2  A    between atoms: C_8  and  S_9 
REMARK    3  A    between atoms: S_9  and  C_10 
REMARK    4  A    between atoms: C_10  and  C_11 
REMARK       I    between atoms: C_11  and  N_12 
REMARK    5  A    between atoms: N_12  and  C_13 
REMARK    6  A    between atoms: C_13  and  C_14 
REMARK    7  A    between atoms: C_14  and  C_15 
REMARK    8  A    between atoms: C_17  and  O_18 
REMARK    9  A    between atoms: C_20  and  O_21 
REMARK   10  A    between atoms: C_29  and  N_30 
ROOT
HETATM    1  N   UNL     1      -8.645   1.567 -33.345  1.00  0.00    -0.276 N 
HETATM    2  C   UNL     1      -8.631   2.901 -33.841  1.00  0.00     0.177 A 
HETATM    3  N   UNL     1      -9.674   3.556 -34.295  1.00  0.00    -0.204 NA
HETATM    4  C   UNL     1     -10.830   2.861 -34.237  1.00  0.00     0.162 A 
HETATM    5  C   UNL     1     -11.054   1.585 -33.801  1.00  0.00     0.081 A 
HETATM    6  C   UNL     1      -9.915   0.850 -33.343  1.00  0.00     0.124 A 
HETATM    7  N   UNL     1     -12.053   3.335 -34.608  1.00  0.00    -0.260 N 
HETATM    8  H   UNL     1     -12.281   4.254 -34.975  1.00  0.00     0.191 HD
HETATM    9  N   UNL     1     -13.044   2.433 -34.437  1.00  0.00    -0.177 NA
HETATM   10  C   UNL     1     -12.431   1.350 -33.931  1.00  0.00     0.068 A 
HETATM   11  C   UNL     1     -13.233   0.149 -33.600  1.00  0.00     0.073 C 
ENDROOT
BRANCH   2  12
HETATM   12  S   UNL     1      -7.107   3.821 -33.858  1.00  0.00    -0.082 SA
BRANCH  12  13
HETATM   13  C   UNL     1      -7.063   4.441 -32.154  1.00  0.00     0.185 C 
BRANCH  13  14
HETATM   14  C   UNL     1      -5.725   4.157 -31.487  1.00  0.00     0.227 C 
HETATM   15  N   UNL     1      -4.785   3.604 -32.336  1.00  0.00    -0.360 N 
HETATM   16  H   UNL     1      -5.043   3.340 -33.278  1.00  0.00     0.162 HD
HETATM   17  O   UNL     1      -5.476   4.445 -30.320  1.00  0.00    -0.273 OA
BRANCH  15  18
HETATM   18  C   UNL     1      -3.408   3.394 -31.928  1.00  0.00     0.127 C 
BRANCH  18  19
HETATM   19  C   UNL     1      -2.421   4.305 -32.663  1.00  0.00     0.058 C 
BRANCH  19  20
HETATM   20  C   UNL     1      -1.682   5.197 -31.694  1.00  0.00    -0.054 A 
HETATM   21  C   UNL     1      -2.389   6.077 -30.860  1.00  0.00     0.046 A 
HETATM   22  C   UNL     1      -1.713   6.943 -29.992  1.00  0.00     0.102 A 
HETATM   23  C   UNL     1      -0.304   6.932 -29.956  1.00  0.00     0.101 A 
HETATM   24  C   UNL     1       0.399   6.052 -30.784  1.00  0.00     0.040 A 
HETATM   25  C   UNL     1      -0.286   5.193 -31.648  1.00  0.00     0.010 A 
BRANCH  22  26
HETATM   26  O   UNL     1      -2.330   7.838 -29.152  1.00  0.00    -0.353 OA
HETATM   27  C   UNL     1      -3.017   7.319 -28.023  1.00  0.00     0.210 C 
ENDBRANCH  22  26
BRANCH  23  28
HETATM   28  O   UNL     1       0.284   7.816 -29.084  1.00  0.00    -0.353 OA
HETATM   29  C   UNL     1       0.882   7.286 -27.909  1.00  0.00     0.210 C 
ENDBRANCH  23  28
ENDBRANCH  19  20
ENDBRANCH  18  19
ENDBRANCH  15  18
ENDBRANCH  13  14
ENDBRANCH  12  13
ENDBRANCH   2  12
BRANCH   1  30
HETATM   30  C   UNL     1      -7.470   0.936 -32.838  1.00  0.00     0.045 A 
HETATM   31  C   UNL     1      -7.182   0.937 -31.469  1.00  0.00     0.054 A 
HETATM   32  C   UNL     1      -5.981   0.396 -30.996  1.00  0.00     0.042 A 
HETATM   33  C   UNL     1      -5.036  -0.141 -31.884  1.00  0.00    -0.040 A 
HETATM   34 CL   UNL     1      -5.698   0.435 -29.292  1.00  0.00    -0.084 Cl
HETATM   35  C   UNL     1      -3.735  -0.724 -31.406  1.00  0.00     0.050 C 
HETATM   36  C   UNL     1      -5.331  -0.144 -33.255  1.00  0.00     0.011 A 
HETATM   37  C   UNL     1      -6.533   0.390 -33.727  1.00  0.00     0.031 A 
ENDBRANCH   1  30
BRANCH   6  38
HETATM   38  N   UNL     1     -10.025  -0.415 -32.978  1.00  0.00    -0.384 N 
HETATM   39  H   UNL     1     -10.040  -0.692 -32.008  1.00  0.00     0.157 HD
HETATM   40  H   UNL     1     -10.128  -1.138 -33.681  1.00  0.00     0.157 HD
ENDBRANCH   6  38
TORSDOF 10
ENDMDL
MODEL 7
REMARK VINA RESULT:      -7.6      3.186      5.619
REMARK  10 active torsions:
REMARK  status: ('A' for Active; 'I' for Inactive)
REMARK    1  A    between atoms: C_6  and  N_7 
REMARK    2  A    between atoms: C_8  and  S_9 
REMARK    3  A    between atoms: S_9  and  C_10 
REMARK    4  A    between atoms: C_10  and  C_11 
REMARK       I    between atoms: C_11  and  N_12 
REMARK    5  A    between atoms: N_12  and  C_13 
REMARK    6  A    between atoms: C_13  and  C_14 
REMARK    7  A    between atoms: C_14  and  C_15 
REMARK    8  A    between atoms: C_17  and  O_18 
REMARK    9  A    between atoms: C_20  and  O_21 
REMARK   10  A    between atoms: C_29  and  N_30 
ROOT
HETATM    1  N   UNL     1      -7.634   0.470 -32.880  1.00  0.00    -0.276 N 
HETATM    2  C   UNL     1      -7.004   0.986 -31.713  1.00  0.00     0.177 A 
HETATM    3  N   UNL     1      -5.855   0.581 -31.226  1.00  0.00    -0.204 NA
HETATM    4  C   UNL     1      -5.259  -0.390 -31.951  1.00  0.00     0.162 A 
HETATM    5  C   UNL     1      -5.693  -1.013 -33.088  1.00  0.00     0.081 A 
HETATM    6  C   UNL     1      -6.965  -0.605 -33.603  1.00  0.00     0.124 A 
HETATM    7  N   UNL     1      -4.045  -0.946 -31.676  1.00  0.00    -0.260 N 
HETATM    8  H   UNL     1      -3.418  -0.726 -30.909  1.00  0.00     0.191 HD
HETATM    9  N   UNL     1      -3.681  -1.889 -32.572  1.00  0.00    -0.177 NA
HETATM   10  C   UNL     1      -4.695  -1.929 -33.452  1.00  0.00     0.068 A 
HETATM   11  C   UNL     1      -4.625  -2.863 -34.600  1.00  0.00     0.073 C 
ENDROOT
BRANCH   2  12
HETATM   12  S   UNL     1      -7.778   2.304 -30.800  1.00  0.00    -0.082 SA
BRANCH  12  13
HETATM   13  C   UNL     1      -6.880   3.741 -31.448  1.00  0.00     0.185 C 
BRANCH  13  14
HETATM   14  C   UNL     1      -5.405   3.695 -31.081  1.00  0.00     0.227 C 
HETATM   15  N   UNL     1      -4.579   3.342 -32.132  1.00  0.00    -0.360 N 
HETATM   16  H   UNL     1      -4.977   3.055 -33.017  1.00  0.00     0.162 HD
HETATM   17  O   UNL     1      -4.973   4.000 -29.973  1.00  0.00    -0.273 OA
BRANCH  15  18
HETATM   18  C   UNL     1      -3.132   3.382 -32.021  1.00  0.00     0.127 C 
BRANCH  18  19
HETATM   19  C   UNL     1      -2.516   4.621 -32.675  1.00  0.00     0.058 C 
BRANCH  19  20
HETATM   20  C   UNL     1      -1.693   5.405 -31.680  1.00  0.00    -0.054 A 
HETATM   21  C   UNL     1      -2.321   6.220 -30.726  1.00  0.00     0.046 A 
HETATM   22  C   UNL     1      -1.567   6.988 -29.829  1.00  0.00     0.102 A 
HETATM   23  C   UNL     1      -0.159   6.943 -29.887  1.00  0.00     0.101 A 
HETATM   24  C   UNL     1       0.465   6.128 -30.836  1.00  0.00     0.040 A 
HETATM   25  C   UNL     1      -0.296   5.366 -31.727  1.00  0.00     0.010 A 
BRANCH  22  26
HETATM   26  O   UNL     1      -2.104   7.816 -28.874  1.00  0.00    -0.353 OA
HETATM   27  C   UNL     1      -3.194   8.641 -29.254  1.00  0.00     0.210 C 
ENDBRANCH  22  26
BRANCH  23  28
HETATM   28  O   UNL     1       0.508   7.731 -28.980  1.00  0.00    -0.353 OA
HETATM   29  C   UNL     1       0.924   7.128 -27.763  1.00  0.00     0.210 C 
ENDBRANCH  23  28
ENDBRANCH  19  20
ENDBRANCH  18  19
ENDBRANCH  15  18
ENDBRANCH  13  14
ENDBRANCH  12  13
ENDBRANCH   2  12
BRANCH   1  30
HETATM   30  C   UNL     1      -8.872   0.989 -33.363  1.00  0.00     0.045 A 
HETATM   31  C   UNL     1     -10.076   0.308 -33.150  1.00  0.00     0.054 A 
HETATM   32  C   UNL     1     -11.268   0.782 -33.709  1.00  0.00     0.042 A 
HETATM   33  C   UNL     1     -11.279   1.936 -34.507  1.00  0.00    -0.040 A 
HETATM   34 CL   UNL     1     -12.712  -0.117 -33.401  1.00  0.00    -0.084 Cl
HETATM   35  C   UNL     1     -12.544   2.465 -35.125  1.00  0.00     0.050 C 
HETATM   36  C   UNL     1     -10.072   2.619 -34.714  1.00  0.00     0.011 A 
HETATM   37  C   UNL     1      -8.882   2.150 -34.150  1.00  0.00     0.031 A 
ENDBRANCH   1  30
BRANCH   6  38
HETATM   38  N   UNL     1      -7.498  -1.207 -34.650  1.00  0.00    -0.384 N 
HETATM   39  H   UNL     1      -8.433  -0.997 -34.969  1.00  0.00     0.157 HD
HETATM   40  H   UNL     1      -6.955  -1.880 -35.179  1.00  0.00     0.157 HD
ENDBRANCH   6  38
TORSDOF 10
ENDMDL
MODEL 8
REMARK VINA RESULT:      -7.6      3.498      5.755
REMARK  10 active torsions:
REMARK  status: ('A' for Active; 'I' for Inactive)
REMARK    1  A    between atoms: C_6  and  N_7 
REMARK    2  A    between atoms: C_8  and  S_9 
REMARK    3  A    between atoms: S_9  and  C_10 
REMARK    4  A    between atoms: C_10  and  C_11 
REMARK       I    between atoms: C_11  and  N_12 
REMARK    5  A    between atoms: N_12  and  C_13 
REMARK    6  A    between atoms: C_13  and  C_14 
REMARK    7  A    between atoms: C_14  and  C_15 
REMARK    8  A    between atoms: C_17  and  O_18 
REMARK    9  A    between atoms: C_20  and  O_21 
REMARK   10  A    between atoms: C_29  and  N_30 
ROOT
HETATM    1  N   UNL     1      -6.716   1.000 -32.632  1.00  0.00    -0.276 N 
HETATM    2  C   UNL     1      -5.368   1.244 -32.248  1.00  0.00     0.177 A 
HETATM    3  N   UNL     1      -4.357   0.435 -32.461  1.00  0.00    -0.204 NA
HETATM    4  C   UNL     1      -4.684  -0.694 -33.126  1.00  0.00     0.162 A 
HETATM    5  C   UNL     1      -5.904  -1.111 -33.578  1.00  0.00     0.081 A 
HETATM    6  C   UNL     1      -7.019  -0.254 -33.314  1.00  0.00     0.124 A 
HETATM    7  N   UNL     1      -3.808  -1.668 -33.503  1.00  0.00    -0.260 N 
HETATM    8  H   UNL     1      -2.805  -1.699 -33.347  1.00  0.00     0.191 HD
HETATM    9  N   UNL     1      -4.401  -2.685 -34.166  1.00  0.00    -0.177 NA
HETATM   10  C   UNL     1      -5.698  -2.341 -34.221  1.00  0.00     0.068 A 
HETATM   11  C   UNL     1      -6.659  -3.238 -34.905  1.00  0.00     0.073 C 
ENDROOT
BRANCH   2  12
HETATM   12  S   UNL     1      -4.946   2.763 -31.421  1.00  0.00    -0.082 SA
BRANCH  12  13
HETATM   13  C   UNL     1      -4.549   3.824 -32.837  1.00  0.00     0.185 C 
BRANCH  13  14
HETATM   14  C   UNL     1      -3.062   4.139 -32.905  1.00  0.00     0.227 C 
HETATM   15  N   UNL     1      -2.723   5.018 -33.917  1.00  0.00    -0.360 N 
HETATM   16  H   UNL     1      -3.421   5.317 -34.585  1.00  0.00     0.162 HD
HETATM   17  O   UNL     1      -2.241   3.705 -32.102  1.00  0.00    -0.273 OA
BRANCH  15  18
HETATM   18  C   UNL     1      -1.380   5.552 -34.055  1.00  0.00     0.127 C 
BRANCH  18  19
HETATM   19  C   UNL     1      -1.278   7.025 -33.653  1.00  0.00     0.058 C 
BRANCH  19  20
HETATM   20  C   UNL     1      -1.002   7.164 -32.174  1.00  0.00    -0.054 A 
HETATM   21  C   UNL     1      -1.827   7.968 -31.372  1.00  0.00     0.046 A 
HETATM   22  C   UNL     1      -1.554   8.143 -30.010  1.00  0.00     0.102 A 
HETATM   23  C   UNL     1      -0.434   7.506 -29.437  1.00  0.00     0.101 A 
HETATM   24  C   UNL     1       0.384   6.703 -30.237  1.00  0.00     0.040 A 
HETATM   25  C   UNL     1       0.103   6.536 -31.596  1.00  0.00     0.010 A 
BRANCH  22  26
HETATM   26  O   UNL     1      -2.305   8.919 -29.160  1.00  0.00    -0.353 OA
HETATM   27  C   UNL     1      -2.466  10.290 -29.488  1.00  0.00     0.210 C 
ENDBRANCH  22  26
BRANCH  23  28
HETATM   28  O   UNL     1      -0.229   7.734 -28.098  1.00  0.00    -0.353 OA
HETATM   29  C   UNL     1       1.112   7.832 -27.642  1.00  0.00     0.210 C 
ENDBRANCH  23  28
ENDBRANCH  19  20
ENDBRANCH  18  19
ENDBRANCH  15  18
ENDBRANCH  13  14
ENDBRANCH  12  13
ENDBRANCH   2  12
BRANCH   1  30
HETATM   30  C   UNL     1      -7.754   1.948 -32.392  1.00  0.00     0.045 A 
HETATM   31  C   UNL     1      -8.073   2.930 -33.337  1.00  0.00     0.054 A 
HETATM   32  C   UNL     1      -9.029   3.910 -33.049  1.00  0.00     0.042 A 
HETATM   33  C   UNL     1      -9.675   3.939 -31.804  1.00  0.00    -0.040 A 
HETATM   34 CL   UNL     1      -9.365   5.087 -34.268  1.00  0.00    -0.084 Cl
HETATM   35  C   UNL     1     -10.703   4.983 -31.464  1.00  0.00     0.050 C 
HETATM   36  C   UNL     1      -9.357   2.952 -30.861  1.00  0.00     0.011 A 
HETATM   37  C   UNL     1      -8.406   1.969 -31.150  1.00  0.00     0.031 A 
ENDBRANCH   1  30
BRANCH   6  38
HETATM   38  N   UNL     1      -8.246  -0.613 -33.642  1.00  0.00    -0.384 N 
HETATM   39  H   UNL     1      -8.448  -1.518 -34.044  1.00  0.00     0.157 HD
HETATM   40  H   UNL     1      -9.023   0.012 -33.466  1.00  0.00     0.157 HD
ENDBRANCH   6  38
TORSDOF 10
ENDMDL
MODEL 9
REMARK VINA RESULT:      -7.6      2.599      4.106
REMARK  10 active torsions:
REMARK  status: ('A' for Active; 'I' for Inactive)
REMARK    1  A    between atoms: C_6  and  N_7 
REMARK    2  A    between atoms: C_8  and  S_9 
REMARK    3  A    between atoms: S_9  and  C_10 
REMARK    4  A    between atoms: C_10  and  C_11 
REMARK       I    between atoms: C_11  and  N_12 
REMARK    5  A    between atoms: N_12  and  C_13 
REMARK    6  A    between atoms: C_13  and  C_14 
REMARK    7  A    between atoms: C_14  and  C_15 
REMARK    8  A    between atoms: C_17  and  O_18 
REMARK    9  A    between atoms: C_20  and  O_21 
REMARK   10  A    between atoms: C_29  and  N_30 
ROOT
HETATM    1  N   UNL     1      -7.145   1.358 -33.148  1.00  0.00    -0.276 N 
HETATM    2  C   UNL     1      -6.897   2.756 -33.230  1.00  0.00     0.177 A 
HETATM    3  N   UNL     1      -7.807   3.680 -33.433  1.00  0.00    -0.204 NA
HETATM    4  C   UNL     1      -9.065   3.203 -33.539  1.00  0.00     0.162 A 
HETATM    5  C   UNL     1      -9.510   1.911 -33.488  1.00  0.00     0.081 A 
HETATM    6  C   UNL     1      -8.519   0.893 -33.308  1.00  0.00     0.124 A 
HETATM    7  N   UNL     1     -10.185   3.962 -33.708  1.00  0.00    -0.260 N 
HETATM    8  H   UNL     1     -10.248   4.972 -33.781  1.00  0.00     0.191 HD
HETATM    9  N   UNL     1     -11.317   3.227 -33.772  1.00  0.00    -0.177 NA
HETATM   10  C   UNL     1     -10.905   1.957 -33.629  1.00  0.00     0.068 A 
HETATM   11  C   UNL     1     -11.904   0.863 -33.636  1.00  0.00     0.073 C 
ENDROOT
BRANCH   2  12
HETATM   12  S   UNL     1      -5.240   3.373 -33.034  1.00  0.00    -0.082 SA
BRANCH  12  13
HETATM   13  C   UNL     1      -5.277   4.812 -34.138  1.00  0.00     0.185 C 
BRANCH  13  14
HETATM   14  C   UNL     1      -3.875   5.282 -34.496  1.00  0.00     0.227 C 
HETATM   15  N   UNL     1      -2.981   5.223 -33.444  1.00  0.00    -0.360 N 
HETATM   16  H   UNL     1      -3.302   4.977 -32.517  1.00  0.00     0.162 HD
HETATM   17  O   UNL     1      -3.546   5.625 -35.629  1.00  0.00    -0.273 OA
BRANCH  15  18
HETATM   18  C   UNL     1      -1.565   5.491 -33.622  1.00  0.00     0.127 C 
BRANCH  18  19
HETATM   19  C   UNL     1      -1.196   6.954 -33.361  1.00  0.00     0.058 C 
BRANCH  19  20
HETATM   20  C   UNL     1      -0.889   7.183 -31.900  1.00  0.00    -0.054 A 
HETATM   21  C   UNL     1      -1.788   7.894 -31.090  1.00  0.00     0.046 A 
HETATM   22  C   UNL     1      -1.492   8.154 -29.746  1.00  0.00     0.102 A 
HETATM   23  C   UNL     1      -0.275   7.697 -29.200  1.00  0.00     0.101 A 
HETATM   24  C   UNL     1       0.617   6.985 -30.007  1.00  0.00     0.040 A 
HETATM   25  C   UNL     1       0.313   6.732 -31.348  1.00  0.00     0.010 A 
BRANCH  22  26
HETATM   26  O   UNL     1      -2.312   8.849 -28.890  1.00  0.00    -0.353 OA
HETATM   27  C   UNL     1      -3.529   8.234 -28.498  1.00  0.00     0.210 C 
ENDBRANCH  22  26
BRANCH  23  28
HETATM   28  O   UNL     1      -0.056   7.999 -27.878  1.00  0.00    -0.353 OA
HETATM   29  C   UNL     1       1.014   7.337 -27.218  1.00  0.00     0.210 C 
ENDBRANCH  23  28
ENDBRANCH  19  20
ENDBRANCH  18  19
ENDBRANCH  15  18
ENDBRANCH  13  14
ENDBRANCH  12  13
ENDBRANCH   2  12
BRANCH   1  30
HETATM   30  C   UNL     1      -6.102   0.419 -32.892  1.00  0.00     0.045 A 
HETATM   31  C   UNL     1      -5.730  -0.530 -33.852  1.00  0.00     0.054 A 
HETATM   32  C   UNL     1      -4.770  -1.503 -33.553  1.00  0.00     0.042 A 
HETATM   33  C   UNL     1      -4.175  -1.559 -32.283  1.00  0.00    -0.040 A 
HETATM   34 CL   UNL     1      -4.365  -2.638 -34.790  1.00  0.00    -0.084 Cl
HETATM   35  C   UNL     1      -3.145  -2.597 -31.931  1.00  0.00     0.050 C 
HETATM   36  C   UNL     1      -4.547  -0.605 -31.326  1.00  0.00     0.011 A 
HETATM   37  C   UNL     1      -5.501   0.371 -31.626  1.00  0.00     0.031 A 
ENDBRANCH   1  30
BRANCH   6  38
HETATM   38  N   UNL     1      -8.847  -0.385 -33.327  1.00  0.00    -0.384 N 
HETATM   39  H   UNL     1      -8.441  -1.032 -33.987  1.00  0.00     0.157 HD
HETATM   40  H   UNL     1      -9.502  -0.751 -32.645  1.00  0.00     0.157 HD
ENDBRANCH   6  38
TORSDOF 10
ENDMDL
MODEL 10
REMARK VINA RESULT:      -7.6      3.708      7.885
REMARK  10 active torsions:
REMARK  status: ('A' for Active; 'I' for Inactive)
REMARK    1  A    between atoms: C_6  and  N_7 
REMARK    2  A    between atoms: C_8  and  S_9 
REMARK    3  A    between atoms: S_9  and  C_10 
REMARK    4  A    between atoms: C_10  and  C_11 
REMARK       I    between atoms: C_11  and  N_12 
REMARK    5  A    between atoms: N_12  and  C_13 
REMARK    6  A    between atoms: C_13  and  C_14 
REMARK    7  A    between atoms: C_14  and  C_15 
REMARK    8  A    between atoms: C_17  and  O_18 
REMARK    9  A    between atoms: C_20  and  O_21 
REMARK   10  A    between atoms: C_29  and  N_30 
ROOT
HETATM    1  N   UNL     1      -5.704   5.757 -30.603  1.00  0.00    -0.276 N 
HETATM    2  C   UNL     1      -6.671   4.758 -30.301  1.00  0.00     0.177 A 
HETATM    3  N   UNL     1      -7.650   4.883 -29.436  1.00  0.00    -0.204 NA
HETATM    4  C   UNL     1      -7.705   6.090 -28.834  1.00  0.00     0.162 A 
HETATM    5  C   UNL     1      -6.881   7.171 -28.983  1.00  0.00     0.081 A 
HETATM    6  C   UNL     1      -5.787   7.029 -29.894  1.00  0.00     0.124 A 
HETATM    7  N   UNL     1      -8.650   6.480 -27.932  1.00  0.00    -0.260 N 
HETATM    8  H   UNL     1      -9.436   5.941 -27.582  1.00  0.00     0.191 HD
HETATM    9  N   UNL     1      -8.474   7.746 -27.495  1.00  0.00    -0.177 NA
HETATM   10  C   UNL     1      -7.385   8.180 -28.148  1.00  0.00     0.068 A 
HETATM   11  C   UNL     1      -6.902   9.563 -27.918  1.00  0.00     0.073 C 
ENDROOT
BRANCH   2  12
HETATM   12  S   UNL     1      -6.617   3.191 -31.144  1.00  0.00    -0.082 SA
BRANCH  12  13
HETATM   13  C   UNL     1      -8.313   2.604 -30.884  1.00  0.00     0.185 C 
BRANCH  13  14
HETATM   14  C   UNL     1      -8.632   1.402 -31.760  1.00  0.00     0.227 C 
HETATM   15  N   UNL     1      -8.397   1.614 -33.106  1.00  0.00    -0.360 N 
HETATM   16  H   UNL     1      -8.132   2.533 -33.437  1.00  0.00     0.162 HD
HETATM   17  O   UNL     1      -9.006   0.320 -31.315  1.00  0.00    -0.273 OA
BRANCH  15  18
HETATM   18  C   UNL     1      -8.503   0.547 -34.084  1.00  0.00     0.127 C 
BRANCH  18  19
HETATM   19  C   UNL     1      -7.313   0.497 -35.045  1.00  0.00     0.058 C 
BRANCH  19  20
HETATM   20  C   UNL     1      -6.267  -0.480 -34.561  1.00  0.00    -0.054 A 
HETATM   21  C   UNL     1      -6.372  -1.844 -34.874  1.00  0.00     0.046 A 
HETATM   22  C   UNL     1      -5.434  -2.765 -34.391  1.00  0.00     0.102 A 
HETATM   23  C   UNL     1      -4.372  -2.318 -33.579  1.00  0.00     0.101 A 
HETATM   24  C   UNL     1      -4.268  -0.958 -33.271  1.00  0.00     0.040 A 
HETATM   25  C   UNL     1      -5.209  -0.047 -33.757  1.00  0.00     0.010 A 
BRANCH  22  26
HETATM   26  O   UNL     1      -5.471  -4.115 -34.644  1.00  0.00    -0.353 OA
HETATM   27  C   UNL     1      -6.503  -4.600 -35.489  1.00  0.00     0.210 C 
ENDBRANCH  22  26
BRANCH  23  28
HETATM   28  O   UNL     1      -3.500  -3.283 -33.139  1.00  0.00    -0.353 OA
HETATM   29  C   UNL     1      -3.084  -3.229 -31.782  1.00  0.00     0.210 C 
ENDBRANCH  23  28
ENDBRANCH  19  20
ENDBRANCH  18  19
ENDBRANCH  15  18
ENDBRANCH  13  14
ENDBRANCH  12  13
ENDBRANCH   2  12
BRANCH   1  30
HETATM   30  C   UNL     1      -4.687   5.553 -31.583  1.00  0.00     0.045 A 
HETATM   31  C   UNL     1      -3.362   5.299 -31.211  1.00  0.00     0.054 A 
HETATM   32  C   UNL     1      -2.359   5.193 -32.181  1.00  0.00     0.042 A 
HETATM   33  C   UNL     1      -2.658   5.357 -33.542  1.00  0.00    -0.040 A 
HETATM   34 CL   UNL     1      -0.749   4.879 -31.641  1.00  0.00    -0.084 Cl
HETATM   35  C   UNL     1      -1.601   5.255 -34.607  1.00  0.00     0.050 C 
HETATM   36  C   UNL     1      -3.987   5.607 -33.912  1.00  0.00     0.011 A 
HETATM   37  C   UNL     1      -4.990   5.706 -32.944  1.00  0.00     0.031 A 
ENDBRANCH   1  30
BRANCH   6  38
HETATM   38  N   UNL     1      -4.896   7.992 -30.041  1.00  0.00    -0.384 N 
HETATM   39  H   UNL     1      -4.641   8.606 -29.281  1.00  0.00     0.157 HD
HETATM   40  H   UNL     1      -4.421   8.114 -30.928  1.00  0.00     0.157 HD
ENDBRANCH   6  38
TORSDOF 10
ENDMDL
