MODEL 1
REMARK VINA RESULT:      -9.8      0.000      0.000
REMARK  5 active torsions:
REMARK  status: ('A' for Active; 'I' for Inactive)
REMARK    1  A    between atoms: C_2  and  O_3 
REMARK    2  A    between atoms: O_3  and  C_4 
REMARK       I    between atoms: N_10  and  C_11 
REMARK    3  A    between atoms: C_11  and  C_13 
REMARK    4  A    between atoms: C_13  and  C_14 
REMARK    5  A    between atoms: C_17  and  C_20 
ROOT
HETATM    1  C   UNL     1      -4.621   4.477 -31.128  1.00  0.00    -0.049 A 
HETATM    2  C   UNL     1      -3.693   4.066 -32.097  1.00  0.00     0.008 A 
HETATM    3  C   UNL     1      -3.492   2.710 -32.355  1.00  0.00     0.014 A 
HETATM    4  C   UNL     1      -4.239   1.756 -31.656  1.00  0.00    -0.005 A 
HETATM    5  C   UNL     1      -5.144   2.148 -30.669  1.00  0.00     0.014 A 
HETATM    6  C   UNL     1      -5.338   3.505 -30.411  1.00  0.00     0.008 A 
ENDROOT
BRANCH   1   7
HETATM    7  C   UNL     1      -4.864   5.951 -30.871  1.00  0.00     0.141 C 
BRANCH   7   8
HETATM    8  C   UNL     1      -4.599   6.388 -29.440  1.00  0.00     0.228 C 
HETATM    9  N   UNL     1      -3.316   6.753 -29.070  1.00  0.00    -0.317 N 
HETATM   10  C   UNL     1      -3.076   7.144 -27.672  1.00  0.00     0.137 A 
HETATM   11  C   UNL     1      -2.107   6.873 -29.785  1.00  0.00     0.046 A 
HETATM   12  C   UNL     1      -1.591   7.467 -27.518  1.00  0.00     0.061 A 
HETATM   13  C   UNL     1      -1.095   7.295 -28.918  1.00  0.00    -0.029 A 
HETATM   14  C   UNL     1       0.206   7.505 -29.354  1.00  0.00     0.012 A 
HETATM   15  C   UNL     1       0.501   7.293 -30.700  1.00  0.00     0.037 A 
HETATM   16  C   UNL     1      -0.501   6.873 -31.584  1.00  0.00     0.070 A 
HETATM   17  C   UNL     1      -1.810   6.659 -31.120  1.00  0.00     0.067 A 
HETATM   18  O   UNL     1      -5.511   6.417 -28.603  1.00  0.00    -0.273 OA
BRANCH  16  19
HETATM   19  O   UNL     1      -0.334   6.634 -32.924  1.00  0.00    -0.351 OA
BRANCH  19  20
HETATM   20  C   UNL     1      -1.504   6.657 -33.740  1.00  0.00     0.171 C 
HETATM   21  C   UNL     1      -1.436   5.472 -34.687  1.00  0.00     0.034 C 
ENDBRANCH  19  20
ENDBRANCH  16  19
ENDBRANCH   7   8
ENDBRANCH   1   7
BRANCH   4  22
HETATM   22  C   UNL     1      -4.058   0.312 -31.935  1.00  0.00     0.098 A 
HETATM   23  N   UNL     1      -3.135  -0.307 -31.258  1.00  0.00    -0.170 NA
HETATM   24  N   UNL     1      -2.913  -1.623 -31.518  1.00  0.00    -0.242 N 
HETATM   25  C   UNL     1      -3.550  -2.377 -32.473  1.00  0.00     0.272 A 
HETATM   26  H   UNL     1      -2.171  -2.069 -30.990  1.00  0.00     0.192 HD
HETATM   27  O   UNL     1      -3.260  -3.550 -32.687  1.00  0.00    -0.266 OA
HETATM   28  C   UNL     1      -4.624  -1.705 -33.220  1.00  0.00     0.046 A 
HETATM   29  C   UNL     1      -5.369  -2.413 -34.173  1.00  0.00     0.018 A 
HETATM   30  C   UNL     1      -4.908  -0.368 -32.946  1.00  0.00     0.011 A 
HETATM   31  C   UNL     1      -6.416  -1.782 -34.842  1.00  0.00     0.001 A 
HETATM   32  C   UNL     1      -6.726  -0.454 -34.551  1.00  0.00     0.001 A 
HETATM   33  C   UNL     1      -5.981   0.252 -33.601  1.00  0.00     0.015 A 
ENDBRANCH   4  22
TORSDOF 5
ENDMDL
MODEL 2
REMARK VINA RESULT:      -9.3      6.271      8.849
REMARK  5 active torsions:
REMARK  status: ('A' for Active; 'I' for Inactive)
REMARK    1  A    between atoms: C_2  and  O_3 
REMARK    2  A    between atoms: O_3  and  C_4 
REMARK       I    between atoms: N_10  and  C_11 
REMARK    3  A    between atoms: C_11  and  C_13 
REMARK    4  A    between atoms: C_13  and  C_14 
REMARK    5  A    between atoms: C_17  and  C_20 
ROOT
HETATM    1  C   UNL     1     -11.146   1.171 -34.132  1.00  0.00    -0.049 A 
HETATM    2  C   UNL     1     -10.012   1.871 -34.571  1.00  0.00     0.008 A 
HETATM    3  C   UNL     1      -8.754   1.588 -34.035  1.00  0.00     0.014 A 
HETATM    4  C   UNL     1      -8.625   0.585 -33.070  1.00  0.00    -0.005 A 
HETATM    5  C   UNL     1      -9.747  -0.098 -32.602  1.00  0.00     0.014 A 
HETATM    6  C   UNL     1     -11.003   0.190 -33.137  1.00  0.00     0.008 A 
ENDROOT
BRANCH   1   7
HETATM    7  C   UNL     1     -12.506   1.453 -34.738  1.00  0.00     0.141 C 
BRANCH   7   8
HETATM    8  C   UNL     1     -13.642   1.497 -33.729  1.00  0.00     0.228 C 
HETATM    9  N   UNL     1     -13.980   2.706 -33.143  1.00  0.00    -0.317 N 
HETATM   10  C   UNL     1     -15.063   2.720 -32.148  1.00  0.00     0.137 A 
HETATM   11  C   UNL     1     -13.510   4.023 -33.316  1.00  0.00     0.046 A 
HETATM   12  C   UNL     1     -15.216   4.150 -31.635  1.00  0.00     0.061 A 
HETATM   13  C   UNL     1     -14.213   4.882 -32.467  1.00  0.00    -0.029 A 
HETATM   14  C   UNL     1     -13.962   6.247 -32.432  1.00  0.00     0.012 A 
HETATM   15  C   UNL     1     -12.983   6.767 -33.276  1.00  0.00     0.037 A 
HETATM   16  C   UNL     1     -12.271   5.922 -34.136  1.00  0.00     0.070 A 
HETATM   17  C   UNL     1     -12.535   4.542 -34.151  1.00  0.00     0.067 A 
HETATM   18  O   UNL     1     -14.264   0.472 -33.424  1.00  0.00    -0.273 OA
BRANCH  16  19
HETATM   19  O   UNL     1     -11.291   6.316 -35.010  1.00  0.00    -0.351 OA
BRANCH  19  20
HETATM   20  C   UNL     1     -10.256   5.376 -35.296  1.00  0.00     0.171 C 
HETATM   21  C   UNL     1      -9.161   5.556 -34.261  1.00  0.00     0.034 C 
ENDBRANCH  19  20
ENDBRANCH  16  19
ENDBRANCH   7   8
ENDBRANCH   1   7
BRANCH   4  22
HETATM   22  C   UNL     1      -7.294   0.254 -32.508  1.00  0.00     0.098 A 
HETATM   23  N   UNL     1      -6.935   0.891 -31.432  1.00  0.00    -0.170 NA
HETATM   24  N   UNL     1      -5.702   0.642 -30.913  1.00  0.00    -0.242 N 
HETATM   25  C   UNL     1      -4.757  -0.202 -31.442  1.00  0.00     0.272 A 
HETATM   26  H   UNL     1      -5.445   1.172 -30.087  1.00  0.00     0.192 HD
HETATM   27  O   UNL     1      -3.644  -0.336 -30.945  1.00  0.00    -0.266 OA
HETATM   28  C   UNL     1      -5.161  -0.960 -32.636  1.00  0.00     0.046 A 
HETATM   29  C   UNL     1      -4.283  -1.889 -33.210  1.00  0.00     0.018 A 
HETATM   30  C   UNL     1      -6.434  -0.763 -33.167  1.00  0.00     0.011 A 
HETATM   31  C   UNL     1      -4.691  -2.638 -34.313  1.00  0.00     0.001 A 
HETATM   32  C   UNL     1      -5.974  -2.468 -34.831  1.00  0.00     0.001 A 
HETATM   33  C   UNL     1      -6.849  -1.540 -34.257  1.00  0.00     0.015 A 
ENDBRANCH   4  22
TORSDOF 5
ENDMDL
MODEL 3
REMARK VINA RESULT:      -9.3      6.037      9.290
REMARK  5 active torsions:
REMARK  status: ('A' for Active; 'I' for Inactive)
REMARK    1  A    between atoms: C_2  and  O_3 
REMARK    2  A    between atoms: O_3  and  C_4 
REMARK       I    between atoms: N_10  and  C_11 
REMARK    3  A    between atoms: C_11  and  C_13 
REMARK    4  A    between atoms: C_13  and  C_14 
REMARK    5  A    between atoms: C_17  and  C_20 
ROOT
HETATM    1  C   UNL     1      -8.585   1.381 -34.098  1.00  0.00    -0.049 A 
HETATM    2  C   UNL     1      -9.303   2.477 -34.600  1.00  0.00     0.008 A 
HETATM    3  C   UNL     1     -10.679   2.578 -34.392  1.00  0.00     0.014 A 
HETATM    4  C   UNL     1     -11.341   1.588 -33.659  1.00  0.00    -0.005 A 
HETATM    5  C   UNL     1     -10.646   0.477 -33.181  1.00  0.00     0.014 A 
HETATM    6  C   UNL     1      -9.271   0.377 -33.394  1.00  0.00     0.008 A 
ENDROOT
BRANCH   1   7
HETATM    7  C   UNL     1      -7.085   1.288 -34.294  1.00  0.00     0.141 C 
BRANCH   7   8
HETATM    8  C   UNL     1      -6.269   1.926 -33.182  1.00  0.00     0.228 C 
HETATM    9  N   UNL     1      -5.283   1.183 -32.555  1.00  0.00    -0.317 N 
HETATM   10  C   UNL     1      -4.526   1.811 -31.461  1.00  0.00     0.137 A 
HETATM   11  C   UNL     1      -4.784  -0.119 -32.759  1.00  0.00     0.046 A 
HETATM   12  C   UNL     1      -3.532   0.784 -30.922  1.00  0.00     0.061 A 
HETATM   13  C   UNL     1      -3.763  -0.375 -31.839  1.00  0.00    -0.029 A 
HETATM   14  C   UNL     1      -3.082  -1.584 -31.814  1.00  0.00     0.012 A 
HETATM   15  C   UNL     1      -3.429  -2.564 -32.743  1.00  0.00     0.037 A 
HETATM   16  C   UNL     1      -4.447  -2.324 -33.675  1.00  0.00     0.070 A 
HETATM   17  C   UNL     1      -5.129  -1.096 -33.678  1.00  0.00     0.067 A 
HETATM   18  O   UNL     1      -6.477   3.093 -32.828  1.00  0.00    -0.273 OA
BRANCH  16  19
HETATM   19  O   UNL     1      -4.874  -3.206 -34.634  1.00  0.00    -0.351 OA
BRANCH  19  20
HETATM   20  C   UNL     1      -6.245  -3.134 -35.022  1.00  0.00     0.171 C 
HETATM   21  C   UNL     1      -6.750  -4.551 -35.222  1.00  0.00     0.034 C 
ENDBRANCH  19  20
ENDBRANCH  16  19
ENDBRANCH   7   8
ENDBRANCH   1   7
BRANCH   4  22
HETATM   22  C   UNL     1     -12.798   1.691 -33.407  1.00  0.00     0.098 A 
HETATM   23  N   UNL     1     -13.551   0.762 -33.919  1.00  0.00    -0.170 NA
HETATM   24  N   UNL     1     -14.897   0.849 -33.743  1.00  0.00    -0.242 N 
HETATM   25  C   UNL     1     -15.565   1.861 -33.099  1.00  0.00     0.272 A 
HETATM   26  H   UNL     1     -15.456   0.121 -34.175  1.00  0.00     0.192 HD
HETATM   27  O   UNL     1     -16.788   1.898 -33.024  1.00  0.00    -0.266 OA
HETATM   28  C   UNL     1     -14.726   2.898 -32.479  1.00  0.00     0.046 A 
HETATM   29  C   UNL     1     -15.318   3.939 -31.750  1.00  0.00     0.018 A 
HETATM   30  C   UNL     1     -13.341   2.815 -32.602  1.00  0.00     0.011 A 
HETATM   31  C   UNL     1     -14.515   4.892 -31.126  1.00  0.00     0.001 A 
HETATM   32  C   UNL     1     -13.127   4.798 -31.219  1.00  0.00     0.001 A 
HETATM   33  C   UNL     1     -12.538   3.760 -31.947  1.00  0.00     0.015 A 
ENDBRANCH   4  22
TORSDOF 5
ENDMDL
MODEL 4
REMARK VINA RESULT:      -9.1      1.337      2.106
REMARK  5 active torsions:
REMARK  status: ('A' for Active; 'I' for Inactive)
REMARK    1  A    between atoms: C_2  and  O_3 
REMARK    2  A    between atoms: O_3  and  C_4 
REMARK       I    between atoms: N_10  and  C_11 
REMARK    3  A    between atoms: C_11  and  C_13 
REMARK    4  A    between atoms: C_13  and  C_14 
REMARK    5  A    between atoms: C_17  and  C_20 
ROOT
HETATM    1  C   UNL     1      -4.153   5.168 -31.230  1.00  0.00    -0.049 A 
HETATM    2  C   UNL     1      -5.029   4.292 -30.571  1.00  0.00     0.008 A 
HETATM    3  C   UNL     1      -4.927   2.913 -30.762  1.00  0.00     0.014 A 
HETATM    4  C   UNL     1      -3.930   2.404 -31.599  1.00  0.00    -0.005 A 
HETATM    5  C   UNL     1      -3.072   3.264 -32.284  1.00  0.00     0.014 A 
HETATM    6  C   UNL     1      -3.179   4.642 -32.095  1.00  0.00     0.008 A 
ENDROOT
BRANCH   1   7
HETATM    7  C   UNL     1      -4.241   6.663 -30.996  1.00  0.00     0.141 C 
BRANCH   7   8
HETATM    8  C   UNL     1      -5.000   7.056 -29.740  1.00  0.00     0.228 C 
HETATM    9  N   UNL     1      -4.295   7.313 -28.576  1.00  0.00    -0.317 N 
HETATM   10  C   UNL     1      -5.052   7.662 -27.364  1.00  0.00     0.137 A 
HETATM   11  C   UNL     1      -2.919   7.347 -28.273  1.00  0.00     0.046 A 
HETATM   12  C   UNL     1      -4.056   7.863 -26.224  1.00  0.00     0.061 A 
HETATM   13  C   UNL     1      -2.749   7.674 -26.924  1.00  0.00    -0.029 A 
HETATM   14  C   UNL     1      -1.491   7.786 -26.349  1.00  0.00     0.012 A 
HETATM   15  C   UNL     1      -0.370   7.571 -27.149  1.00  0.00     0.037 A 
HETATM   16  C   UNL     1      -0.521   7.246 -28.503  1.00  0.00     0.070 A 
HETATM   17  C   UNL     1      -1.804   7.130 -29.064  1.00  0.00     0.067 A 
HETATM   18  O   UNL     1      -6.234   7.145 -29.742  1.00  0.00    -0.273 OA
BRANCH  16  19
HETATM   19  O   UNL     1       0.501   7.015 -29.387  1.00  0.00    -0.351 OA
BRANCH  19  20
HETATM   20  C   UNL     1       0.142   6.694 -30.730  1.00  0.00     0.171 C 
HETATM   21  C   UNL     1       0.590   5.271 -31.007  1.00  0.00     0.034 C 
ENDBRANCH  19  20
ENDBRANCH  16  19
ENDBRANCH   7   8
ENDBRANCH   1   7
BRANCH   4  22
HETATM   22  C   UNL     1      -3.791   0.941 -31.794  1.00  0.00     0.098 A 
HETATM   23  N   UNL     1      -2.866   0.341 -31.105  1.00  0.00    -0.170 NA
HETATM   24  N   UNL     1      -2.682  -0.994 -31.291  1.00  0.00    -0.242 N 
HETATM   25  C   UNL     1      -3.362  -1.787 -32.182  1.00  0.00     0.272 A 
HETATM   26  H   UNL     1      -1.937  -1.427 -30.756  1.00  0.00     0.192 HD
HETATM   27  O   UNL     1      -3.105  -2.977 -32.333  1.00  0.00    -0.266 OA
HETATM   28  C   UNL     1      -4.439  -1.133 -32.941  1.00  0.00     0.046 A 
HETATM   29  C   UNL     1      -5.226  -1.878 -33.831  1.00  0.00     0.018 A 
HETATM   30  C   UNL     1      -4.684   0.224 -32.741  1.00  0.00     0.011 A 
HETATM   31  C   UNL     1      -6.275  -1.261 -34.511  1.00  0.00     0.001 A 
HETATM   32  C   UNL     1      -6.545   0.089 -34.293  1.00  0.00     0.001 A 
HETATM   33  C   UNL     1      -5.759   0.831 -33.405  1.00  0.00     0.015 A 
ENDBRANCH   4  22
TORSDOF 5
ENDMDL
MODEL 5
REMARK VINA RESULT:      -8.8      5.522      8.841
REMARK  5 active torsions:
REMARK  status: ('A' for Active; 'I' for Inactive)
REMARK    1  A    between atoms: C_2  and  O_3 
REMARK    2  A    between atoms: O_3  and  C_4 
REMARK       I    between atoms: N_10  and  C_11 
REMARK    3  A    between atoms: C_11  and  C_13 
REMARK    4  A    between atoms: C_13  and  C_14 
REMARK    5  A    between atoms: C_17  and  C_20 
ROOT
HETATM    1  C   UNL     1      -7.783   2.366 -33.719  1.00  0.00    -0.049 A 
HETATM    2  C   UNL     1      -8.433   3.493 -34.244  1.00  0.00     0.008 A 
HETATM    3  C   UNL     1      -9.765   3.757 -33.921  1.00  0.00     0.014 A 
HETATM    4  C   UNL     1     -10.446   2.902 -33.050  1.00  0.00    -0.005 A 
HETATM    5  C   UNL     1      -9.823   1.761 -32.544  1.00  0.00     0.014 A 
HETATM    6  C   UNL     1      -8.493   1.498 -32.873  1.00  0.00     0.008 A 
ENDROOT
BRANCH   1   7
HETATM    7  C   UNL     1      -6.327   2.097 -34.042  1.00  0.00     0.141 C 
BRANCH   7   8
HETATM    8  C   UNL     1      -5.371   2.372 -32.892  1.00  0.00     0.228 C 
HETATM    9  N   UNL     1      -4.606   1.335 -32.386  1.00  0.00    -0.317 N 
HETATM   10  C   UNL     1      -3.709   1.616 -31.254  1.00  0.00     0.137 A 
HETATM   11  C   UNL     1      -4.458  -0.018 -32.751  1.00  0.00     0.046 A 
HETATM   12  C   UNL     1      -3.011   0.315 -30.868  1.00  0.00     0.061 A 
HETATM   13  C   UNL     1      -3.534  -0.631 -31.900  1.00  0.00    -0.029 A 
HETATM   14  C   UNL     1      -3.185  -1.968 -32.035  1.00  0.00     0.012 A 
HETATM   15  C   UNL     1      -3.775  -2.712 -33.055  1.00  0.00     0.037 A 
HETATM   16  C   UNL     1      -4.700  -2.114 -33.920  1.00  0.00     0.070 A 
HETATM   17  C   UNL     1      -5.045  -0.761 -33.762  1.00  0.00     0.067 A 
HETATM   18  O   UNL     1      -5.271   3.504 -32.403  1.00  0.00    -0.273 OA
BRANCH  16  19
HETATM   19  O   UNL     1      -5.342  -2.739 -34.958  1.00  0.00    -0.351 OA
BRANCH  19  20
HETATM   20  C   UNL     1      -5.433  -4.162 -34.906  1.00  0.00     0.171 C 
HETATM   21  C   UNL     1      -6.880  -4.547 -35.156  1.00  0.00     0.034 C 
ENDBRANCH  19  20
ENDBRANCH  16  19
ENDBRANCH   7   8
ENDBRANCH   1   7
BRANCH   4  22
HETATM   22  C   UNL     1     -11.853   3.181 -32.676  1.00  0.00     0.098 A 
HETATM   23  N   UNL     1     -12.064   4.200 -31.896  1.00  0.00    -0.170 NA
HETATM   24  N   UNL     1     -13.339   4.459 -31.499  1.00  0.00    -0.242 N 
HETATM   25  C   UNL     1     -14.450   3.715 -31.810  1.00  0.00     0.272 A 
HETATM   26  H   UNL     1     -13.466   5.247 -30.873  1.00  0.00     0.192 HD
HETATM   27  O   UNL     1     -15.564   3.980 -31.370  1.00  0.00    -0.266 OA
HETATM   28  C   UNL     1     -14.236   2.581 -32.722  1.00  0.00     0.046 A 
HETATM   29  C   UNL     1     -15.321   1.800 -33.142  1.00  0.00     0.018 A 
HETATM   30  C   UNL     1     -12.949   2.315 -33.185  1.00  0.00     0.011 A 
HETATM   31  C   UNL     1     -15.117   0.757 -34.044  1.00  0.00     0.001 A 
HETATM   32  C   UNL     1     -13.837   0.505 -34.535  1.00  0.00     0.001 A 
HETATM   33  C   UNL     1     -12.755   1.285 -34.115  1.00  0.00     0.015 A 
ENDBRANCH   4  22
TORSDOF 5
ENDMDL
MODEL 6
REMARK VINA RESULT:      -8.7      2.847      4.021
REMARK  5 active torsions:
REMARK  status: ('A' for Active; 'I' for Inactive)
REMARK    1  A    between atoms: C_2  and  O_3 
REMARK    2  A    between atoms: O_3  and  C_4 
REMARK       I    between atoms: N_10  and  C_11 
REMARK    3  A    between atoms: C_11  and  C_13 
REMARK    4  A    between atoms: C_13  and  C_14 
REMARK    5  A    between atoms: C_17  and  C_20 
ROOT
HETATM    1  C   UNL     1      -2.034   4.844 -32.401  1.00  0.00    -0.049 A 
HETATM    2  C   UNL     1      -2.435   4.004 -31.351  1.00  0.00     0.008 A 
HETATM    3  C   UNL     1      -3.631   3.288 -31.435  1.00  0.00     0.014 A 
HETATM    4  C   UNL     1      -4.421   3.396 -32.583  1.00  0.00    -0.005 A 
HETATM    5  C   UNL     1      -4.051   4.251 -33.621  1.00  0.00     0.014 A 
HETATM    6  C   UNL     1      -2.857   4.968 -33.532  1.00  0.00     0.008 A 
ENDROOT
BRANCH   1   7
HETATM    7  C   UNL     1      -0.720   5.595 -32.325  1.00  0.00     0.141 C 
BRANCH   7   8
HETATM    8  C   UNL     1       0.042   5.392 -31.026  1.00  0.00     0.228 C 
HETATM    9  N   UNL     1      -0.086   6.328 -30.013  1.00  0.00    -0.317 N 
HETATM   10  C   UNL     1       0.682   6.127 -28.775  1.00  0.00     0.137 A 
HETATM   11  C   UNL     1      -0.862   7.497 -29.877  1.00  0.00     0.046 A 
HETATM   12  C   UNL     1       0.393   7.301 -27.842  1.00  0.00     0.061 A 
HETATM   13  C   UNL     1      -0.616   8.075 -28.628  1.00  0.00    -0.029 A 
HETATM   14  C   UNL     1      -1.253   9.238 -28.219  1.00  0.00     0.012 A 
HETATM   15  C   UNL     1      -2.169   9.837 -29.083  1.00  0.00     0.037 A 
HETATM   16  C   UNL     1      -2.431   9.270 -30.336  1.00  0.00     0.070 A 
HETATM   17  C   UNL     1      -1.770   8.096 -30.735  1.00  0.00     0.067 A 
HETATM   18  O   UNL     1       0.774   4.408 -30.862  1.00  0.00    -0.273 OA
BRANCH  16  19
HETATM   19  O   UNL     1      -3.308   9.763 -31.267  1.00  0.00    -0.351 OA
BRANCH  19  20
HETATM   20  C   UNL     1      -4.697   9.709 -30.948  1.00  0.00     0.171 C 
HETATM   21  C   UNL     1      -5.245  11.124 -30.994  1.00  0.00     0.034 C 
ENDBRANCH  19  20
ENDBRANCH  16  19
ENDBRANCH   7   8
ENDBRANCH   1   7
BRANCH   4  22
HETATM   22  C   UNL     1      -5.681   2.625 -32.701  1.00  0.00     0.098 A 
HETATM   23  N   UNL     1      -6.791   3.282 -32.532  1.00  0.00    -0.170 NA
HETATM   24  N   UNL     1      -7.965   2.597 -32.591  1.00  0.00    -0.242 N 
HETATM   25  C   UNL     1      -8.103   1.243 -32.775  1.00  0.00     0.272 A 
HETATM   26  H   UNL     1      -8.810   3.135 -32.433  1.00  0.00     0.192 HD
HETATM   27  O   UNL     1      -9.196   0.687 -32.764  1.00  0.00    -0.266 OA
HETATM   28  C   UNL     1      -6.861   0.491 -33.006  1.00  0.00     0.046 A 
HETATM   29  C   UNL     1      -6.909  -0.886 -33.261  1.00  0.00     0.018 A 
HETATM   30  C   UNL     1      -5.644   1.170 -32.998  1.00  0.00     0.011 A 
HETATM   31  C   UNL     1      -5.732  -1.584 -33.527  1.00  0.00     0.001 A 
HETATM   32  C   UNL     1      -4.514  -0.905 -33.550  1.00  0.00     0.001 A 
HETATM   33  C   UNL     1      -4.467   0.469 -33.295  1.00  0.00     0.015 A 
ENDBRANCH   4  22
TORSDOF 5
ENDMDL
MODEL 7
REMARK VINA RESULT:      -8.6      1.192      1.574
REMARK  5 active torsions:
REMARK  status: ('A' for Active; 'I' for Inactive)
REMARK    1  A    between atoms: C_2  and  O_3 
REMARK    2  A    between atoms: O_3  and  C_4 
REMARK       I    between atoms: N_10  and  C_11 
REMARK    3  A    between atoms: C_11  and  C_13 
REMARK    4  A    between atoms: C_13  and  C_14 
REMARK    5  A    between atoms: C_17  and  C_20 
ROOT
HETATM    1  C   UNL     1      -5.040   5.370 -30.264  1.00  0.00    -0.049 A 
HETATM    2  C   UNL     1      -4.399   5.262 -31.508  1.00  0.00     0.008 A 
HETATM    3  C   UNL     1      -4.291   4.025 -32.144  1.00  0.00     0.014 A 
HETATM    4  C   UNL     1      -4.847   2.890 -31.546  1.00  0.00    -0.005 A 
HETATM    5  C   UNL     1      -5.460   2.976 -30.296  1.00  0.00     0.014 A 
HETATM    6  C   UNL     1      -5.562   4.214 -29.660  1.00  0.00     0.008 A 
ENDROOT
BRANCH   1   7
HETATM    7  C   UNL     1      -5.188   6.719 -29.589  1.00  0.00     0.141 C 
BRANCH   7   8
HETATM    8  C   UNL     1      -4.763   6.736 -28.130  1.00  0.00     0.228 C 
HETATM    9  N   UNL     1      -3.418   6.839 -27.817  1.00  0.00    -0.317 N 
HETATM   10  C   UNL     1      -3.028   6.824 -26.399  1.00  0.00     0.137 A 
HETATM   11  C   UNL     1      -2.258   6.995 -28.602  1.00  0.00     0.046 A 
HETATM   12  C   UNL     1      -1.505   6.918 -26.326  1.00  0.00     0.061 A 
HETATM   13  C   UNL     1      -1.138   7.056 -27.768  1.00  0.00    -0.029 A 
HETATM   14  C   UNL     1       0.145   7.216 -28.272  1.00  0.00     0.012 A 
HETATM   15  C   UNL     1       0.311   7.325 -29.652  1.00  0.00     0.037 A 
HETATM   16  C   UNL     1      -0.800   7.270 -30.503  1.00  0.00     0.070 A 
HETATM   17  C   UNL     1      -2.090   7.100 -29.972  1.00  0.00     0.067 A 
HETATM   18  O   UNL     1      -5.600   6.656 -27.222  1.00  0.00    -0.273 OA
BRANCH  16  19
HETATM   19  O   UNL     1      -0.763   7.368 -31.870  1.00  0.00    -0.351 OA
BRANCH  19  20
HETATM   20  C   UNL     1      -0.806   6.150 -32.612  1.00  0.00     0.171 C 
HETATM   21  C   UNL     1      -1.475   6.437 -33.944  1.00  0.00     0.034 C 
ENDBRANCH  19  20
ENDBRANCH  16  19
ENDBRANCH   7   8
ENDBRANCH   1   7
BRANCH   4  22
HETATM   22  C   UNL     1      -4.764   1.572 -32.218  1.00  0.00     0.098 A 
HETATM   23  N   UNL     1      -3.741   0.824 -31.924  1.00  0.00    -0.170 NA
HETATM   24  N   UNL     1      -3.612  -0.374 -32.555  1.00  0.00    -0.242 N 
HETATM   25  C   UNL     1      -4.447  -0.873 -33.523  1.00  0.00     0.272 A 
HETATM   26  H   UNL     1      -2.791  -0.922 -32.319  1.00  0.00     0.192 HD
HETATM   27  O   UNL     1      -4.237  -1.942 -34.087  1.00  0.00    -0.266 OA
HETATM   28  C   UNL     1      -5.630  -0.058 -33.840  1.00  0.00     0.046 A 
HETATM   29  C   UNL     1      -6.570  -0.515 -34.774  1.00  0.00     0.018 A 
HETATM   30  C   UNL     1      -5.817   1.154 -33.179  1.00  0.00     0.011 A 
HETATM   31  C   UNL     1      -7.713   0.239 -35.034  1.00  0.00     0.001 A 
HETATM   32  C   UNL     1      -7.922   1.438 -34.353  1.00  0.00     0.001 A 
HETATM   33  C   UNL     1      -6.983   1.894 -33.422  1.00  0.00     0.015 A 
ENDBRANCH   4  22
TORSDOF 5
ENDMDL
MODEL 8
REMARK VINA RESULT:      -8.6      6.124      9.218
REMARK  5 active torsions:
REMARK  status: ('A' for Active; 'I' for Inactive)
REMARK    1  A    between atoms: C_2  and  O_3 
REMARK    2  A    between atoms: O_3  and  C_4 
REMARK       I    between atoms: N_10  and  C_11 
REMARK    3  A    between atoms: C_11  and  C_13 
REMARK    4  A    between atoms: C_13  and  C_14 
REMARK    5  A    between atoms: C_17  and  C_20 
ROOT
HETATM    1  C   UNL     1      -8.716   1.239 -34.088  1.00  0.00    -0.049 A 
HETATM    2  C   UNL     1      -9.398   0.273 -33.334  1.00  0.00     0.008 A 
HETATM    3  C   UNL     1     -10.760   0.416 -33.066  1.00  0.00     0.014 A 
HETATM    4  C   UNL     1     -11.451   1.520 -33.573  1.00  0.00    -0.005 A 
HETATM    5  C   UNL     1     -10.780   2.504 -34.299  1.00  0.00     0.014 A 
HETATM    6  C   UNL     1      -9.417   2.360 -34.561  1.00  0.00     0.008 A 
ENDROOT
BRANCH   1   7
HETATM    7  C   UNL     1      -7.244   1.067 -34.408  1.00  0.00     0.141 C 
BRANCH   7   8
HETATM    8  C   UNL     1      -6.829  -0.368 -34.684  1.00  0.00     0.228 C 
HETATM    9  N   UNL     1      -5.727  -0.892 -34.028  1.00  0.00    -0.317 N 
HETATM   10  C   UNL     1      -5.325  -2.274 -34.331  1.00  0.00     0.137 A 
HETATM   11  C   UNL     1      -4.859  -0.376 -33.044  1.00  0.00     0.046 A 
HETATM   12  C   UNL     1      -4.079  -2.596 -33.510  1.00  0.00     0.061 A 
HETATM   13  C   UNL     1      -3.903  -1.342 -32.716  1.00  0.00    -0.029 A 
HETATM   14  C   UNL     1      -2.921  -1.109 -31.764  1.00  0.00     0.012 A 
HETATM   15  C   UNL     1      -2.898   0.126 -31.117  1.00  0.00     0.037 A 
HETATM   16  C   UNL     1      -3.850   1.104 -31.430  1.00  0.00     0.070 A 
HETATM   17  C   UNL     1      -4.832   0.851 -32.403  1.00  0.00     0.067 A 
HETATM   18  O   UNL     1      -7.457  -1.071 -35.485  1.00  0.00    -0.273 OA
BRANCH  16  19
HETATM   19  O   UNL     1      -3.931   2.349 -30.862  1.00  0.00    -0.351 OA
BRANCH  19  20
HETATM   20  C   UNL     1      -3.370   3.438 -31.595  1.00  0.00     0.171 C 
HETATM   21  C   UNL     1      -4.493   4.402 -31.934  1.00  0.00     0.034 C 
ENDBRANCH  19  20
ENDBRANCH  16  19
ENDBRANCH   7   8
ENDBRANCH   1   7
BRANCH   4  22
HETATM   22  C   UNL     1     -12.903   1.676 -33.320  1.00  0.00     0.098 A 
HETATM   23  N   UNL     1     -13.689   0.767 -33.819  1.00  0.00    -0.170 NA
HETATM   24  N   UNL     1     -15.030   0.902 -33.641  1.00  0.00    -0.242 N 
HETATM   25  C   UNL     1     -15.662   1.945 -33.009  1.00  0.00     0.272 A 
HETATM   26  H   UNL     1     -15.616   0.188 -34.063  1.00  0.00     0.192 HD
HETATM   27  O   UNL     1     -16.884   2.025 -32.934  1.00  0.00    -0.266 OA
HETATM   28  C   UNL     1     -14.788   2.961 -32.405  1.00  0.00     0.046 A 
HETATM   29  C   UNL     1     -15.342   4.031 -31.689  1.00  0.00     0.018 A 
HETATM   30  C   UNL     1     -13.406   2.829 -32.529  1.00  0.00     0.011 A 
HETATM   31  C   UNL     1     -14.506   4.964 -31.078  1.00  0.00     0.001 A 
HETATM   32  C   UNL     1     -13.122   4.821 -31.172  1.00  0.00     0.001 A 
HETATM   33  C   UNL     1     -12.570   3.753 -31.888  1.00  0.00     0.015 A 
ENDBRANCH   4  22
TORSDOF 5
ENDMDL
MODEL 9
REMARK VINA RESULT:      -8.5      6.138      9.249
REMARK  5 active torsions:
REMARK  status: ('A' for Active; 'I' for Inactive)
REMARK    1  A    between atoms: C_2  and  O_3 
REMARK    2  A    between atoms: O_3  and  C_4 
REMARK       I    between atoms: N_10  and  C_11 
REMARK    3  A    between atoms: C_11  and  C_13 
REMARK    4  A    between atoms: C_13  and  C_14 
REMARK    5  A    between atoms: C_17  and  C_20 
ROOT
HETATM    1  C   UNL     1      -9.933   1.351 -33.587  1.00  0.00    -0.049 A 
HETATM    2  C   UNL     1      -9.029   1.480 -34.652  1.00  0.00     0.008 A 
HETATM    3  C   UNL     1      -7.930   0.626 -34.756  1.00  0.00     0.014 A 
HETATM    4  C   UNL     1      -7.745  -0.379 -33.802  1.00  0.00    -0.005 A 
HETATM    5  C   UNL     1      -8.618  -0.500 -32.721  1.00  0.00     0.014 A 
HETATM    6  C   UNL     1      -9.713   0.359 -32.618  1.00  0.00     0.008 A 
ENDROOT
BRANCH   1   7
HETATM    7  C   UNL     1     -11.145   2.256 -33.493  1.00  0.00     0.141 C 
BRANCH   7   8
HETATM    8  C   UNL     1     -12.476   1.531 -33.604  1.00  0.00     0.228 C 
HETATM    9  N   UNL     1     -13.613   2.118 -33.075  1.00  0.00    -0.317 N 
HETATM   10  C   UNL     1     -14.885   1.385 -33.167  1.00  0.00     0.137 A 
HETATM   11  C   UNL     1     -13.852   3.358 -32.450  1.00  0.00     0.046 A 
HETATM   12  C   UNL     1     -15.966   2.225 -32.489  1.00  0.00     0.061 A 
HETATM   13  C   UNL     1     -15.205   3.454 -32.110  1.00  0.00    -0.029 A 
HETATM   14  C   UNL     1     -15.728   4.578 -31.486  1.00  0.00     0.012 A 
HETATM   15  C   UNL     1     -14.872   5.640 -31.198  1.00  0.00     0.037 A 
HETATM   16  C   UNL     1     -13.515   5.564 -31.533  1.00  0.00     0.070 A 
HETATM   17  C   UNL     1     -13.004   4.413 -32.159  1.00  0.00     0.067 A 
HETATM   18  O   UNL     1     -12.556   0.426 -34.156  1.00  0.00    -0.273 OA
BRANCH  16  19
HETATM   19  O   UNL     1     -12.580   6.540 -31.305  1.00  0.00    -0.351 OA
BRANCH  19  20
HETATM   20  C   UNL     1     -11.741   6.909 -32.398  1.00  0.00     0.171 C 
HETATM   21  C   UNL     1     -10.298   6.719 -31.967  1.00  0.00     0.034 C 
ENDBRANCH  19  20
ENDBRANCH  16  19
ENDBRANCH   7   8
ENDBRANCH   1   7
BRANCH   4  22
HETATM   22  C   UNL     1      -6.597  -1.311 -33.909  1.00  0.00     0.098 A 
HETATM   23  N   UNL     1      -6.722  -2.305 -34.740  1.00  0.00    -0.170 NA
HETATM   24  N   UNL     1      -5.706  -3.203 -34.832  1.00  0.00    -0.242 N 
HETATM   25  C   UNL     1      -4.548  -3.195 -34.092  1.00  0.00     0.272 A 
HETATM   26  H   UNL     1      -5.845  -3.978 -35.471  1.00  0.00     0.192 HD
HETATM   27  O   UNL     1      -3.697  -4.071 -34.194  1.00  0.00    -0.266 OA
HETATM   28  C   UNL     1      -4.374  -2.057 -33.177  1.00  0.00     0.046 A 
HETATM   29  C   UNL     1      -3.197  -1.933 -32.425  1.00  0.00     0.018 A 
HETATM   30  C   UNL     1      -5.376  -1.093 -33.092  1.00  0.00     0.011 A 
HETATM   31  C   UNL     1      -3.018  -0.827 -31.596  1.00  0.00     0.001 A 
HETATM   32  C   UNL     1      -4.004   0.157 -31.529  1.00  0.00     0.001 A 
HETATM   33  C   UNL     1      -5.177   0.031 -32.279  1.00  0.00     0.015 A 
ENDBRANCH   4  22
TORSDOF 5
ENDMDL
MODEL 10
REMARK VINA RESULT:      -8.5      5.232      7.907
REMARK  5 active torsions:
REMARK  status: ('A' for Active; 'I' for Inactive)
REMARK    1  A    between atoms: C_2  and  O_3 
REMARK    2  A    between atoms: O_3  and  C_4 
REMARK       I    between atoms: N_10  and  C_11 
REMARK    3  A    between atoms: C_11  and  C_13 
REMARK    4  A    between atoms: C_13  and  C_14 
REMARK    5  A    between atoms: C_17  and  C_20 
ROOT
HETATM    1  C   UNL     1      -8.213   3.860 -33.180  1.00  0.00    -0.049 A 
HETATM    2  C   UNL     1      -6.987   3.841 -33.862  1.00  0.00     0.008 A 
HETATM    3  C   UNL     1      -6.056   2.830 -33.617  1.00  0.00     0.014 A 
HETATM    4  C   UNL     1      -6.361   1.819 -32.700  1.00  0.00    -0.005 A 
HETATM    5  C   UNL     1      -7.562   1.842 -31.992  1.00  0.00     0.014 A 
HETATM    6  C   UNL     1      -8.488   2.857 -32.236  1.00  0.00     0.008 A 
ENDROOT
BRANCH   1   7
HETATM    7  C   UNL     1      -9.238   4.938 -33.470  1.00  0.00     0.141 C 
BRANCH   7   8
HETATM    8  C   UNL     1      -9.684   5.722 -32.247  1.00  0.00     0.228 C 
HETATM    9  N   UNL     1     -10.944   5.495 -31.719  1.00  0.00    -0.317 N 
HETATM   10  C   UNL     1     -11.366   6.286 -30.553  1.00  0.00     0.137 A 
HETATM   11  C   UNL     1     -11.977   4.595 -32.051  1.00  0.00     0.046 A 
HETATM   12  C   UNL     1     -12.790   5.872 -30.190  1.00  0.00     0.061 A 
HETATM   13  C   UNL     1     -13.052   4.781 -31.177  1.00  0.00    -0.029 A 
HETATM   14  C   UNL     1     -14.210   4.020 -31.266  1.00  0.00     0.012 A 
HETATM   15  C   UNL     1     -14.291   3.041 -32.254  1.00  0.00     0.037 A 
HETATM   16  C   UNL     1     -13.222   2.838 -33.136  1.00  0.00     0.070 A 
HETATM   17  C   UNL     1     -12.062   3.624 -33.034  1.00  0.00     0.067 A 
HETATM   18  O   UNL     1      -8.940   6.559 -31.720  1.00  0.00    -0.273 OA
BRANCH  16  19
HETATM   19  O   UNL     1     -13.183   1.908 -34.143  1.00  0.00    -0.351 OA
BRANCH  19  20
HETATM   20  C   UNL     1     -12.473   0.698 -33.885  1.00  0.00     0.171 C 
HETATM   21  C   UNL     1     -13.492  -0.395 -33.619  1.00  0.00     0.034 C 
ENDBRANCH  19  20
ENDBRANCH  16  19
ENDBRANCH   7   8
ENDBRANCH   1   7
BRANCH   4  22
HETATM   22  C   UNL     1      -5.395   0.724 -32.445  1.00  0.00     0.098 A 
HETATM   23  N   UNL     1      -4.535   0.908 -31.486  1.00  0.00    -0.170 NA
HETATM   24  N   UNL     1      -3.608  -0.059 -31.253  1.00  0.00    -0.242 N 
HETATM   25  C   UNL     1      -3.454  -1.221 -31.968  1.00  0.00     0.272 A 
HETATM   26  H   UNL     1      -2.938   0.127 -30.514  1.00  0.00     0.192 HD
HETATM   27  O   UNL     1      -2.558  -2.025 -31.731  1.00  0.00    -0.266 OA
HETATM   28  C   UNL     1      -4.442  -1.464 -33.030  1.00  0.00     0.046 A 
HETATM   29  C   UNL     1      -4.400  -2.652 -33.772  1.00  0.00     0.018 A 
HETATM   30  C   UNL     1      -5.434  -0.515 -33.265  1.00  0.00     0.011 A 
HETATM   31  C   UNL     1      -5.368  -2.897 -34.745  1.00  0.00     0.001 A 
HETATM   32  C   UNL     1      -6.381  -1.965 -34.964  1.00  0.00     0.001 A 
HETATM   33  C   UNL     1      -6.422  -0.780 -34.223  1.00  0.00     0.015 A 
ENDBRANCH   4  22
TORSDOF 5
ENDMDL
