MODEL 1
REMARK VINA RESULT:      -8.4      0.000      0.000
REMARK  4 active torsions:
REMARK  status: ('A' for Active; 'I' for Inactive)
REMARK    1  A    between atoms: C_6  and  C_7 
REMARK    2  A    between atoms: C_7  and  C_8 
REMARK    3  A    between atoms: N_10  and  C_11 
REMARK    4  A    between atoms: C_19  and  C_20 
ROOT
HETATM    1  C   UNL     1      -5.084   2.619 -32.559  1.00  0.00     0.149 A 
HETATM    2  N   UNL     1      -4.352   1.516 -32.698  1.00  0.00    -0.150 NA
HETATM    3  N   UNL     1      -5.282   0.527 -32.770  1.00  0.00    -0.218 N 
HETATM    4  C   UNL     1      -6.537   1.086 -32.518  1.00  0.00     0.136 A 
HETATM    5  N   UNL     1      -6.427   2.404 -32.449  1.00  0.00    -0.216 NA
ENDROOT
BRANCH   1   6
HETATM    6  C   UNL     1      -4.457   3.966 -32.456  1.00  0.00     0.087 C 
BRANCH   6   7
HETATM    7  C   UNL     1      -2.934   3.980 -32.723  1.00  0.00    -0.004 C 
HETATM    8  C   UNL     1      -2.081   4.432 -31.523  1.00  0.00     0.032 C 
HETATM    9  C   UNL     1      -2.226   5.917 -31.213  1.00  0.00     0.234 C 
HETATM   10  N   UNL     1      -1.866   6.715 -32.443  1.00  0.00    -0.075 N 
HETATM   11  C   UNL     1      -1.886   8.198 -32.165  1.00  0.00     0.269 C 
HETATM   12  H   UNL     1      -0.889   6.491 -32.680  1.00  0.00     0.279 HD
HETATM   13  C   UNL     1      -2.710   6.366 -33.642  1.00  0.00     0.234 C 
HETATM   14  C   UNL     1      -2.597   4.871 -33.934  1.00  0.00     0.032 C 
ENDBRANCH   6   7
ENDBRANCH   1   6
BRANCH   3  15
HETATM   15  C   UNL     1      -4.875  -0.803 -33.071  1.00  0.00     0.062 A 
HETATM   16  C   UNL     1      -4.041  -1.536 -32.218  1.00  0.00     0.058 A 
HETATM   17  C   UNL     1      -3.669  -2.845 -32.556  1.00  0.00     0.074 A 
HETATM   18 CL   UNL     1      -2.640  -3.716 -31.487  1.00  0.00    -0.081 Cl
HETATM   19  C   UNL     1      -4.133  -3.425 -33.732  1.00  0.00     0.138 A 
HETATM   20  F   UNL     1      -3.782  -4.674 -34.067  1.00  0.00    -0.204 F 
HETATM   21  C   UNL     1      -4.981  -2.718 -34.575  1.00  0.00     0.046 A 
HETATM   22  C   UNL     1      -5.360  -1.413 -34.243  1.00  0.00     0.035 A 
ENDBRANCH   3  15
BRANCH   4  23
HETATM   23  C   UNL     1      -7.810   0.341 -32.222  1.00  0.00     0.084 C 
HETATM   24  C   UNL     1      -8.861   1.271 -31.612  1.00  0.00     0.244 C 
HETATM   25  N   UNL     1      -9.412   2.003 -32.799  1.00  0.00    -0.074 N 
HETATM   26  H   UNL     1     -10.363   2.366 -32.644  1.00  0.00     0.277 HD
HETATM   27  H   UNL     1      -8.794   2.815 -32.968  1.00  0.00     0.277 HD
HETATM   28  C   UNL     1      -9.311   1.094 -33.985  1.00  0.00     0.233 C 
HETATM   29  C   UNL     1      -8.512  -0.111 -33.500  1.00  0.00     0.041 C 
ENDBRANCH   4  23
TORSDOF 4
ENDMDL
MODEL 2
REMARK VINA RESULT:      -8.3      2.726      6.772
REMARK  4 active torsions:
REMARK  status: ('A' for Active; 'I' for Inactive)
REMARK    1  A    between atoms: C_6  and  C_7 
REMARK    2  A    between atoms: C_7  and  C_8 
REMARK    3  A    between atoms: N_10  and  C_11 
REMARK    4  A    between atoms: C_19  and  C_20 
ROOT
HETATM    1  C   UNL     1      -9.335   0.826 -33.270  1.00  0.00     0.149 A 
HETATM    2  N   UNL     1      -8.690  -0.299 -33.570  1.00  0.00    -0.150 NA
HETATM    3  N   UNL     1      -7.383   0.073 -33.555  1.00  0.00    -0.218 N 
HETATM    4  C   UNL     1      -7.323   1.459 -33.388  1.00  0.00     0.136 A 
HETATM    5  N   UNL     1      -8.539   1.927 -33.144  1.00  0.00    -0.216 NA
ENDROOT
BRANCH   1   6
HETATM    6  C   UNL     1     -10.820   0.871 -33.160  1.00  0.00     0.087 C 
BRANCH   6   7
HETATM    7  C   UNL     1     -11.503   1.819 -34.173  1.00  0.00    -0.004 C 
HETATM    8  C   UNL     1     -12.050   3.120 -33.558  1.00  0.00     0.032 C 
HETATM    9  C   UNL     1     -13.267   2.896 -32.669  1.00  0.00     0.234 C 
HETATM   10  N   UNL     1     -14.342   2.201 -33.470  1.00  0.00    -0.075 N 
HETATM   11  C   UNL     1     -15.614   2.049 -32.673  1.00  0.00     0.269 C 
HETATM   12  H   UNL     1     -14.583   2.817 -34.260  1.00  0.00     0.279 HD
HETATM   13  C   UNL     1     -13.890   0.885 -34.049  1.00  0.00     0.234 C 
HETATM   14  C   UNL     1     -12.648   1.100 -34.912  1.00  0.00     0.032 C 
ENDBRANCH   6   7
ENDBRANCH   1   6
BRANCH   3  15
HETATM   15  C   UNL     1      -6.367  -0.914 -33.691  1.00  0.00     0.062 A 
HETATM   16  C   UNL     1      -5.297  -1.009 -32.793  1.00  0.00     0.058 A 
HETATM   17  C   UNL     1      -4.321  -1.999 -32.968  1.00  0.00     0.074 A 
HETATM   18 CL   UNL     1      -3.017  -2.085 -31.847  1.00  0.00    -0.081 Cl
HETATM   19  C   UNL     1      -4.414  -2.898 -34.024  1.00  0.00     0.138 A 
HETATM   20  F   UNL     1      -3.486  -3.848 -34.202  1.00  0.00    -0.204 F 
HETATM   21  C   UNL     1      -5.484  -2.831 -34.908  1.00  0.00     0.046 A 
HETATM   22  C   UNL     1      -6.464  -1.848 -34.739  1.00  0.00     0.035 A 
ENDBRANCH   3  15
BRANCH   4  23
HETATM   23  C   UNL     1      -6.119   2.337 -33.586  1.00  0.00     0.084 C 
HETATM   24  C   UNL     1      -6.532   3.756 -33.984  1.00  0.00     0.244 C 
HETATM   25  N   UNL     1      -6.936   4.381 -32.683  1.00  0.00    -0.074 N 
HETATM   26  H   UNL     1      -6.868   5.408 -32.689  1.00  0.00     0.277 HD
HETATM   27  H   UNL     1      -7.929   4.137 -32.524  1.00  0.00     0.277 HD
HETATM   28  C   UNL     1      -6.127   3.742 -31.596  1.00  0.00     0.233 C 
HETATM   29  C   UNL     1      -5.383   2.594 -32.273  1.00  0.00     0.041 C 
ENDBRANCH   4  23
TORSDOF 4
ENDMDL
MODEL 3
REMARK VINA RESULT:      -8.2      1.447      1.871
REMARK  4 active torsions:
REMARK  status: ('A' for Active; 'I' for Inactive)
REMARK    1  A    between atoms: C_6  and  C_7 
REMARK    2  A    between atoms: C_7  and  C_8 
REMARK    3  A    between atoms: N_10  and  C_11 
REMARK    4  A    between atoms: C_19  and  C_20 
ROOT
HETATM    1  C   UNL     1      -4.091   1.762 -32.299  1.00  0.00     0.149 A 
HETATM    2  N   UNL     1      -3.560   0.549 -32.435  1.00  0.00    -0.150 NA
HETATM    3  N   UNL     1      -4.641  -0.246 -32.650  1.00  0.00    -0.218 N 
HETATM    4  C   UNL     1      -5.794   0.525 -32.481  1.00  0.00     0.136 A 
HETATM    5  N   UNL     1      -5.455   1.796 -32.325  1.00  0.00    -0.216 NA
ENDROOT
BRANCH   1   6
HETATM    6  C   UNL     1      -3.245   2.964 -32.059  1.00  0.00     0.087 C 
BRANCH   6   7
HETATM    7  C   UNL     1      -3.478   4.115 -33.065  1.00  0.00    -0.004 C 
HETATM    8  C   UNL     1      -2.208   4.589 -33.797  1.00  0.00     0.032 C 
HETATM    9  C   UNL     1      -1.237   5.333 -32.889  1.00  0.00     0.234 C 
HETATM   10  N   UNL     1      -1.951   6.507 -32.262  1.00  0.00    -0.075 N 
HETATM   11  C   UNL     1      -1.009   7.348 -31.435  1.00  0.00     0.269 C 
HETATM   12  H   UNL     1      -2.267   7.119 -33.028  1.00  0.00     0.279 HD
HETATM   13  C   UNL     1      -3.171   6.105 -31.474  1.00  0.00     0.234 C 
HETATM   14  C   UNL     1      -4.131   5.327 -32.372  1.00  0.00     0.032 C 
ENDBRANCH   6   7
ENDBRANCH   1   6
BRANCH   3  15
HETATM   15  C   UNL     1      -4.453  -1.615 -32.989  1.00  0.00     0.062 A 
HETATM   16  C   UNL     1      -5.169  -2.230 -34.024  1.00  0.00     0.058 A 
HETATM   17  C   UNL     1      -4.949  -3.581 -34.323  1.00  0.00     0.074 A 
HETATM   18 CL   UNL     1      -5.848  -4.306 -35.599  1.00  0.00    -0.081 Cl
HETATM   19  C   UNL     1      -4.012  -4.315 -33.604  1.00  0.00     0.138 A 
HETATM   20  F   UNL     1      -3.794  -5.608 -33.879  1.00  0.00    -0.204 F 
HETATM   21  C   UNL     1      -3.277  -3.712 -32.591  1.00  0.00     0.046 A 
HETATM   22  C   UNL     1      -3.489  -2.363 -32.289  1.00  0.00     0.035 A 
ENDBRANCH   3  15
BRANCH   4  23
HETATM   23  C   UNL     1      -7.204   0.018 -32.347  1.00  0.00     0.084 C 
HETATM   24  C   UNL     1      -8.109   1.073 -31.708  1.00  0.00     0.244 C 
HETATM   25  N   UNL     1      -8.413   2.005 -32.842  1.00  0.00    -0.074 N 
HETATM   26  H   UNL     1      -9.289   2.531 -32.709  1.00  0.00     0.277 HD
HETATM   27  H   UNL     1      -7.643   2.694 -32.884  1.00  0.00     0.277 HD
HETATM   28  C   UNL     1      -8.388   1.210 -34.110  1.00  0.00     0.233 C 
HETATM   29  C   UNL     1      -7.870  -0.168 -33.708  1.00  0.00     0.041 C 
ENDBRANCH   4  23
TORSDOF 4
ENDMDL
MODEL 4
REMARK VINA RESULT:      -8.2     15.707     17.428
REMARK  4 active torsions:
REMARK  status: ('A' for Active; 'I' for Inactive)
REMARK    1  A    between atoms: C_6  and  C_7 
REMARK    2  A    between atoms: C_7  and  C_8 
REMARK    3  A    between atoms: N_10  and  C_11 
REMARK    4  A    between atoms: C_19  and  C_20 
ROOT
HETATM    1  C   UNL     1      -6.208 -14.336 -36.196  1.00  0.00     0.149 A 
HETATM    2  N   UNL     1      -7.462 -14.381 -36.640  1.00  0.00    -0.150 NA
HETATM    3  N   UNL     1      -7.382 -13.807 -37.870  1.00  0.00    -0.218 N 
HETATM    4  C   UNL     1      -6.088 -13.309 -38.038  1.00  0.00     0.136 A 
HETATM    5  N   UNL     1      -5.331 -13.693 -37.020  1.00  0.00    -0.216 NA
ENDROOT
BRANCH   1   6
HETATM    6  C   UNL     1      -5.830 -14.884 -34.863  1.00  0.00     0.087 C 
BRANCH   6   7
HETATM    7  C   UNL     1      -6.624 -14.283 -33.681  1.00  0.00    -0.004 C 
HETATM    8  C   UNL     1      -5.748 -13.709 -32.551  1.00  0.00     0.032 C 
HETATM    9  C   UNL     1      -5.021 -14.785 -31.755  1.00  0.00     0.234 C 
HETATM   10  N   UNL     1      -6.034 -15.753 -31.193  1.00  0.00    -0.075 N 
HETATM   11  C   UNL     1      -5.382 -16.781 -30.302  1.00  0.00     0.269 C 
HETATM   12  H   UNL     1      -6.665 -15.216 -30.579  1.00  0.00     0.279 HD
HETATM   13  C   UNL     1      -6.885 -16.400 -32.255  1.00  0.00     0.234 C 
HETATM   14  C   UNL     1      -7.588 -15.324 -33.080  1.00  0.00     0.032 C 
ENDBRANCH   6   7
ENDBRANCH   1   6
BRANCH   3  15
HETATM   15  C   UNL     1      -8.520 -13.808 -38.724  1.00  0.00     0.062 A 
HETATM   16  C   UNL     1      -9.122 -12.623 -39.162  1.00  0.00     0.058 A 
HETATM   17  C   UNL     1     -10.241 -12.674 -40.004  1.00  0.00     0.074 A 
HETATM   18 CL   UNL     1     -10.958 -11.197 -40.521  1.00  0.00    -0.081 Cl
HETATM   19  C   UNL     1     -10.752 -13.899 -40.419  1.00  0.00     0.138 A 
HETATM   20  F   UNL     1     -11.822 -13.960 -41.222  1.00  0.00    -0.204 F 
HETATM   21  C   UNL     1     -10.149 -15.083 -40.012  1.00  0.00     0.046 A 
HETATM   22  C   UNL     1      -9.031 -15.040 -39.174  1.00  0.00     0.035 A 
ENDBRANCH   3  15
BRANCH   4  23
HETATM   23  C   UNL     1      -5.621 -12.364 -39.110  1.00  0.00     0.084 C 
HETATM   24  C   UNL     1      -4.151 -11.988 -38.911  1.00  0.00     0.244 C 
HETATM   25  N   UNL     1      -3.410 -13.174 -39.451  1.00  0.00    -0.074 N 
HETATM   26  H   UNL     1      -2.452 -12.949 -39.754  1.00  0.00     0.277 HD
HETATM   27  H   UNL     1      -3.337 -13.863 -38.682  1.00  0.00     0.277 HD
HETATM   28  C   UNL     1      -4.246 -13.783 -40.535  1.00  0.00     0.233 C 
HETATM   29  C   UNL     1      -5.577 -13.038 -40.480  1.00  0.00     0.041 C 
ENDBRANCH   4  23
TORSDOF 4
ENDMDL
MODEL 5
REMARK VINA RESULT:      -8.1      3.451      6.204
REMARK  4 active torsions:
REMARK  status: ('A' for Active; 'I' for Inactive)
REMARK    1  A    between atoms: C_6  and  C_7 
REMARK    2  A    between atoms: C_7  and  C_8 
REMARK    3  A    between atoms: N_10  and  C_11 
REMARK    4  A    between atoms: C_19  and  C_20 
ROOT
HETATM    1  C   UNL     1      -9.195   0.775 -32.946  1.00  0.00     0.149 A 
HETATM    2  N   UNL     1      -8.599  -0.168 -33.673  1.00  0.00    -0.150 NA
HETATM    3  N   UNL     1      -7.331  -0.188 -33.185  1.00  0.00    -0.218 N 
HETATM    4  C   UNL     1      -7.193   0.865 -32.277  1.00  0.00     0.136 A 
HETATM    5  N   UNL     1      -8.375   1.430 -32.075  1.00  0.00    -0.216 NA
ENDROOT
BRANCH   1   6
HETATM    6  C   UNL     1     -10.631   1.122 -33.141  1.00  0.00     0.087 C 
BRANCH   6   7
HETATM    7  C   UNL     1     -10.951   1.750 -34.517  1.00  0.00    -0.004 C 
HETATM    8  C   UNL     1     -10.473   3.204 -34.682  1.00  0.00     0.032 C 
HETATM    9  C   UNL     1     -11.269   4.194 -33.840  1.00  0.00     0.234 C 
HETATM   10  N   UNL     1     -12.732   4.079 -34.197  1.00  0.00    -0.075 N 
HETATM   11  C   UNL     1     -13.559   5.112 -33.473  1.00  0.00     0.269 C 
HETATM   12  H   UNL     1     -12.822   4.304 -35.198  1.00  0.00     0.279 HD
HETATM   13  C   UNL     1     -13.281   2.690 -33.996  1.00  0.00     0.234 C 
HETATM   14  C   UNL     1     -12.462   1.689 -34.811  1.00  0.00     0.032 C 
ENDBRANCH   6   7
ENDBRANCH   1   6
BRANCH   3  15
HETATM   15  C   UNL     1      -6.421  -1.189 -33.626  1.00  0.00     0.062 A 
HETATM   16  C   UNL     1      -6.851  -2.343 -34.292  1.00  0.00     0.058 A 
HETATM   17  C   UNL     1      -5.917  -3.301 -34.709  1.00  0.00     0.074 A 
HETATM   18 CL   UNL     1      -6.480  -4.710 -35.522  1.00  0.00    -0.081 Cl
HETATM   19  C   UNL     1      -4.559  -3.106 -34.476  1.00  0.00     0.138 A 
HETATM   20  F   UNL     1      -3.657  -4.016 -34.868  1.00  0.00    -0.204 F 
HETATM   21  C   UNL     1      -4.117  -1.954 -33.838  1.00  0.00     0.046 A 
HETATM   22  C   UNL     1      -5.043  -0.992 -33.422  1.00  0.00     0.035 A 
ENDBRANCH   3  15
BRANCH   4  23
HETATM   23  C   UNL     1      -5.908   1.397 -31.705  1.00  0.00     0.084 C 
HETATM   24  C   UNL     1      -6.164   2.620 -30.822  1.00  0.00     0.244 C 
HETATM   25  N   UNL     1      -6.644   2.026 -29.532  1.00  0.00    -0.074 N 
HETATM   26  H   UNL     1      -6.493   2.643 -28.721  1.00  0.00     0.277 HD
HETATM   27  H   UNL     1      -7.664   1.881 -29.624  1.00  0.00     0.277 HD
HETATM   28  C   UNL     1      -6.001   0.681 -29.379  1.00  0.00     0.233 C 
HETATM   29  C   UNL     1      -5.288   0.426 -30.704  1.00  0.00     0.041 C 
ENDBRANCH   4  23
TORSDOF 4
ENDMDL
MODEL 6
REMARK VINA RESULT:      -7.7      2.133      2.702
REMARK  4 active torsions:
REMARK  status: ('A' for Active; 'I' for Inactive)
REMARK    1  A    between atoms: C_6  and  C_7 
REMARK    2  A    between atoms: C_7  and  C_8 
REMARK    3  A    between atoms: N_10  and  C_11 
REMARK    4  A    between atoms: C_19  and  C_20 
ROOT
HETATM    1  C   UNL     1      -5.694   2.199 -33.026  1.00  0.00     0.149 A 
HETATM    2  N   UNL     1      -4.993   1.069 -33.072  1.00  0.00    -0.150 NA
HETATM    3  N   UNL     1      -5.928   0.129 -33.370  1.00  0.00    -0.218 N 
HETATM    4  C   UNL     1      -7.186   0.737 -33.341  1.00  0.00     0.136 A 
HETATM    5  N   UNL     1      -7.040   2.046 -33.190  1.00  0.00    -0.216 NA
ENDROOT
BRANCH   1   6
HETATM    6  C   UNL     1      -5.047   3.510 -32.739  1.00  0.00     0.087 C 
BRANCH   6   7
HETATM    7  C   UNL     1      -4.328   3.579 -31.373  1.00  0.00    -0.004 C 
HETATM    8  C   UNL     1      -5.220   3.238 -30.165  1.00  0.00     0.032 C 
HETATM    9  C   UNL     1      -6.266   4.307 -29.874  1.00  0.00     0.234 C 
HETATM   10  N   UNL     1      -5.571   5.630 -29.657  1.00  0.00    -0.075 N 
HETATM   11  C   UNL     1      -6.548   6.708 -29.257  1.00  0.00     0.269 C 
HETATM   12  H   UNL     1      -4.940   5.516 -28.851  1.00  0.00     0.279 HD
HETATM   13  C   UNL     1      -4.728   6.055 -30.832  1.00  0.00     0.234 C 
HETATM   14  C   UNL     1      -3.701   4.969 -31.150  1.00  0.00     0.032 C 
ENDBRANCH   6   7
ENDBRANCH   1   6
BRANCH   3  15
HETATM   15  C   UNL     1      -5.523  -1.206 -33.649  1.00  0.00     0.062 A 
HETATM   16  C   UNL     1      -6.295  -2.068 -34.437  1.00  0.00     0.058 A 
HETATM   17  C   UNL     1      -5.854  -3.375 -34.685  1.00  0.00     0.074 A 
HETATM   18 CL   UNL     1      -6.828  -4.410 -35.655  1.00  0.00    -0.081 Cl
HETATM   19  C   UNL     1      -4.644  -3.819 -34.160  1.00  0.00     0.138 A 
HETATM   20  F   UNL     1      -4.213  -5.067 -34.389  1.00  0.00    -0.204 F 
HETATM   21  C   UNL     1      -3.857  -2.966 -33.397  1.00  0.00     0.046 A 
HETATM   22  C   UNL     1      -4.289  -1.660 -33.148  1.00  0.00     0.035 A 
ENDBRANCH   3  15
BRANCH   4  23
HETATM   23  C   UNL     1      -8.520   0.044 -33.333  1.00  0.00     0.084 C 
HETATM   24  C   UNL     1      -9.197   0.166 -31.966  1.00  0.00     0.244 C 
HETATM   25  N   UNL     1      -9.770   1.551 -31.983  1.00  0.00    -0.074 N 
HETATM   26  H   UNL     1     -10.566   1.667 -31.339  1.00  0.00     0.277 HD
HETATM   27  H   UNL     1      -9.022   2.193 -31.669  1.00  0.00     0.277 HD
HETATM   28  C   UNL     1     -10.103   1.893 -33.402  1.00  0.00     0.233 C 
HETATM   29  C   UNL     1      -9.530   0.749 -34.235  1.00  0.00     0.041 C 
ENDBRANCH   4  23
TORSDOF 4
ENDMDL
MODEL 7
REMARK VINA RESULT:      -7.6      4.604      7.701
REMARK  4 active torsions:
REMARK  status: ('A' for Active; 'I' for Inactive)
REMARK    1  A    between atoms: C_6  and  C_7 
REMARK    2  A    between atoms: C_7  and  C_8 
REMARK    3  A    between atoms: N_10  and  C_11 
REMARK    4  A    between atoms: C_19  and  C_20 
ROOT
HETATM    1  C   UNL     1      -7.311   0.365 -32.559  1.00  0.00     0.149 A 
HETATM    2  N   UNL     1      -8.375   0.475 -33.349  1.00  0.00    -0.150 NA
HETATM    3  N   UNL     1      -8.905   1.677 -33.000  1.00  0.00    -0.218 N 
HETATM    4  C   UNL     1      -8.200   2.163 -31.897  1.00  0.00     0.136 A 
HETATM    5  N   UNL     1      -7.161   1.378 -31.656  1.00  0.00    -0.216 NA
ENDROOT
BRANCH   1   6
HETATM    6  C   UNL     1      -6.409  -0.820 -32.620  1.00  0.00     0.087 C 
BRANCH   6   7
HETATM    7  C   UNL     1      -5.494  -0.858 -33.864  1.00  0.00    -0.004 C 
HETATM    8  C   UNL     1      -5.878  -1.924 -34.906  1.00  0.00     0.032 C 
HETATM    9  C   UNL     1      -5.604  -3.347 -34.434  1.00  0.00     0.234 C 
HETATM   10  N   UNL     1      -4.144  -3.473 -34.069  1.00  0.00    -0.075 N 
HETATM   11  C   UNL     1      -3.788  -4.890 -33.697  1.00  0.00     0.269 C 
HETATM   12  H   UNL     1      -3.597  -3.263 -34.917  1.00  0.00     0.279 HD
HETATM   13  C   UNL     1      -3.716  -2.496 -33.004  1.00  0.00     0.234 C 
HETATM   14  C   UNL     1      -4.022  -1.070 -33.458  1.00  0.00     0.032 C 
ENDBRANCH   6   7
ENDBRANCH   1   6
BRANCH   3  15
HETATM   15  C   UNL     1      -9.992   2.212 -33.746  1.00  0.00     0.062 A 
HETATM   16  C   UNL     1     -11.260   1.616 -33.745  1.00  0.00     0.058 A 
HETATM   17  C   UNL     1     -12.300   2.181 -34.495  1.00  0.00     0.074 A 
HETATM   18 CL   UNL     1     -13.845   1.422 -34.474  1.00  0.00    -0.081 Cl
HETATM   19  C   UNL     1     -12.085   3.340 -35.234  1.00  0.00     0.138 A 
HETATM   20  F   UNL     1     -13.071   3.888 -35.956  1.00  0.00    -0.204 F 
HETATM   21  C   UNL     1     -10.839   3.954 -35.224  1.00  0.00     0.046 A 
HETATM   22  C   UNL     1      -9.797   3.399 -34.476  1.00  0.00     0.035 A 
ENDBRANCH   3  15
BRANCH   4  23
HETATM   23  C   UNL     1      -8.601   3.307 -31.006  1.00  0.00     0.084 C 
HETATM   24  C   UNL     1      -7.771   3.321 -29.721  1.00  0.00     0.244 C 
HETATM   25  N   UNL     1      -6.474   3.937 -30.149  1.00  0.00    -0.074 N 
HETATM   26  H   UNL     1      -5.958   4.375 -29.372  1.00  0.00     0.277 HD
HETATM   27  H   UNL     1      -5.883   3.174 -30.521  1.00  0.00     0.277 HD
HETATM   28  C   UNL     1      -6.764   4.883 -31.274  1.00  0.00     0.233 C 
HETATM   29  C   UNL     1      -8.233   4.657 -31.618  1.00  0.00     0.041 C 
ENDBRANCH   4  23
TORSDOF 4
ENDMDL
MODEL 8
REMARK VINA RESULT:      -7.5      4.210      8.378
REMARK  4 active torsions:
REMARK  status: ('A' for Active; 'I' for Inactive)
REMARK    1  A    between atoms: C_6  and  C_7 
REMARK    2  A    between atoms: C_7  and  C_8 
REMARK    3  A    between atoms: N_10  and  C_11 
REMARK    4  A    between atoms: C_19  and  C_20 
ROOT
HETATM    1  C   UNL     1      -9.794   1.465 -33.617  1.00  0.00     0.149 A 
HETATM    2  N   UNL     1      -9.207   2.566 -33.154  1.00  0.00    -0.150 NA
HETATM    3  N   UNL     1      -7.927   2.452 -33.597  1.00  0.00    -0.218 N 
HETATM    4  C   UNL     1      -7.778   1.195 -34.187  1.00  0.00     0.136 A 
HETATM    5  N   UNL     1      -8.959   0.598 -34.260  1.00  0.00    -0.216 NA
ENDROOT
BRANCH   1   6
HETATM    6  C   UNL     1     -11.237   1.186 -33.372  1.00  0.00     0.087 C 
BRANCH   6   7
HETATM    7  C   UNL     1     -12.191   1.808 -34.418  1.00  0.00    -0.004 C 
HETATM    8  C   UNL     1     -12.723   3.203 -34.044  1.00  0.00     0.032 C 
HETATM    9  C   UNL     1     -13.715   3.174 -32.887  1.00  0.00     0.234 C 
HETATM   10  N   UNL     1     -14.858   2.253 -33.241  1.00  0.00    -0.075 N 
HETATM   11  C   UNL     1     -15.928   2.267 -32.177  1.00  0.00     0.269 C 
HETATM   12  H   UNL     1     -15.306   2.631 -34.088  1.00  0.00     0.279 HD
HETATM   13  C   UNL     1     -14.410   0.849 -33.556  1.00  0.00     0.234 C 
HETATM   14  C   UNL     1     -13.388   0.877 -34.692  1.00  0.00     0.032 C 
ENDBRANCH   6   7
ENDBRANCH   1   6
BRANCH   3  15
HETATM   15  C   UNL     1      -7.019   3.533 -33.417  1.00  0.00     0.062 A 
HETATM   16  C   UNL     1      -6.001   3.810 -34.337  1.00  0.00     0.058 A 
HETATM   17  C   UNL     1      -5.132   4.887 -34.118  1.00  0.00     0.074 A 
HETATM   18 CL   UNL     1      -3.889   5.197 -35.268  1.00  0.00    -0.081 Cl
HETATM   19  C   UNL     1      -5.281   5.691 -32.993  1.00  0.00     0.138 A 
HETATM   20  F   UNL     1      -4.454   6.722 -32.772  1.00  0.00    -0.204 F 
HETATM   21  C   UNL     1      -6.301   5.442 -32.085  1.00  0.00     0.046 A 
HETATM   22  C   UNL     1      -7.175   4.372 -32.299  1.00  0.00     0.035 A 
ENDBRANCH   3  15
BRANCH   4  23
HETATM   23  C   UNL     1      -6.485   0.525 -34.563  1.00  0.00     0.084 C 
HETATM   24  C   UNL     1      -5.641   0.222 -33.322  1.00  0.00     0.244 C 
HETATM   25  N   UNL     1      -6.273  -1.018 -32.765  1.00  0.00    -0.074 N 
HETATM   26  H   UNL     1      -5.629  -1.574 -32.184  1.00  0.00     0.277 HD
HETATM   27  H   UNL     1      -7.054  -0.716 -32.158  1.00  0.00     0.277 HD
HETATM   28  C   UNL     1      -6.853  -1.792 -33.909  1.00  0.00     0.233 C 
HETATM   29  C   UNL     1      -6.714  -0.877 -35.122  1.00  0.00     0.041 C 
ENDBRANCH   4  23
TORSDOF 4
ENDMDL
MODEL 9
REMARK VINA RESULT:      -7.4      3.808      7.536
REMARK  4 active torsions:
REMARK  status: ('A' for Active; 'I' for Inactive)
REMARK    1  A    between atoms: C_6  and  C_7 
REMARK    2  A    between atoms: C_7  and  C_8 
REMARK    3  A    between atoms: N_10  and  C_11 
REMARK    4  A    between atoms: C_19  and  C_20 
ROOT
HETATM    1  C   UNL     1      -5.041   2.960 -32.531  1.00  0.00     0.149 A 
HETATM    2  N   UNL     1      -3.792   3.372 -32.733  1.00  0.00    -0.150 NA
HETATM    3  N   UNL     1      -3.712   4.511 -31.995  1.00  0.00    -0.218 N 
HETATM    4  C   UNL     1      -4.986   4.803 -31.501  1.00  0.00     0.136 A 
HETATM    5  N   UNL     1      -5.807   3.802 -31.779  1.00  0.00    -0.216 NA
ENDROOT
BRANCH   1   6
HETATM    6  C   UNL     1      -5.562   1.711 -33.153  1.00  0.00     0.087 C 
BRANCH   6   7
HETATM    7  C   UNL     1      -5.551   0.482 -32.216  1.00  0.00    -0.004 C 
HETATM    8  C   UNL     1      -4.278  -0.379 -32.309  1.00  0.00     0.032 C 
HETATM    9  C   UNL     1      -4.171  -1.149 -33.620  1.00  0.00     0.234 C 
HETATM   10  N   UNL     1      -5.400  -2.010 -33.788  1.00  0.00    -0.075 N 
HETATM   11  C   UNL     1      -5.303  -2.879 -35.017  1.00  0.00     0.269 C 
HETATM   12  H   UNL     1      -5.430  -2.661 -32.990  1.00  0.00     0.279 HD
HETATM   13  C   UNL     1      -6.683  -1.218 -33.770  1.00  0.00     0.234 C 
HETATM   14  C   UNL     1      -6.776  -0.417 -32.472  1.00  0.00     0.032 C 
ENDBRANCH   6   7
ENDBRANCH   1   6
BRANCH   3  15
HETATM   15  C   UNL     1      -2.459   5.169 -31.845  1.00  0.00     0.062 A 
HETATM   16  C   UNL     1      -1.465   4.687 -30.985  1.00  0.00     0.058 A 
HETATM   17  C   UNL     1      -0.245   5.368 -30.872  1.00  0.00     0.074 A 
HETATM   18 CL   UNL     1       0.954   4.751 -29.803  1.00  0.00    -0.081 Cl
HETATM   19  C   UNL     1      -0.011   6.518 -31.619  1.00  0.00     0.138 A 
HETATM   20  F   UNL     1       1.150   7.179 -31.518  1.00  0.00    -0.204 F 
HETATM   21  C   UNL     1      -0.980   6.993 -32.495  1.00  0.00     0.046 A 
HETATM   22  C   UNL     1      -2.198   6.316 -32.616  1.00  0.00     0.035 A 
ENDBRANCH   3  15
BRANCH   4  23
HETATM   23  C   UNL     1      -5.433   6.095 -30.874  1.00  0.00     0.084 C 
HETATM   24  C   UNL     1      -6.939   6.085 -30.606  1.00  0.00     0.244 C 
HETATM   25  N   UNL     1      -7.064   5.280 -29.348  1.00  0.00    -0.074 N 
HETATM   26  H   UNL     1      -7.922   5.489 -28.817  1.00  0.00     0.277 HD
HETATM   27  H   UNL     1      -7.108   4.285 -29.626  1.00  0.00     0.277 HD
HETATM   28  C   UNL     1      -5.813   5.478 -28.549  1.00  0.00     0.233 C 
HETATM   29  C   UNL     1      -4.876   6.263 -29.463  1.00  0.00     0.041 C 
ENDBRANCH   4  23
TORSDOF 4
ENDMDL
MODEL 10
REMARK VINA RESULT:      -7.4      2.600      6.732
REMARK  4 active torsions:
REMARK  status: ('A' for Active; 'I' for Inactive)
REMARK    1  A    between atoms: C_6  and  C_7 
REMARK    2  A    between atoms: C_7  and  C_8 
REMARK    3  A    between atoms: N_10  and  C_11 
REMARK    4  A    between atoms: C_19  and  C_20 
ROOT
HETATM    1  C   UNL     1      -8.686   2.107 -32.730  1.00  0.00     0.149 A 
HETATM    2  N   UNL     1      -8.084   0.920 -32.717  1.00  0.00    -0.150 NA
HETATM    3  N   UNL     1      -6.766   1.233 -32.832  1.00  0.00    -0.218 N 
HETATM    4  C   UNL     1      -6.660   2.607 -33.059  1.00  0.00     0.136 A 
HETATM    5  N   UNL     1      -7.853   3.169 -32.932  1.00  0.00    -0.216 NA
ENDROOT
BRANCH   1   6
HETATM    6  C   UNL     1     -10.165   2.236 -32.609  1.00  0.00     0.087 C 
BRANCH   6   7
HETATM    7  C   UNL     1     -10.880   2.611 -33.927  1.00  0.00    -0.004 C 
HETATM    8  C   UNL     1     -11.946   3.713 -33.782  1.00  0.00     0.032 C 
HETATM    9  C   UNL     1     -13.186   3.249 -33.028  1.00  0.00     0.234 C 
HETATM   10  N   UNL     1     -13.768   2.044 -33.728  1.00  0.00    -0.075 N 
HETATM   11  C   UNL     1     -15.061   1.605 -33.089  1.00  0.00     0.269 C 
HETATM   12  H   UNL     1     -14.017   2.336 -34.685  1.00  0.00     0.279 HD
HETATM   13  C   UNL     1     -12.792   0.902 -33.847  1.00  0.00     0.234 C 
HETATM   14  C   UNL     1     -11.532   1.372 -34.571  1.00  0.00     0.032 C 
ENDBRANCH   6   7
ENDBRANCH   1   6
BRANCH   3  15
HETATM   15  C   UNL     1      -5.785   0.210 -32.707  1.00  0.00     0.062 A 
HETATM   16  C   UNL     1      -5.614  -0.779 -33.684  1.00  0.00     0.058 A 
HETATM   17  C   UNL     1      -4.632  -1.765 -33.518  1.00  0.00     0.074 A 
HETATM   18 CL   UNL     1      -4.450  -2.967 -34.736  1.00  0.00    -0.081 Cl
HETATM   19  C   UNL     1      -3.817  -1.762 -32.391  1.00  0.00     0.138 A 
HETATM   20  F   UNL     1      -2.877  -2.702 -32.220  1.00  0.00    -0.204 F 
HETATM   21  C   UNL     1      -3.960  -0.773 -31.426  1.00  0.00     0.046 A 
HETATM   22  C   UNL     1      -4.935   0.217 -31.586  1.00  0.00     0.035 A 
ENDBRANCH   3  15
BRANCH   4  23
HETATM   23  C   UNL     1      -5.436   3.351 -33.518  1.00  0.00     0.084 C 
HETATM   24  C   UNL     1      -5.805   4.727 -34.075  1.00  0.00     0.244 C 
HETATM   25  N   UNL     1      -6.009   5.559 -32.845  1.00  0.00    -0.074 N 
HETATM   26  H   UNL     1      -5.878   6.567 -33.012  1.00  0.00     0.277 HD
HETATM   27  H   UNL     1      -6.988   5.420 -32.543  1.00  0.00     0.277 HD
HETATM   28  C   UNL     1      -5.116   5.017 -31.771  1.00  0.00     0.233 C 
HETATM   29  C   UNL     1      -4.532   3.730 -32.347  1.00  0.00     0.041 C 
ENDBRANCH   4  23
TORSDOF 4
ENDMDL
