MODEL 1
REMARK VINA RESULT:      -7.9      0.000      0.000
REMARK  7 active torsions:
REMARK  status: ('A' for Active; 'I' for Inactive)
REMARK    1  A    between atoms: C_2  and  C_3 
REMARK    2  A    between atoms: C_4  and  N_5 
REMARK       I    between atoms: N_5  and  C_6 
REMARK    3  A    between atoms: C_6  and  C_7 
REMARK    4  A    between atoms: C_7  and  N_8 
REMARK    5  A    between atoms: N_12  and  C_13 
REMARK    6  A    between atoms: C_14  and  O_15 
REMARK    7  A    between atoms: C_24  and  C_25 
ROOT
HETATM    1  N   UNL     1      -2.809   6.401 -29.229  1.00  0.00    -0.325 N 
HETATM    2  C   UNL     1      -3.672   6.959 -30.154  1.00  0.00     0.248 C 
HETATM    3  O   UNL     1      -3.535   8.038 -30.729  1.00  0.00    -0.271 OA
HETATM    4  H   UNL     1      -3.230   5.819 -28.514  1.00  0.00     0.169 HD
ENDROOT
BRANCH   2   5
HETATM    5  C   UNL     1      -4.910   6.101 -30.431  1.00  0.00     0.337 C 
BRANCH   5   6
HETATM    6  N   UNL     1      -4.586   4.613 -30.450  1.00  0.00    -0.060 N 
HETATM    7  H   UNL     1      -3.975   4.448 -29.634  1.00  0.00     0.280 HD
HETATM    8  C   UNL     1      -5.816   3.728 -30.216  1.00  0.00     0.255 C 
HETATM    9  C   UNL     1      -5.398   2.245 -30.164  1.00  0.00     0.150 C 
HETATM   10  N   UNL     1      -4.645   1.865 -31.369  1.00  0.00    -0.375 N 
HETATM   11  C   UNL     1      -3.464   2.700 -31.662  1.00  0.00     0.150 C 
HETATM   12  C   UNL     1      -3.847   4.194 -31.710  1.00  0.00     0.255 C 
BRANCH  10  13
HETATM   13  C   UNL     1      -5.260   1.203 -32.438  1.00  0.00     0.064 A 
HETATM   14  C   UNL     1      -5.155  -0.207 -32.609  1.00  0.00     0.094 A 
HETATM   15  C   UNL     1      -5.759  -0.841 -33.707  1.00  0.00     0.039 A 
HETATM   16  C   UNL     1      -6.506  -0.110 -34.625  1.00  0.00     0.003 A 
HETATM   17  C   UNL     1      -6.658   1.257 -34.455  1.00  0.00     0.002 A 
HETATM   18  C   UNL     1      -6.046   1.901 -33.375  1.00  0.00     0.032 A 
BRANCH  14  19
HETATM   19  O   UNL     1      -4.458  -0.897 -31.642  1.00  0.00    -0.354 OA
HETATM   20  C   UNL     1      -3.164  -1.377 -31.992  1.00  0.00     0.210 C 
ENDBRANCH  14  19
ENDBRANCH  10  13
ENDBRANCH   5   6
ENDBRANCH   2   5
BRANCH   1  21
HETATM   21  C   UNL     1      -1.604   7.040 -28.846  1.00  0.00     0.048 A 
HETATM   22  C   UNL     1      -1.567   7.741 -27.610  1.00  0.00    -0.027 A 
HETATM   23  C   UNL     1      -0.355   8.336 -27.217  1.00  0.00     0.010 A 
HETATM   24  C   UNL     1       0.791   8.223 -27.995  1.00  0.00     0.001 A 
HETATM   25  C   UNL     1       0.750   7.516 -29.191  1.00  0.00     0.010 A 
HETATM   26  C   UNL     1      -0.438   6.911 -29.644  1.00  0.00    -0.027 A 
BRANCH  22  27
HETATM   27  C   UNL     1      -2.813   7.999 -26.760  1.00  0.00     0.013 C 
HETATM   28  C   UNL     1      -3.355   9.405 -27.042  1.00  0.00     0.015 C 
HETATM   29  C   UNL     1      -2.593   7.796 -25.256  1.00  0.00     0.015 C 
ENDBRANCH  22  27
BRANCH  26  30
HETATM   30  C   UNL     1      -0.370   6.064 -30.913  1.00  0.00     0.013 C 
HETATM   31  C   UNL     1      -0.453   6.914 -32.186  1.00  0.00     0.015 C 
HETATM   32  C   UNL     1       0.889   5.188 -30.926  1.00  0.00     0.015 C 
ENDBRANCH  26  30
ENDBRANCH   1  21
TORSDOF 7
ENDMDL
MODEL 2
REMARK VINA RESULT:      -7.9      0.095      3.093
REMARK  7 active torsions:
REMARK  status: ('A' for Active; 'I' for Inactive)
REMARK    1  A    between atoms: C_2  and  C_3 
REMARK    2  A    between atoms: C_4  and  N_5 
REMARK       I    between atoms: N_5  and  C_6 
REMARK    3  A    between atoms: C_6  and  C_7 
REMARK    4  A    between atoms: C_7  and  N_8 
REMARK    5  A    between atoms: N_12  and  C_13 
REMARK    6  A    between atoms: C_14  and  O_15 
REMARK    7  A    between atoms: C_24  and  C_25 
ROOT
HETATM    1  N   UNL     1      -2.766   6.373 -29.198  1.00  0.00    -0.325 N 
HETATM    2  C   UNL     1      -3.645   7.009 -30.056  1.00  0.00     0.248 C 
HETATM    3  O   UNL     1      -3.532   8.145 -30.514  1.00  0.00    -0.271 OA
HETATM    4  H   UNL     1      -3.172   5.711 -28.548  1.00  0.00     0.169 HD
ENDROOT
BRANCH   2   5
HETATM    5  C   UNL     1      -4.868   6.161 -30.418  1.00  0.00     0.337 C 
BRANCH   5   6
HETATM    6  N   UNL     1      -4.549   4.672 -30.440  1.00  0.00    -0.060 N 
HETATM    7  H   UNL     1      -3.936   4.503 -29.627  1.00  0.00     0.280 HD
HETATM    8  C   UNL     1      -5.782   3.791 -30.202  1.00  0.00     0.255 C 
HETATM    9  C   UNL     1      -5.368   2.307 -30.154  1.00  0.00     0.150 C 
HETATM   10  N   UNL     1      -4.620   1.926 -31.362  1.00  0.00    -0.375 N 
HETATM   11  C   UNL     1      -3.438   2.757 -31.659  1.00  0.00     0.150 C 
HETATM   12  C   UNL     1      -3.816   4.251 -31.704  1.00  0.00     0.255 C 
BRANCH  10  13
HETATM   13  C   UNL     1      -5.242   1.267 -32.430  1.00  0.00     0.064 A 
HETATM   14  C   UNL     1      -5.145  -0.144 -32.602  1.00  0.00     0.094 A 
HETATM   15  C   UNL     1      -5.755  -0.775 -33.698  1.00  0.00     0.039 A 
HETATM   16  C   UNL     1      -6.501  -0.040 -34.614  1.00  0.00     0.003 A 
HETATM   17  C   UNL     1      -6.645   1.329 -34.443  1.00  0.00     0.002 A 
HETATM   18  C   UNL     1      -6.027   1.969 -33.365  1.00  0.00     0.032 A 
BRANCH  14  19
HETATM   19  O   UNL     1      -4.449  -0.838 -31.636  1.00  0.00    -0.354 OA
HETATM   20  C   UNL     1      -3.184  -1.376 -32.008  1.00  0.00     0.210 C 
ENDBRANCH  14  19
ENDBRANCH  10  13
ENDBRANCH   5   6
ENDBRANCH   2   5
BRANCH   1  21
HETATM   21  C   UNL     1      -1.572   6.991 -28.754  1.00  0.00     0.048 A 
HETATM   22  C   UNL     1      -0.422   6.933 -29.589  1.00  0.00    -0.027 A 
HETATM   23  C   UNL     1       0.747   7.587 -29.161  1.00  0.00     0.010 A 
HETATM   24  C   UNL     1       0.780   8.300 -27.968  1.00  0.00     0.001 A 
HETATM   25  C   UNL     1      -0.356   8.370 -27.171  1.00  0.00     0.010 A 
HETATM   26  C   UNL     1      -1.552   7.724 -27.539  1.00  0.00    -0.027 A 
BRANCH  22  27
HETATM   27  C   UNL     1      -0.355   6.078 -30.855  1.00  0.00     0.013 C 
HETATM   28  C   UNL     1       0.907   5.207 -30.831  1.00  0.00     0.015 C 
HETATM   29  C   UNL     1      -0.429   6.885 -32.157  1.00  0.00     0.015 C 
ENDBRANCH  22  27
BRANCH  26  30
HETATM   30  C   UNL     1      -2.782   7.940 -26.660  1.00  0.00     0.013 C 
HETATM   31  C   UNL     1      -2.490   7.685 -25.177  1.00  0.00     0.015 C 
HETATM   32  C   UNL     1      -3.367   9.343 -26.865  1.00  0.00     0.015 C 
ENDBRANCH  26  30
ENDBRANCH   1  21
TORSDOF 7
ENDMDL
MODEL 3
REMARK VINA RESULT:      -7.6      1.960      4.205
REMARK  7 active torsions:
REMARK  status: ('A' for Active; 'I' for Inactive)
REMARK    1  A    between atoms: C_2  and  C_3 
REMARK    2  A    between atoms: C_4  and  N_5 
REMARK       I    between atoms: N_5  and  C_6 
REMARK    3  A    between atoms: C_6  and  C_7 
REMARK    4  A    between atoms: C_7  and  N_8 
REMARK    5  A    between atoms: N_12  and  C_13 
REMARK    6  A    between atoms: C_14  and  O_15 
REMARK    7  A    between atoms: C_24  and  C_25 
ROOT
HETATM    1  N   UNL     1      -3.638   4.898 -30.794  1.00  0.00    -0.325 N 
HETATM    2  C   UNL     1      -5.019   4.821 -30.774  1.00  0.00     0.248 C 
HETATM    3  O   UNL     1      -5.808   5.697 -31.125  1.00  0.00    -0.271 OA
HETATM    4  H   UNL     1      -3.147   4.376 -30.078  1.00  0.00     0.169 HD
ENDROOT
BRANCH   2   5
HETATM    5  C   UNL     1      -5.549   3.490 -30.234  1.00  0.00     0.337 C 
BRANCH   5   6
HETATM    6  N   UNL     1      -4.774   2.299 -30.780  1.00  0.00    -0.060 N 
HETATM    7  H   UNL     1      -3.830   2.364 -30.368  1.00  0.00     0.280 HD
HETATM    8  C   UNL     1      -5.328   0.952 -30.300  1.00  0.00     0.255 C 
HETATM    9  C   UNL     1      -4.445  -0.199 -30.822  1.00  0.00     0.150 C 
HETATM   10  N   UNL     1      -4.298  -0.132 -32.284  1.00  0.00    -0.375 N 
HETATM   11  C   UNL     1      -3.795   1.152 -32.808  1.00  0.00     0.150 C 
HETATM   12  C   UNL     1      -4.652   2.327 -32.295  1.00  0.00     0.255 C 
BRANCH  10  13
HETATM   13  C   UNL     1      -5.077  -0.926 -33.135  1.00  0.00     0.064 A 
HETATM   14  C   UNL     1      -4.708  -2.261 -33.465  1.00  0.00     0.094 A 
HETATM   15  C   UNL     1      -5.493  -3.025 -34.343  1.00  0.00     0.039 A 
HETATM   16  C   UNL     1      -6.670  -2.506 -34.875  1.00  0.00     0.003 A 
HETATM   17  C   UNL     1      -7.072  -1.225 -34.533  1.00  0.00     0.002 A 
HETATM   18  C   UNL     1      -6.288  -0.450 -33.674  1.00  0.00     0.032 A 
BRANCH  14  19
HETATM   19  O   UNL     1      -3.568  -2.753 -32.867  1.00  0.00    -0.354 OA
HETATM   20  C   UNL     1      -3.322  -4.151 -32.988  1.00  0.00     0.210 C 
ENDBRANCH  14  19
ENDBRANCH  10  13
ENDBRANCH   5   6
ENDBRANCH   2   5
BRANCH   1  21
HETATM   21  C   UNL     1      -2.957   6.047 -31.266  1.00  0.00     0.048 A 
HETATM   22  C   UNL     1      -2.709   6.167 -32.662  1.00  0.00    -0.027 A 
HETATM   23  C   UNL     1      -2.072   7.331 -33.128  1.00  0.00     0.010 A 
HETATM   24  C   UNL     1      -1.717   8.357 -32.260  1.00  0.00     0.001 A 
HETATM   25  C   UNL     1      -1.984   8.240 -30.902  1.00  0.00     0.010 A 
HETATM   26  C   UNL     1      -2.607   7.093 -30.373  1.00  0.00    -0.027 A 
BRANCH  22  27
HETATM   27  C   UNL     1      -2.972   5.034 -33.655  1.00  0.00     0.013 C 
HETATM   28  C   UNL     1      -1.802   4.921 -34.639  1.00  0.00     0.015 C 
HETATM   29  C   UNL     1      -4.301   5.163 -34.409  1.00  0.00     0.015 C 
ENDBRANCH  22  27
BRANCH  26  30
HETATM   30  C   UNL     1      -2.961   7.091 -28.888  1.00  0.00     0.013 C 
HETATM   31  C   UNL     1      -1.818   7.625 -28.016  1.00  0.00     0.015 C 
HETATM   32  C   UNL     1      -4.254   7.873 -28.627  1.00  0.00     0.015 C 
ENDBRANCH  26  30
ENDBRANCH   1  21
TORSDOF 7
ENDMDL
MODEL 4
REMARK VINA RESULT:      -7.4      2.456      8.367
REMARK  7 active torsions:
REMARK  status: ('A' for Active; 'I' for Inactive)
REMARK    1  A    between atoms: C_2  and  C_3 
REMARK    2  A    between atoms: C_4  and  N_5 
REMARK       I    between atoms: N_5  and  C_6 
REMARK    3  A    between atoms: C_6  and  C_7 
REMARK    4  A    between atoms: C_7  and  N_8 
REMARK    5  A    between atoms: N_12  and  C_13 
REMARK    6  A    between atoms: C_14  and  O_15 
REMARK    7  A    between atoms: C_24  and  C_25 
ROOT
HETATM    1  N   UNL     1      -7.411   1.993 -31.436  1.00  0.00    -0.325 N 
HETATM    2  C   UNL     1      -7.420   3.260 -31.993  1.00  0.00     0.248 C 
HETATM    3  O   UNL     1      -7.145   3.552 -33.156  1.00  0.00    -0.271 OA
HETATM    4  H   UNL     1      -7.176   1.936 -30.452  1.00  0.00     0.169 HD
ENDROOT
BRANCH   2   5
HETATM    5  C   UNL     1      -7.804   4.361 -31.002  1.00  0.00     0.337 C 
BRANCH   5   6
HETATM    6  N   UNL     1      -6.687   5.377 -30.808  1.00  0.00    -0.060 N 
HETATM    7  H   UNL     1      -6.958   5.941 -29.987  1.00  0.00     0.280 HD
HETATM    8  C   UNL     1      -5.349   4.732 -30.427  1.00  0.00     0.255 C 
HETATM    9  C   UNL     1      -4.291   5.823 -30.167  1.00  0.00     0.150 C 
HETATM   10  N   UNL     1      -4.177   6.734 -31.315  1.00  0.00    -0.375 N 
HETATM   11  C   UNL     1      -5.439   7.365 -31.747  1.00  0.00     0.150 C 
HETATM   12  C   UNL     1      -6.523   6.299 -32.006  1.00  0.00     0.255 C 
BRANCH  10  13
HETATM   13  C   UNL     1      -3.159   6.589 -32.266  1.00  0.00     0.064 A 
HETATM   14  C   UNL     1      -1.892   7.221 -32.114  1.00  0.00     0.094 A 
HETATM   15  C   UNL     1      -0.900   7.081 -33.097  1.00  0.00     0.039 A 
HETATM   16  C   UNL     1      -1.120   6.288 -34.219  1.00  0.00     0.003 A 
HETATM   17  C   UNL     1      -2.330   5.628 -34.367  1.00  0.00     0.002 A 
HETATM   18  C   UNL     1      -3.331   5.776 -33.403  1.00  0.00     0.032 A 
BRANCH  14  19
HETATM   19  O   UNL     1      -1.697   7.946 -30.958  1.00  0.00    -0.354 OA
HETATM   20  C   UNL     1      -0.824   7.389 -29.981  1.00  0.00     0.210 C 
ENDBRANCH  14  19
ENDBRANCH  10  13
ENDBRANCH   5   6
ENDBRANCH   2   5
BRANCH   1  21
HETATM   21  C   UNL     1      -7.088   0.842 -32.195  1.00  0.00     0.048 A 
HETATM   22  C   UNL     1      -8.095   0.261 -33.014  1.00  0.00    -0.027 A 
HETATM   23  C   UNL     1      -7.754  -0.856 -33.798  1.00  0.00     0.010 A 
HETATM   24  C   UNL     1      -6.462  -1.368 -33.803  1.00  0.00     0.001 A 
HETATM   25  C   UNL     1      -5.480  -0.778 -33.016  1.00  0.00     0.010 A 
HETATM   26  C   UNL     1      -5.764   0.333 -32.199  1.00  0.00    -0.027 A 
BRANCH  22  27
HETATM   27  C   UNL     1      -9.559   0.702 -32.974  1.00  0.00     0.013 C 
HETATM   28  C   UNL     1     -10.463  -0.510 -32.721  1.00  0.00     0.015 C 
HETATM   29  C   UNL     1     -10.015   1.463 -34.225  1.00  0.00     0.015 C 
ENDBRANCH  22  27
BRANCH  26  30
HETATM   30  C   UNL     1      -4.604   0.985 -31.450  1.00  0.00     0.013 C 
HETATM   31  C   UNL     1      -3.640  -0.049 -30.855  1.00  0.00     0.015 C 
HETATM   32  C   UNL     1      -3.852   1.974 -32.349  1.00  0.00     0.015 C 
ENDBRANCH  26  30
ENDBRANCH   1  21
TORSDOF 7
ENDMDL
MODEL 5
REMARK VINA RESULT:      -7.3      2.060      3.312
REMARK  7 active torsions:
REMARK  status: ('A' for Active; 'I' for Inactive)
REMARK    1  A    between atoms: C_2  and  C_3 
REMARK    2  A    between atoms: C_4  and  N_5 
REMARK       I    between atoms: N_5  and  C_6 
REMARK    3  A    between atoms: C_6  and  C_7 
REMARK    4  A    between atoms: C_7  and  N_8 
REMARK    5  A    between atoms: N_12  and  C_13 
REMARK    6  A    between atoms: C_14  and  O_15 
REMARK    7  A    between atoms: C_24  and  C_25 
ROOT
HETATM    1  N   UNL     1      -3.718   4.948 -30.761  1.00  0.00    -0.325 N 
HETATM    2  C   UNL     1      -5.095   4.817 -30.740  1.00  0.00     0.248 C 
HETATM    3  O   UNL     1      -5.918   5.656 -31.102  1.00  0.00    -0.271 OA
HETATM    4  H   UNL     1      -3.208   4.454 -30.038  1.00  0.00     0.169 HD
ENDROOT
BRANCH   2   5
HETATM    5  C   UNL     1      -5.573   3.473 -30.183  1.00  0.00     0.337 C 
BRANCH   5   6
HETATM    6  N   UNL     1      -4.772   2.303 -30.737  1.00  0.00    -0.060 N 
HETATM    7  H   UNL     1      -3.817   2.413 -30.361  1.00  0.00     0.280 HD
HETATM    8  C   UNL     1      -5.255   0.944 -30.216  1.00  0.00     0.255 C 
HETATM    9  C   UNL     1      -4.346  -0.180 -30.751  1.00  0.00     0.150 C 
HETATM   10  N   UNL     1      -4.254  -0.133 -32.218  1.00  0.00    -0.375 N 
HETATM   11  C   UNL     1      -3.821   1.160 -32.781  1.00  0.00     0.150 C 
HETATM   12  C   UNL     1      -4.704   2.310 -32.256  1.00  0.00     0.255 C 
BRANCH  10  13
HETATM   13  C   UNL     1      -5.031  -0.972 -33.027  1.00  0.00     0.064 A 
HETATM   14  C   UNL     1      -6.412  -0.719 -33.264  1.00  0.00     0.094 A 
HETATM   15  C   UNL     1      -7.174  -1.591 -34.057  1.00  0.00     0.039 A 
HETATM   16  C   UNL     1      -6.584  -2.697 -34.661  1.00  0.00     0.003 A 
HETATM   17  C   UNL     1      -5.231  -2.940 -34.481  1.00  0.00     0.002 A 
HETATM   18  C   UNL     1      -4.468  -2.086 -33.678  1.00  0.00     0.032 A 
BRANCH  14  19
HETATM   19  O   UNL     1      -6.938   0.421 -32.696  1.00  0.00    -0.354 OA
HETATM   20  C   UNL     1      -8.306   0.379 -32.304  1.00  0.00     0.210 C 
ENDBRANCH  14  19
ENDBRANCH  10  13
ENDBRANCH   5   6
ENDBRANCH   2   5
BRANCH   1  21
HETATM   21  C   UNL     1      -3.083   6.117 -31.248  1.00  0.00     0.048 A 
HETATM   22  C   UNL     1      -2.744   7.144 -30.325  1.00  0.00    -0.027 A 
HETATM   23  C   UNL     1      -2.075   8.282 -30.811  1.00  0.00     0.010 A 
HETATM   24  C   UNL     1      -1.723   8.396 -32.150  1.00  0.00     0.001 A 
HETATM   25  C   UNL     1      -2.039   7.377 -33.039  1.00  0.00     0.010 A 
HETATM   26  C   UNL     1      -2.721   6.219 -32.616  1.00  0.00    -0.027 A 
BRANCH  22  27
HETATM   27  C   UNL     1      -3.197   7.134 -28.864  1.00  0.00     0.013 C 
HETATM   28  C   UNL     1      -4.399   8.068 -28.684  1.00  0.00     0.015 C 
HETATM   29  C   UNL     1      -2.086   7.484 -27.866  1.00  0.00     0.015 C 
ENDBRANCH  22  27
BRANCH  26  30
HETATM   30  C   UNL     1      -2.933   5.102 -33.635  1.00  0.00     0.013 C 
HETATM   31  C   UNL     1      -4.264   5.241 -34.384  1.00  0.00     0.015 C 
HETATM   32  C   UNL     1      -1.761   5.022 -34.620  1.00  0.00     0.015 C 
ENDBRANCH  26  30
ENDBRANCH   1  21
TORSDOF 7
ENDMDL
MODEL 6
REMARK VINA RESULT:      -7.3      1.648      2.117
REMARK  7 active torsions:
REMARK  status: ('A' for Active; 'I' for Inactive)
REMARK    1  A    between atoms: C_2  and  C_3 
REMARK    2  A    between atoms: C_4  and  N_5 
REMARK       I    between atoms: N_5  and  C_6 
REMARK    3  A    between atoms: C_6  and  C_7 
REMARK    4  A    between atoms: C_7  and  N_8 
REMARK    5  A    between atoms: N_12  and  C_13 
REMARK    6  A    between atoms: C_14  and  O_15 
REMARK    7  A    between atoms: C_24  and  C_25 
ROOT
HETATM    1  N   UNL     1      -4.223   5.616 -30.683  1.00  0.00    -0.325 N 
HETATM    2  C   UNL     1      -5.156   6.005 -31.628  1.00  0.00     0.248 C 
HETATM    3  O   UNL     1      -5.351   7.147 -32.041  1.00  0.00    -0.271 OA
HETATM    4  H   UNL     1      -4.473   4.824 -30.104  1.00  0.00     0.169 HD
ENDROOT
BRANCH   2   5
HETATM    5  C   UNL     1      -6.008   4.848 -32.159  1.00  0.00     0.337 C 
BRANCH   5   6
HETATM    6  N   UNL     1      -5.431   3.490 -31.782  1.00  0.00    -0.060 N 
HETATM    7  H   UNL     1      -4.942   3.631 -30.884  1.00  0.00     0.280 HD
HETATM    8  C   UNL     1      -6.511   2.441 -31.490  1.00  0.00     0.255 C 
HETATM    9  C   UNL     1      -5.855   1.121 -31.036  1.00  0.00     0.150 C 
HETATM   10  N   UNL     1      -4.862   0.658 -32.016  1.00  0.00    -0.375 N 
HETATM   11  C   UNL     1      -3.812   1.637 -32.360  1.00  0.00     0.150 C 
HETATM   12  C   UNL     1      -4.436   2.974 -32.809  1.00  0.00     0.255 C 
BRANCH  10  13
HETATM   13  C   UNL     1      -5.170  -0.328 -32.962  1.00  0.00     0.064 A 
HETATM   14  C   UNL     1      -4.508  -1.589 -32.976  1.00  0.00     0.094 A 
HETATM   15  C   UNL     1      -4.818  -2.549 -33.952  1.00  0.00     0.039 A 
HETATM   16  C   UNL     1      -5.808  -2.303 -34.899  1.00  0.00     0.003 A 
HETATM   17  C   UNL     1      -6.497  -1.100 -34.877  1.00  0.00     0.002 A 
HETATM   18  C   UNL     1      -6.183  -0.131 -33.920  1.00  0.00     0.032 A 
BRANCH  14  19
HETATM   19  O   UNL     1      -3.580  -1.811 -31.982  1.00  0.00    -0.354 OA
HETATM   20  C   UNL     1      -3.013  -3.115 -31.902  1.00  0.00     0.210 C 
ENDBRANCH  14  19
ENDBRANCH  10  13
ENDBRANCH   5   6
ENDBRANCH   2   5
BRANCH   1  21
HETATM   21  C   UNL     1      -3.336   6.542 -30.080  1.00  0.00     0.048 A 
HETATM   22  C   UNL     1      -3.696   7.116 -28.830  1.00  0.00    -0.027 A 
HETATM   23  C   UNL     1      -2.790   8.000 -28.217  1.00  0.00     0.010 A 
HETATM   24  C   UNL     1      -1.560   8.289 -28.796  1.00  0.00     0.001 A 
HETATM   25  C   UNL     1      -1.209   7.706 -30.007  1.00  0.00     0.010 A 
HETATM   26  C   UNL     1      -2.079   6.823 -30.675  1.00  0.00    -0.027 A 
BRANCH  22  27
HETATM   27  C   UNL     1      -5.074   6.929 -28.193  1.00  0.00     0.013 C 
HETATM   28  C   UNL     1      -5.614   8.281 -27.711  1.00  0.00     0.015 C 
HETATM   29  C   UNL     1      -5.100   5.901 -27.055  1.00  0.00     0.015 C 
ENDBRANCH  22  27
BRANCH  26  30
HETATM   30  C   UNL     1      -1.572   6.144 -31.945  1.00  0.00     0.013 C 
HETATM   31  C   UNL     1      -1.395   7.131 -33.104  1.00  0.00     0.015 C 
HETATM   32  C   UNL     1      -0.270   5.379 -31.680  1.00  0.00     0.015 C 
ENDBRANCH  26  30
ENDBRANCH   1  21
TORSDOF 7
ENDMDL
MODEL 7
REMARK VINA RESULT:      -7.2      2.671      4.306
REMARK  7 active torsions:
REMARK  status: ('A' for Active; 'I' for Inactive)
REMARK    1  A    between atoms: C_2  and  C_3 
REMARK    2  A    between atoms: C_4  and  N_5 
REMARK       I    between atoms: N_5  and  C_6 
REMARK    3  A    between atoms: C_6  and  C_7 
REMARK    4  A    between atoms: C_7  and  N_8 
REMARK    5  A    between atoms: N_12  and  C_13 
REMARK    6  A    between atoms: C_14  and  O_15 
REMARK    7  A    between atoms: C_24  and  C_25 
ROOT
HETATM    1  N   UNL     1      -4.779   6.246 -31.955  1.00  0.00    -0.325 N 
HETATM    2  C   UNL     1      -5.151   5.297 -31.020  1.00  0.00     0.248 C 
HETATM    3  O   UNL     1      -4.871   5.297 -29.822  1.00  0.00    -0.271 OA
HETATM    4  H   UNL     1      -4.640   5.915 -32.902  1.00  0.00     0.169 HD
ENDROOT
BRANCH   2   5
HETATM    5  C   UNL     1      -5.979   4.151 -31.608  1.00  0.00     0.337 C 
BRANCH   5   6
HETATM    6  N   UNL     1      -5.336   2.793 -31.364  1.00  0.00    -0.060 N 
HETATM    7  H   UNL     1      -4.828   2.878 -30.469  1.00  0.00     0.280 HD
HETATM    8  C   UNL     1      -6.361   1.675 -31.137  1.00  0.00     0.255 C 
HETATM    9  C   UNL     1      -5.639   0.352 -30.814  1.00  0.00     0.150 C 
HETATM   10  N   UNL     1      -4.654   0.019 -31.855  1.00  0.00    -0.375 N 
HETATM   11  C   UNL     1      -3.657   1.069 -32.137  1.00  0.00     0.150 C 
HETATM   12  C   UNL     1      -4.348   2.410 -32.455  1.00  0.00     0.255 C 
BRANCH  10  13
HETATM   13  C   UNL     1      -4.948  -0.897 -32.873  1.00  0.00     0.064 A 
HETATM   14  C   UNL     1      -4.188  -2.087 -33.055  1.00  0.00     0.094 A 
HETATM   15  C   UNL     1      -4.487  -2.973 -34.102  1.00  0.00     0.039 A 
HETATM   16  C   UNL     1      -5.557  -2.726 -34.957  1.00  0.00     0.003 A 
HETATM   17  C   UNL     1      -6.338  -1.596 -34.772  1.00  0.00     0.002 A 
HETATM   18  C   UNL     1      -6.037  -0.698 -33.743  1.00  0.00     0.032 A 
BRANCH  14  19
HETATM   19  O   UNL     1      -3.177  -2.321 -32.149  1.00  0.00    -0.354 OA
HETATM   20  C   UNL     1      -2.940  -3.674 -31.774  1.00  0.00     0.210 C 
ENDBRANCH  14  19
ENDBRANCH  10  13
ENDBRANCH   5   6
ENDBRANCH   2   5
BRANCH   1  21
HETATM   21  C   UNL     1      -4.016   7.386 -31.603  1.00  0.00     0.048 A 
HETATM   22  C   UNL     1      -2.638   7.420 -31.955  1.00  0.00    -0.027 A 
HETATM   23  C   UNL     1      -1.898   8.575 -31.640  1.00  0.00     0.010 A 
HETATM   24  C   UNL     1      -2.495   9.671 -31.029  1.00  0.00     0.001 A 
HETATM   25  C   UNL     1      -3.846   9.636 -30.710  1.00  0.00     0.010 A 
HETATM   26  C   UNL     1      -4.637   8.503 -30.986  1.00  0.00    -0.027 A 
BRANCH  22  27
HETATM   27  C   UNL     1      -1.894   6.213 -32.527  1.00  0.00     0.013 C 
HETATM   28  C   UNL     1      -0.867   5.703 -31.510  1.00  0.00     0.015 C 
HETATM   29  C   UNL     1      -1.227   6.477 -33.883  1.00  0.00     0.015 C 
ENDBRANCH  22  27
BRANCH  26  30
HETATM   30  C   UNL     1      -6.134   8.589 -30.701  1.00  0.00     0.013 C 
HETATM   31  C   UNL     1      -6.446   8.536 -29.201  1.00  0.00     0.015 C 
HETATM   32  C   UNL     1      -6.747   9.842 -31.339  1.00  0.00     0.015 C 
ENDBRANCH  26  30
ENDBRANCH   1  21
TORSDOF 7
ENDMDL
MODEL 8
REMARK VINA RESULT:      -7.2      2.256      3.335
REMARK  7 active torsions:
REMARK  status: ('A' for Active; 'I' for Inactive)
REMARK    1  A    between atoms: C_2  and  C_3 
REMARK    2  A    between atoms: C_4  and  N_5 
REMARK       I    between atoms: N_5  and  C_6 
REMARK    3  A    between atoms: C_6  and  C_7 
REMARK    4  A    between atoms: C_7  and  N_8 
REMARK    5  A    between atoms: N_12  and  C_13 
REMARK    6  A    between atoms: C_14  and  O_15 
REMARK    7  A    between atoms: C_24  and  C_25 
ROOT
HETATM    1  N   UNL     1      -3.788   6.896 -31.304  1.00  0.00    -0.325 N 
HETATM    2  C   UNL     1      -4.727   6.022 -30.786  1.00  0.00     0.248 C 
HETATM    3  O   UNL     1      -4.502   4.957 -30.214  1.00  0.00    -0.271 OA
HETATM    4  H   UNL     1      -4.069   7.427 -32.119  1.00  0.00     0.169 HD
ENDROOT
BRANCH   2   5
HETATM    5  C   UNL     1      -6.172   6.483 -30.996  1.00  0.00     0.337 C 
BRANCH   5   6
HETATM    6  N   UNL     1      -6.979   5.490 -31.820  1.00  0.00    -0.060 N 
HETATM    7  H   UNL     1      -7.795   6.014 -32.173  1.00  0.00     0.280 HD
HETATM    8  C   UNL     1      -6.239   5.009 -33.074  1.00  0.00     0.255 C 
HETATM    9  C   UNL     1      -7.147   4.075 -33.899  1.00  0.00     0.150 C 
HETATM   10  N   UNL     1      -7.652   2.966 -33.076  1.00  0.00    -0.375 N 
HETATM   11  C   UNL     1      -8.350   3.366 -31.840  1.00  0.00     0.150 C 
HETATM   12  C   UNL     1      -7.471   4.311 -30.995  1.00  0.00     0.255 C 
BRANCH  10  13
HETATM   13  C   UNL     1      -7.056   1.699 -33.111  1.00  0.00     0.064 A 
HETATM   14  C   UNL     1      -7.773   0.543 -33.530  1.00  0.00     0.094 A 
HETATM   15  C   UNL     1      -7.159  -0.720 -33.527  1.00  0.00     0.039 A 
HETATM   16  C   UNL     1      -5.825  -0.859 -33.156  1.00  0.00     0.003 A 
HETATM   17  C   UNL     1      -5.095   0.260 -32.786  1.00  0.00     0.002 A 
HETATM   18  C   UNL     1      -5.703   1.518 -32.768  1.00  0.00     0.032 A 
BRANCH  14  19
HETATM   19  O   UNL     1      -9.072   0.737 -33.947  1.00  0.00    -0.354 OA
HETATM   20  C   UNL     1     -10.108   0.269 -33.089  1.00  0.00     0.210 C 
ENDBRANCH  14  19
ENDBRANCH  10  13
ENDBRANCH   5   6
ENDBRANCH   2   5
BRANCH   1  21
HETATM   21  C   UNL     1      -2.397   6.648 -31.202  1.00  0.00     0.048 A 
HETATM   22  C   UNL     1      -1.696   7.148 -30.070  1.00  0.00    -0.027 A 
HETATM   23  C   UNL     1      -0.324   6.860 -29.955  1.00  0.00     0.010 A 
HETATM   24  C   UNL     1       0.333   6.084 -30.902  1.00  0.00     0.001 A 
HETATM   25  C   UNL     1      -0.366   5.582 -31.993  1.00  0.00     0.010 A 
HETATM   26  C   UNL     1      -1.738   5.847 -32.171  1.00  0.00    -0.027 A 
BRANCH  22  27
HETATM   27  C   UNL     1      -2.328   8.097 -29.051  1.00  0.00     0.013 C 
HETATM   28  C   UNL     1      -1.355   9.235 -28.725  1.00  0.00     0.015 C 
HETATM   29  C   UNL     1      -2.802   7.406 -27.766  1.00  0.00     0.015 C 
ENDBRANCH  22  27
BRANCH  26  30
HETATM   30  C   UNL     1      -2.452   5.170 -33.338  1.00  0.00     0.013 C 
HETATM   31  C   UNL     1      -1.677   5.304 -34.653  1.00  0.00     0.015 C 
HETATM   32  C   UNL     1      -2.743   3.696 -33.027  1.00  0.00     0.015 C 
ENDBRANCH  26  30
ENDBRANCH   1  21
TORSDOF 7
ENDMDL
MODEL 9
REMARK VINA RESULT:      -7.2      1.957      3.794
REMARK  7 active torsions:
REMARK  status: ('A' for Active; 'I' for Inactive)
REMARK    1  A    between atoms: C_2  and  C_3 
REMARK    2  A    between atoms: C_4  and  N_5 
REMARK       I    between atoms: N_5  and  C_6 
REMARK    3  A    between atoms: C_6  and  C_7 
REMARK    4  A    between atoms: C_7  and  N_8 
REMARK    5  A    between atoms: N_12  and  C_13 
REMARK    6  A    between atoms: C_14  and  O_15 
REMARK    7  A    between atoms: C_24  and  C_25 
ROOT
HETATM    1  N   UNL     1      -2.664   5.768 -30.195  1.00  0.00    -0.325 N 
HETATM    2  C   UNL     1      -2.634   5.411 -31.531  1.00  0.00     0.248 C 
HETATM    3  O   UNL     1      -2.654   6.173 -32.496  1.00  0.00    -0.271 OA
HETATM    4  H   UNL     1      -3.117   5.117 -29.565  1.00  0.00     0.169 HD
ENDROOT
BRANCH   2   5
HETATM    5  C   UNL     1      -2.589   3.897 -31.758  1.00  0.00     0.337 C 
BRANCH   5   6
HETATM    6  N   UNL     1      -3.972   3.264 -31.694  1.00  0.00    -0.060 N 
HETATM    7  H   UNL     1      -4.536   3.880 -31.088  1.00  0.00     0.280 HD
HETATM    8  C   UNL     1      -4.694   3.262 -33.047  1.00  0.00     0.255 C 
HETATM    9  C   UNL     1      -6.115   2.684 -32.886  1.00  0.00     0.150 C 
HETATM   10  N   UNL     1      -6.078   1.355 -32.258  1.00  0.00    -0.375 N 
HETATM   11  C   UNL     1      -5.370   1.289 -30.965  1.00  0.00     0.150 C 
HETATM   12  C   UNL     1      -3.947   1.869 -31.089  1.00  0.00     0.255 C 
BRANCH  10  13
HETATM   13  C   UNL     1      -6.160   0.183 -33.021  1.00  0.00     0.064 A 
HETATM   14  C   UNL     1      -7.387  -0.257 -33.593  1.00  0.00     0.094 A 
HETATM   15  C   UNL     1      -7.446  -1.451 -34.329  1.00  0.00     0.039 A 
HETATM   16  C   UNL     1      -6.297  -2.205 -34.549  1.00  0.00     0.003 A 
HETATM   17  C   UNL     1      -5.083  -1.773 -34.039  1.00  0.00     0.002 A 
HETATM   18  C   UNL     1      -5.018  -0.595 -33.289  1.00  0.00     0.032 A 
BRANCH  14  19
HETATM   19  O   UNL     1      -8.485   0.553 -33.401  1.00  0.00    -0.354 OA
HETATM   20  C   UNL     1      -9.571   0.011 -32.655  1.00  0.00     0.210 C 
ENDBRANCH  14  19
ENDBRANCH  10  13
ENDBRANCH   5   6
ENDBRANCH   2   5
BRANCH   1  21
HETATM   21  C   UNL     1      -2.700   7.123 -29.782  1.00  0.00     0.048 A 
HETATM   22  C   UNL     1      -1.470   7.802 -29.563  1.00  0.00    -0.027 A 
HETATM   23  C   UNL     1      -1.514   9.159 -29.195  1.00  0.00     0.010 A 
HETATM   24  C   UNL     1      -2.722   9.836 -29.076  1.00  0.00     0.001 A 
HETATM   25  C   UNL     1      -3.917   9.169 -29.314  1.00  0.00     0.010 A 
HETATM   26  C   UNL     1      -3.938   7.807 -29.671  1.00  0.00    -0.027 A 
BRANCH  22  27
HETATM   27  C   UNL     1      -0.115   7.093 -29.569  1.00  0.00     0.013 C 
HETATM   28  C   UNL     1       0.835   7.774 -28.577  1.00  0.00     0.015 C 
HETATM   29  C   UNL     1       0.532   6.997 -30.956  1.00  0.00     0.015 C 
ENDBRANCH  22  27
BRANCH  26  30
HETATM   30  C   UNL     1      -5.287   7.180 -30.019  1.00  0.00     0.013 C 
HETATM   31  C   UNL     1      -6.356   7.471 -28.960  1.00  0.00     0.015 C 
HETATM   32  C   UNL     1      -5.761   7.627 -31.407  1.00  0.00     0.015 C 
ENDBRANCH  26  30
ENDBRANCH   1  21
TORSDOF 7
ENDMDL
MODEL 10
REMARK VINA RESULT:      -7.2      2.038      4.202
REMARK  7 active torsions:
REMARK  status: ('A' for Active; 'I' for Inactive)
REMARK    1  A    between atoms: C_2  and  C_3 
REMARK    2  A    between atoms: C_4  and  N_5 
REMARK       I    between atoms: N_5  and  C_6 
REMARK    3  A    between atoms: C_6  and  C_7 
REMARK    4  A    between atoms: C_7  and  N_8 
REMARK    5  A    between atoms: N_12  and  C_13 
REMARK    6  A    between atoms: C_14  and  O_15 
REMARK    7  A    between atoms: C_24  and  C_25 
ROOT
HETATM    1  N   UNL     1      -3.551   7.249 -31.280  1.00  0.00    -0.325 N 
HETATM    2  C   UNL     1      -4.513   6.441 -30.701  1.00  0.00     0.248 C 
HETATM    3  O   UNL     1      -4.315   5.480 -29.958  1.00  0.00    -0.271 OA
HETATM    4  H   UNL     1      -3.780   7.643 -32.184  1.00  0.00     0.169 HD
ENDROOT
BRANCH   2   5
HETATM    5  C   UNL     1      -5.946   6.828 -31.079  1.00  0.00     0.337 C 
BRANCH   5   6
HETATM    6  N   UNL     1      -6.626   5.760 -31.925  1.00  0.00    -0.060 N 
HETATM    7  H   UNL     1      -7.489   6.196 -32.287  1.00  0.00     0.280 HD
HETATM    8  C   UNL     1      -5.817   5.375 -33.169  1.00  0.00     0.255 C 
HETATM    9  C   UNL     1      -6.605   4.356 -34.016  1.00  0.00     0.150 C 
HETATM   10  N   UNL     1      -7.000   3.190 -33.211  1.00  0.00    -0.375 N 
HETATM   11  C   UNL     1      -7.757   3.501 -31.983  1.00  0.00     0.150 C 
HETATM   12  C   UNL     1      -7.000   4.527 -31.117  1.00  0.00     0.255 C 
BRANCH  10  13
HETATM   13  C   UNL     1      -6.269   1.996 -33.244  1.00  0.00     0.064 A 
HETATM   14  C   UNL     1      -6.660   0.898 -34.063  1.00  0.00     0.094 A 
HETATM   15  C   UNL     1      -5.924  -0.297 -34.056  1.00  0.00     0.039 A 
HETATM   16  C   UNL     1      -4.775  -0.418 -33.280  1.00  0.00     0.003 A 
HETATM   17  C   UNL     1      -4.351   0.653 -32.509  1.00  0.00     0.002 A 
HETATM   18  C   UNL     1      -5.086   1.841 -32.495  1.00  0.00     0.032 A 
BRANCH  14  19
HETATM   19  O   UNL     1      -7.768   1.085 -34.860  1.00  0.00    -0.354 OA
HETATM   20  C   UNL     1      -9.028   0.698 -34.322  1.00  0.00     0.210 C 
ENDBRANCH  14  19
ENDBRANCH  10  13
ENDBRANCH   5   6
ENDBRANCH   2   5
BRANCH   1  21
HETATM   21  C   UNL     1      -2.168   7.055 -31.044  1.00  0.00     0.048 A 
HETATM   22  C   UNL     1      -1.397   6.381 -32.031  1.00  0.00    -0.027 A 
HETATM   23  C   UNL     1      -0.016   6.230 -31.809  1.00  0.00     0.010 A 
HETATM   24  C   UNL     1       0.594   6.749 -30.673  1.00  0.00     0.001 A 
HETATM   25  C   UNL     1      -0.165   7.426 -29.726  1.00  0.00     0.010 A 
HETATM   26  C   UNL     1      -1.554   7.596 -29.885  1.00  0.00    -0.027 A 
BRANCH  22  27
HETATM   27  C   UNL     1      -2.018   5.691 -33.246  1.00  0.00     0.013 C 
HETATM   28  C   UNL     1      -2.303   4.220 -32.922  1.00  0.00     0.015 C 
HETATM   29  C   UNL     1      -1.179   5.809 -34.525  1.00  0.00     0.015 C 
ENDBRANCH  22  27
BRANCH  26  30
HETATM   30  C   UNL     1      -2.294   8.443 -28.852  1.00  0.00     0.013 C 
HETATM   31  C   UNL     1      -2.575   7.671 -27.558  1.00  0.00     0.015 C 
HETATM   32  C   UNL     1      -1.533   9.741 -28.556  1.00  0.00     0.015 C 
ENDBRANCH  26  30
ENDBRANCH   1  21
TORSDOF 7
ENDMDL
