MODEL 1
REMARK VINA RESULT:      -8.7      0.000      0.000
REMARK  7 active torsions:
REMARK  status: ('A' for Active; 'I' for Inactive)
REMARK    1  A    between atoms: C_3  and  O_4 
REMARK    2  A    between atoms: O_4  and  C_5 
REMARK    3  A    between atoms: C_5  and  C_6 
REMARK       I    between atoms: C_6  and  N_7 
REMARK    4  A    between atoms: N_7  and  C_8 
REMARK    5  A    between atoms: C_9  and  C_10 
REMARK       I    between atoms: C_10  and  N_11 
REMARK    6  A    between atoms: N_11  and  C_12 
REMARK    7  A    between atoms: C_12  and  C_13 
ROOT
HETATM    1  C   UNL     1      -4.844  -2.452 -33.970  1.00  0.00     0.050 A 
HETATM    2  C   UNL     1      -6.183  -2.028 -34.096  1.00  0.00     0.058 A 
HETATM    3  C   UNL     1      -7.167  -2.896 -34.599  1.00  0.00     0.019 A 
HETATM    4  C   UNL     1      -6.827  -4.182 -35.008  1.00  0.00     0.001 A 
HETATM    5  C   UNL     1      -5.507  -4.604 -34.911  1.00  0.00     0.002 A 
HETATM    6  C   UNL     1      -4.526  -3.749 -34.394  1.00  0.00     0.030 A 
ENDROOT
BRANCH   1   7
HETATM    7  N   UNL     1      -3.880  -1.611 -33.348  1.00  0.00    -0.324 N 
HETATM    8  C   UNL     1      -3.180  -1.882 -32.178  1.00  0.00     0.246 C 
HETATM    9  O   UNL     1      -3.101  -2.990 -31.652  1.00  0.00    -0.271 OA
HETATM   10  H   UNL     1      -3.684  -0.733 -33.813  1.00  0.00     0.169 HD
BRANCH   8  11
HETATM   11  C   UNL     1      -2.472  -0.649 -31.602  1.00  0.00     0.278 C 
BRANCH  11  12
HETATM   12  O   UNL     1      -3.399   0.040 -30.773  1.00  0.00    -0.342 OA
BRANCH  12  13
HETATM   13  C   UNL     1      -3.945   1.204 -31.237  1.00  0.00     0.075 A 
HETATM   14  C   UNL     1      -5.197   1.545 -30.688  1.00  0.00    -0.029 A 
HETATM   15  C   UNL     1      -5.854   0.663 -29.662  1.00  0.00     0.051 C 
HETATM   16  C   UNL     1      -5.821   2.738 -31.080  1.00  0.00     0.009 A 
HETATM   17  C   UNL     1      -5.217   3.576 -32.015  1.00  0.00     0.001 A 
HETATM   18  C   UNL     1      -3.983   3.231 -32.562  1.00  0.00     0.003 A 
HETATM   19  C   UNL     1      -3.344   2.051 -32.172  1.00  0.00     0.037 A 
ENDBRANCH  12  13
ENDBRANCH  11  12
ENDBRANCH   8  11
ENDBRANCH   1   7
BRANCH   2  20
HETATM   20  C   UNL     1      -6.642  -0.662 -33.738  1.00  0.00     0.254 C 
HETATM   21  N   UNL     1      -7.830  -0.594 -33.043  1.00  0.00    -0.353 N 
HETATM   22  H   UNL     1      -8.207  -1.452 -32.653  1.00  0.00     0.163 HD
HETATM   23  O   UNL     1      -5.967   0.317 -34.031  1.00  0.00    -0.268 OA
BRANCH  21  24
HETATM   24  C   UNL     1      -8.301   0.657 -32.485  1.00  0.00     0.162 C 
BRANCH  24  25
HETATM   25  C   UNL     1      -9.520   1.135 -33.216  1.00  0.00    -0.023 A 
HETATM   26  C   UNL     1      -9.485   2.321 -33.943  1.00  0.00     0.125 A 
HETATM   27  N   UNL     1     -10.529   2.813 -34.645  1.00  0.00    -0.273 NA
HETATM   28  C   UNL     1     -11.683   2.113 -34.582  1.00  0.00     0.116 A 
HETATM   29  C   UNL     1     -11.830   0.934 -33.870  1.00  0.00     0.020 A 
HETATM   30  C   UNL     1     -10.726   0.434 -33.183  1.00  0.00     0.012 A 
ENDBRANCH  24  25
ENDBRANCH  21  24
ENDBRANCH   2  20
TORSDOF 7
ENDMDL
MODEL 2
REMARK VINA RESULT:      -8.6      1.687      5.385
REMARK  7 active torsions:
REMARK  status: ('A' for Active; 'I' for Inactive)
REMARK    1  A    between atoms: C_3  and  O_4 
REMARK    2  A    between atoms: O_4  and  C_5 
REMARK    3  A    between atoms: C_5  and  C_6 
REMARK       I    between atoms: C_6  and  N_7 
REMARK    4  A    between atoms: N_7  and  C_8 
REMARK    5  A    between atoms: C_9  and  C_10 
REMARK       I    between atoms: C_10  and  N_11 
REMARK    6  A    between atoms: N_11  and  C_12 
REMARK    7  A    between atoms: C_12  and  C_13 
ROOT
HETATM    1  C   UNL     1      -3.944   2.429 -32.248  1.00  0.00     0.050 A 
HETATM    2  C   UNL     1      -4.908   3.277 -31.663  1.00  0.00     0.058 A 
HETATM    3  C   UNL     1      -4.810   4.673 -31.794  1.00  0.00     0.019 A 
HETATM    4  C   UNL     1      -3.741   5.241 -32.480  1.00  0.00     0.001 A 
HETATM    5  C   UNL     1      -2.772   4.417 -33.040  1.00  0.00     0.002 A 
HETATM    6  C   UNL     1      -2.875   3.025 -32.928  1.00  0.00     0.030 A 
ENDROOT
BRANCH   1   7
HETATM    7  N   UNL     1      -4.116   1.018 -32.216  1.00  0.00    -0.324 N 
HETATM    8  C   UNL     1      -3.254   0.093 -31.638  1.00  0.00     0.246 C 
HETATM    9  O   UNL     1      -2.353   0.375 -30.852  1.00  0.00    -0.271 OA
HETATM   10  H   UNL     1      -4.957   0.658 -32.653  1.00  0.00     0.169 HD
BRANCH   8  11
HETATM   11  C   UNL     1      -3.553  -1.351 -32.059  1.00  0.00     0.278 C 
BRANCH  11  12
HETATM   12  O   UNL     1      -3.986  -1.334 -33.413  1.00  0.00    -0.342 OA
BRANCH  12  13
HETATM   13  C   UNL     1      -4.668  -2.417 -33.891  1.00  0.00     0.075 A 
HETATM   14  C   UNL     1      -5.970  -2.153 -34.360  1.00  0.00    -0.029 A 
HETATM   15  C   UNL     1      -6.534  -0.759 -34.322  1.00  0.00     0.051 C 
HETATM   16  C   UNL     1      -6.734  -3.197 -34.899  1.00  0.00     0.009 A 
HETATM   17  C   UNL     1      -6.220  -4.490 -34.960  1.00  0.00     0.001 A 
HETATM   18  C   UNL     1      -4.935  -4.749 -34.487  1.00  0.00     0.003 A 
HETATM   19  C   UNL     1      -4.157  -3.716 -33.957  1.00  0.00     0.037 A 
ENDBRANCH  12  13
ENDBRANCH  11  12
ENDBRANCH   8  11
ENDBRANCH   1   7
BRANCH   2  20
HETATM   20  C   UNL     1      -6.058   2.777 -30.868  1.00  0.00     0.254 C 
HETATM   21  N   UNL     1      -7.276   3.356 -31.150  1.00  0.00    -0.353 N 
HETATM   22  H   UNL     1      -7.355   3.923 -31.989  1.00  0.00     0.163 HD
HETATM   23  O   UNL     1      -5.903   1.884 -30.046  1.00  0.00    -0.268 OA
BRANCH  21  24
HETATM   24  C   UNL     1      -8.502   2.844 -30.573  1.00  0.00     0.162 C 
BRANCH  24  25
HETATM   25  C   UNL     1      -9.280   2.066 -31.591  1.00  0.00    -0.023 A 
HETATM   26  C   UNL     1     -10.248   2.695 -32.368  1.00  0.00     0.125 A 
HETATM   27  N   UNL     1     -10.980   2.076 -33.320  1.00  0.00    -0.273 NA
HETATM   28  C   UNL     1     -10.771   0.750 -33.475  1.00  0.00     0.116 A 
HETATM   29  C   UNL     1      -9.849   0.025 -32.739  1.00  0.00     0.020 A 
HETATM   30  C   UNL     1      -9.086   0.698 -31.787  1.00  0.00     0.012 A 
ENDBRANCH  24  25
ENDBRANCH  21  24
ENDBRANCH   2  20
TORSDOF 7
ENDMDL
MODEL 3
REMARK VINA RESULT:      -8.5      1.910      3.004
REMARK  7 active torsions:
REMARK  status: ('A' for Active; 'I' for Inactive)
REMARK    1  A    between atoms: C_3  and  O_4 
REMARK    2  A    between atoms: O_4  and  C_5 
REMARK    3  A    between atoms: C_5  and  C_6 
REMARK       I    between atoms: C_6  and  N_7 
REMARK    4  A    between atoms: N_7  and  C_8 
REMARK    5  A    between atoms: C_9  and  C_10 
REMARK       I    between atoms: C_10  and  N_11 
REMARK    6  A    between atoms: N_11  and  C_12 
REMARK    7  A    between atoms: C_12  and  C_13 
ROOT
HETATM    1  C   UNL     1      -5.408  -0.185 -33.500  1.00  0.00     0.050 A 
HETATM    2  C   UNL     1      -6.801  -0.154 -33.724  1.00  0.00     0.058 A 
HETATM    3  C   UNL     1      -7.473  -1.281 -34.227  1.00  0.00     0.019 A 
HETATM    4  C   UNL     1      -6.766  -2.438 -34.540  1.00  0.00     0.001 A 
HETATM    5  C   UNL     1      -5.390  -2.474 -34.347  1.00  0.00     0.002 A 
HETATM    6  C   UNL     1      -4.719  -1.359 -33.829  1.00  0.00     0.030 A 
ENDROOT
BRANCH   1   7
HETATM    7  N   UNL     1      -4.757   0.915 -32.877  1.00  0.00    -0.324 N 
HETATM    8  C   UNL     1      -4.249   0.949 -31.583  1.00  0.00     0.246 C 
HETATM    9  O   UNL     1      -4.061  -0.040 -30.880  1.00  0.00    -0.271 OA
HETATM   10  H   UNL     1      -4.648   1.750 -33.441  1.00  0.00     0.169 HD
BRANCH   8  11
HETATM   11  C   UNL     1      -3.911   2.368 -31.109  1.00  0.00     0.278 C 
BRANCH  11  12
HETATM   12  O   UNL     1      -4.553   3.288 -31.982  1.00  0.00    -0.342 OA
BRANCH  12  13
HETATM   13  C   UNL     1      -3.783   3.985 -32.871  1.00  0.00     0.075 A 
HETATM   14  C   UNL     1      -4.472   4.514 -33.981  1.00  0.00    -0.029 A 
HETATM   15  C   UNL     1      -5.954   4.307 -34.139  1.00  0.00     0.051 C 
HETATM   16  C   UNL     1      -3.772   5.272 -34.931  1.00  0.00     0.009 A 
HETATM   17  C   UNL     1      -2.403   5.489 -34.790  1.00  0.00     0.001 A 
HETATM   18  C   UNL     1      -1.725   4.957 -33.696  1.00  0.00     0.003 A 
HETATM   19  C   UNL     1      -2.412   4.210 -32.735  1.00  0.00     0.037 A 
ENDBRANCH  12  13
ENDBRANCH  11  12
ENDBRANCH   8  11
ENDBRANCH   1   7
BRANCH   2  20
HETATM   20  C   UNL     1      -7.640   1.045 -33.472  1.00  0.00     0.254 C 
HETATM   21  N   UNL     1      -8.519   1.380 -34.479  1.00  0.00    -0.353 N 
HETATM   22  H   UNL     1      -8.684   0.703 -35.217  1.00  0.00     0.163 HD
HETATM   23  O   UNL     1      -7.552   1.653 -32.414  1.00  0.00    -0.268 OA
BRANCH  21  24
HETATM   24  C   UNL     1      -9.511   2.419 -34.292  1.00  0.00     0.162 C 
BRANCH  24  25
HETATM   25  C   UNL     1     -10.895   1.845 -34.351  1.00  0.00    -0.023 A 
HETATM   26  C   UNL     1     -11.842   2.375 -35.222  1.00  0.00     0.125 A 
HETATM   27  N   UNL     1     -13.102   1.907 -35.352  1.00  0.00    -0.273 NA
HETATM   28  C   UNL     1     -13.454   0.886 -34.540  1.00  0.00     0.116 A 
HETATM   29  C   UNL     1     -12.596   0.301 -33.624  1.00  0.00     0.020 A 
HETATM   30  C   UNL     1     -11.293   0.784 -33.535  1.00  0.00     0.012 A 
ENDBRANCH  24  25
ENDBRANCH  21  24
ENDBRANCH   2  20
TORSDOF 7
ENDMDL
MODEL 4
REMARK VINA RESULT:      -8.4      1.489      5.173
REMARK  7 active torsions:
REMARK  status: ('A' for Active; 'I' for Inactive)
REMARK    1  A    between atoms: C_3  and  O_4 
REMARK    2  A    between atoms: O_4  and  C_5 
REMARK    3  A    between atoms: C_5  and  C_6 
REMARK       I    between atoms: C_6  and  N_7 
REMARK    4  A    between atoms: N_7  and  C_8 
REMARK    5  A    between atoms: C_9  and  C_10 
REMARK       I    between atoms: C_10  and  N_11 
REMARK    6  A    between atoms: N_11  and  C_12 
REMARK    7  A    between atoms: C_12  and  C_13 
ROOT
HETATM    1  C   UNL     1      -5.547   2.061 -31.381  1.00  0.00     0.050 A 
HETATM    2  C   UNL     1      -6.932   2.105 -31.117  1.00  0.00     0.058 A 
HETATM    3  C   UNL     1      -7.506   3.216 -30.474  1.00  0.00     0.019 A 
HETATM    4  C   UNL     1      -6.707   4.278 -30.062  1.00  0.00     0.001 A 
HETATM    5  C   UNL     1      -5.338   4.236 -30.294  1.00  0.00     0.002 A 
HETATM    6  C   UNL     1      -4.765   3.140 -30.950  1.00  0.00     0.030 A 
ENDROOT
BRANCH   1   7
HETATM    7  N   UNL     1      -4.995   0.992 -32.139  1.00  0.00    -0.324 N 
HETATM    8  C   UNL     1      -4.057   0.066 -31.698  1.00  0.00     0.246 C 
HETATM    9  O   UNL     1      -3.760  -0.122 -30.521  1.00  0.00    -0.271 OA
HETATM   10  H   UNL     1      -5.329   0.898 -33.091  1.00  0.00     0.169 HD
BRANCH   8  11
HETATM   11  C   UNL     1      -3.428  -0.742 -32.841  1.00  0.00     0.278 C 
BRANCH  11  12
HETATM   12  O   UNL     1      -4.409  -0.901 -33.857  1.00  0.00    -0.342 OA
BRANCH  12  13
HETATM   13  C   UNL     1      -4.873  -2.159 -34.122  1.00  0.00     0.075 A 
HETATM   14  C   UNL     1      -6.209  -2.230 -34.565  1.00  0.00    -0.029 A 
HETATM   15  C   UNL     1      -7.034  -0.983 -34.726  1.00  0.00     0.051 C 
HETATM   16  C   UNL     1      -6.763  -3.476 -34.892  1.00  0.00     0.009 A 
HETATM   17  C   UNL     1      -6.006  -4.639 -34.767  1.00  0.00     0.001 A 
HETATM   18  C   UNL     1      -4.688  -4.565 -34.320  1.00  0.00     0.003 A 
HETATM   19  C   UNL     1      -4.120  -3.329 -34.001  1.00  0.00     0.037 A 
ENDBRANCH  12  13
ENDBRANCH  11  12
ENDBRANCH   8  11
ENDBRANCH   1   7
BRANCH   2  20
HETATM   20  C   UNL     1      -7.864   1.004 -31.468  1.00  0.00     0.254 C 
HETATM   21  N   UNL     1      -9.025   1.384 -32.106  1.00  0.00    -0.353 N 
HETATM   22  H   UNL     1      -9.086   2.331 -32.466  1.00  0.00     0.163 HD
HETATM   23  O   UNL     1      -7.572  -0.159 -31.220  1.00  0.00    -0.268 OA
BRANCH  21  24
HETATM   24  C   UNL     1      -9.935   0.400 -32.654  1.00  0.00     0.162 C 
BRANCH  24  25
HETATM   25  C   UNL     1     -10.963   1.059 -33.524  1.00  0.00    -0.023 A 
HETATM   26  C   UNL     1     -10.665   2.239 -34.197  1.00  0.00     0.125 A 
HETATM   27  N   UNL     1     -11.524   2.887 -35.014  1.00  0.00    -0.273 NA
HETATM   28  C   UNL     1     -12.762   2.358 -35.132  1.00  0.00     0.116 A 
HETATM   29  C   UNL     1     -13.167   1.201 -34.488  1.00  0.00     0.020 A 
HETATM   30  C   UNL     1     -12.249   0.537 -33.678  1.00  0.00     0.012 A 
ENDBRANCH  24  25
ENDBRANCH  21  24
ENDBRANCH   2  20
TORSDOF 7
ENDMDL
MODEL 5
REMARK VINA RESULT:      -8.4      2.685      6.067
REMARK  7 active torsions:
REMARK  status: ('A' for Active; 'I' for Inactive)
REMARK    1  A    between atoms: C_3  and  O_4 
REMARK    2  A    between atoms: O_4  and  C_5 
REMARK    3  A    between atoms: C_5  and  C_6 
REMARK       I    between atoms: C_6  and  N_7 
REMARK    4  A    between atoms: N_7  and  C_8 
REMARK    5  A    between atoms: C_9  and  C_10 
REMARK       I    between atoms: C_10  and  N_11 
REMARK    6  A    between atoms: N_11  and  C_12 
REMARK    7  A    between atoms: C_12  and  C_13 
ROOT
HETATM    1  C   UNL     1      -7.238   2.103 -31.759  1.00  0.00     0.050 A 
HETATM    2  C   UNL     1      -7.384   0.803 -32.288  1.00  0.00     0.058 A 
HETATM    3  C   UNL     1      -8.630   0.356 -32.759  1.00  0.00     0.019 A 
HETATM    4  C   UNL     1      -9.748   1.181 -32.682  1.00  0.00     0.001 A 
HETATM    5  C   UNL     1      -9.622   2.454 -32.140  1.00  0.00     0.002 A 
HETATM    6  C   UNL     1      -8.379   2.911 -31.686  1.00  0.00     0.030 A 
ENDROOT
BRANCH   1   7
HETATM    7  N   UNL     1      -5.951   2.590 -31.399  1.00  0.00    -0.324 N 
HETATM    8  C   UNL     1      -4.989   3.099 -32.263  1.00  0.00     0.246 C 
HETATM    9  O   UNL     1      -5.203   3.438 -33.425  1.00  0.00    -0.271 OA
HETATM   10  H   UNL     1      -5.723   2.570 -30.411  1.00  0.00     0.169 HD
BRANCH   8  11
HETATM   11  C   UNL     1      -3.606   3.229 -31.613  1.00  0.00     0.278 C 
BRANCH  11  12
HETATM   12  O   UNL     1      -2.678   3.593 -32.627  1.00  0.00    -0.342 OA
BRANCH  12  13
HETATM   13  C   UNL     1      -1.900   4.700 -32.429  1.00  0.00     0.075 A 
HETATM   14  C   UNL     1      -1.779   5.559 -33.539  1.00  0.00    -0.029 A 
HETATM   15  C   UNL     1      -2.473   5.246 -34.836  1.00  0.00     0.051 C 
HETATM   16  C   UNL     1      -1.027   6.737 -33.421  1.00  0.00     0.009 A 
HETATM   17  C   UNL     1      -0.392   7.052 -32.222  1.00  0.00     0.001 A 
HETATM   18  C   UNL     1      -0.509   6.195 -31.129  1.00  0.00     0.003 A 
HETATM   19  C   UNL     1      -1.264   5.024 -31.228  1.00  0.00     0.037 A 
ENDBRANCH  12  13
ENDBRANCH  11  12
ENDBRANCH   8  11
ENDBRANCH   1   7
BRANCH   2  20
HETATM   20  C   UNL     1      -6.269  -0.174 -32.369  1.00  0.00     0.254 C 
HETATM   21  N   UNL     1      -5.742  -0.377 -33.626  1.00  0.00    -0.353 N 
HETATM   22  H   UNL     1      -5.997   0.273 -34.363  1.00  0.00     0.163 HD
HETATM   23  O   UNL     1      -5.849  -0.721 -31.358  1.00  0.00    -0.268 OA
BRANCH  21  24
HETATM   24  C   UNL     1      -4.545  -1.169 -33.818  1.00  0.00     0.162 C 
BRANCH  24  25
HETATM   25  C   UNL     1      -4.898  -2.582 -34.174  1.00  0.00    -0.023 A 
HETATM   26  C   UNL     1      -4.024  -3.623 -33.878  1.00  0.00     0.125 A 
HETATM   27  N   UNL     1      -4.272  -4.924 -34.146  1.00  0.00    -0.273 NA
HETATM   28  C   UNL     1      -5.431  -5.199 -34.785  1.00  0.00     0.116 A 
HETATM   29  C   UNL     1      -6.358  -4.235 -35.144  1.00  0.00     0.020 A 
HETATM   30  C   UNL     1      -6.090  -2.906 -34.825  1.00  0.00     0.012 A 
ENDBRANCH  24  25
ENDBRANCH  21  24
ENDBRANCH   2  20
TORSDOF 7
ENDMDL
MODEL 6
REMARK VINA RESULT:      -8.2      2.197      6.600
REMARK  7 active torsions:
REMARK  status: ('A' for Active; 'I' for Inactive)
REMARK    1  A    between atoms: C_3  and  O_4 
REMARK    2  A    between atoms: O_4  and  C_5 
REMARK    3  A    between atoms: C_5  and  C_6 
REMARK       I    between atoms: C_6  and  N_7 
REMARK    4  A    between atoms: N_7  and  C_8 
REMARK    5  A    between atoms: C_9  and  C_10 
REMARK       I    between atoms: C_10  and  N_11 
REMARK    6  A    between atoms: N_11  and  C_12 
REMARK    7  A    between atoms: C_12  and  C_13 
ROOT
HETATM    1  C   UNL     1      -6.747  -1.200 -33.701  1.00  0.00     0.050 A 
HETATM    2  C   UNL     1      -5.489  -0.910 -33.131  1.00  0.00     0.058 A 
HETATM    3  C   UNL     1      -4.371  -1.715 -33.409  1.00  0.00     0.019 A 
HETATM    4  C   UNL     1      -4.496  -2.830 -34.232  1.00  0.00     0.001 A 
HETATM    5  C   UNL     1      -5.734  -3.141 -34.780  1.00  0.00     0.002 A 
HETATM    6  C   UNL     1      -6.847  -2.332 -34.520  1.00  0.00     0.030 A 
ENDROOT
BRANCH   1   7
HETATM    7  N   UNL     1      -7.842  -0.314 -33.513  1.00  0.00    -0.324 N 
HETATM    8  C   UNL     1      -7.934   0.995 -33.974  1.00  0.00     0.246 C 
HETATM    9  O   UNL     1      -7.198   1.490 -34.823  1.00  0.00    -0.271 OA
HETATM   10  H   UNL     1      -8.634  -0.681 -32.999  1.00  0.00     0.169 HD
BRANCH   8  11
HETATM   11  C   UNL     1      -9.084   1.779 -33.329  1.00  0.00     0.278 C 
BRANCH  11  12
HETATM   12  O   UNL     1     -10.048   2.052 -34.338  1.00  0.00    -0.342 OA
BRANCH  12  13
HETATM   13  C   UNL     1     -11.285   1.480 -34.228  1.00  0.00     0.075 A 
HETATM   14  C   UNL     1     -12.311   2.115 -34.955  1.00  0.00    -0.029 A 
HETATM   15  C   UNL     1     -12.025   3.335 -35.787  1.00  0.00     0.051 C 
HETATM   16  C   UNL     1     -13.607   1.581 -34.929  1.00  0.00     0.009 A 
HETATM   17  C   UNL     1     -13.885   0.440 -34.179  1.00  0.00     0.001 A 
HETATM   18  C   UNL     1     -12.869  -0.180 -33.455  1.00  0.00     0.003 A 
HETATM   19  C   UNL     1     -11.570   0.335 -33.481  1.00  0.00     0.037 A 
ENDBRANCH  12  13
ENDBRANCH  11  12
ENDBRANCH   8  11
ENDBRANCH   1   7
BRANCH   2  20
HETATM   20  C   UNL     1      -5.259   0.224 -32.201  1.00  0.00     0.254 C 
HETATM   21  N   UNL     1      -4.550   1.286 -32.718  1.00  0.00    -0.353 N 
HETATM   22  H   UNL     1      -4.405   1.323 -33.722  1.00  0.00     0.163 HD
HETATM   23  O   UNL     1      -5.713   0.196 -31.064  1.00  0.00    -0.268 OA
BRANCH  21  24
HETATM   24  C   UNL     1      -4.405   2.522 -31.976  1.00  0.00     0.162 C 
BRANCH  24  25
HETATM   25  C   UNL     1      -3.928   3.624 -32.875  1.00  0.00    -0.023 A 
HETATM   26  C   UNL     1      -4.828   4.315 -33.680  1.00  0.00     0.125 A 
HETATM   27  N   UNL     1      -4.488   5.332 -34.502  1.00  0.00    -0.273 NA
HETATM   28  C   UNL     1      -3.175   5.647 -34.561  1.00  0.00     0.116 A 
HETATM   29  C   UNL     1      -2.196   5.007 -33.819  1.00  0.00     0.020 A 
HETATM   30  C   UNL     1      -2.583   3.984 -32.956  1.00  0.00     0.012 A 
ENDBRANCH  24  25
ENDBRANCH  21  24
ENDBRANCH   2  20
TORSDOF 7
ENDMDL
MODEL 7
REMARK VINA RESULT:      -8.1      2.223      6.162
REMARK  7 active torsions:
REMARK  status: ('A' for Active; 'I' for Inactive)
REMARK    1  A    between atoms: C_3  and  O_4 
REMARK    2  A    between atoms: O_4  and  C_5 
REMARK    3  A    between atoms: C_5  and  C_6 
REMARK       I    between atoms: C_6  and  N_7 
REMARK    4  A    between atoms: N_7  and  C_8 
REMARK    5  A    between atoms: C_9  and  C_10 
REMARK       I    between atoms: C_10  and  N_11 
REMARK    6  A    between atoms: N_11  and  C_12 
REMARK    7  A    between atoms: C_12  and  C_13 
ROOT
HETATM    1  C   UNL     1      -9.241   2.676 -32.883  1.00  0.00     0.050 A 
HETATM    2  C   UNL     1      -8.930   1.308 -33.032  1.00  0.00     0.058 A 
HETATM    3  C   UNL     1      -9.935   0.371 -33.325  1.00  0.00     0.019 A 
HETATM    4  C   UNL     1     -11.261   0.777 -33.443  1.00  0.00     0.001 A 
HETATM    5  C   UNL     1     -11.584   2.117 -33.274  1.00  0.00     0.002 A 
HETATM    6  C   UNL     1     -10.584   3.058 -33.000  1.00  0.00     0.030 A 
ENDROOT
BRANCH   1   7
HETATM    7  N   UNL     1      -8.204   3.633 -32.709  1.00  0.00    -0.324 N 
HETATM    8  C   UNL     1      -7.836   4.625 -33.610  1.00  0.00     0.246 C 
HETATM    9  O   UNL     1      -8.514   4.983 -34.570  1.00  0.00    -0.271 OA
HETATM   10  H   UNL     1      -7.691   3.586 -31.836  1.00  0.00     0.169 HD
BRANCH   8  11
HETATM   11  C   UNL     1      -6.485   5.270 -33.275  1.00  0.00     0.278 C 
BRANCH  11  12
HETATM   12  O   UNL     1      -5.500   4.246 -33.268  1.00  0.00    -0.342 OA
BRANCH  12  13
HETATM   13  C   UNL     1      -4.206   4.586 -33.550  1.00  0.00     0.075 A 
HETATM   14  C   UNL     1      -3.259   4.219 -32.573  1.00  0.00    -0.029 A 
HETATM   15  C   UNL     1      -3.682   3.500 -31.321  1.00  0.00     0.051 C 
HETATM   16  C   UNL     1      -1.902   4.498 -32.788  1.00  0.00     0.009 A 
HETATM   17  C   UNL     1      -1.491   5.146 -33.951  1.00  0.00     0.001 A 
HETATM   18  C   UNL     1      -2.432   5.515 -34.910  1.00  0.00     0.003 A 
HETATM   19  C   UNL     1      -3.786   5.233 -34.714  1.00  0.00     0.037 A 
ENDBRANCH  12  13
ENDBRANCH  11  12
ENDBRANCH   8  11
ENDBRANCH   1   7
BRANCH   2  20
HETATM   20  C   UNL     1      -7.558   0.763 -32.876  1.00  0.00     0.254 C 
HETATM   21  N   UNL     1      -7.155  -0.130 -33.846  1.00  0.00    -0.353 N 
HETATM   22  H   UNL     1      -7.717  -0.208 -34.688  1.00  0.00     0.163 HD
HETATM   23  O   UNL     1      -6.846   1.130 -31.950  1.00  0.00    -0.268 OA
BRANCH  21  24
HETATM   24  C   UNL     1      -5.788  -0.602 -33.908  1.00  0.00     0.162 C 
BRANCH  24  25
HETATM   25  C   UNL     1      -5.750  -2.073 -34.198  1.00  0.00    -0.023 A 
HETATM   26  C   UNL     1      -4.553  -2.778 -34.109  1.00  0.00     0.125 A 
HETATM   27  N   UNL     1      -4.434  -4.104 -34.334  1.00  0.00    -0.273 NA
HETATM   28  C   UNL     1      -5.555  -4.756 -34.713  1.00  0.00     0.116 A 
HETATM   29  C   UNL     1      -6.790  -4.145 -34.852  1.00  0.00     0.020 A 
HETATM   30  C   UNL     1      -6.889  -2.782 -34.582  1.00  0.00     0.012 A 
ENDBRANCH  24  25
ENDBRANCH  21  24
ENDBRANCH   2  20
TORSDOF 7
ENDMDL
MODEL 8
REMARK VINA RESULT:      -7.9      5.546      9.474
REMARK  7 active torsions:
REMARK  status: ('A' for Active; 'I' for Inactive)
REMARK    1  A    between atoms: C_3  and  O_4 
REMARK    2  A    between atoms: O_4  and  C_5 
REMARK    3  A    between atoms: C_5  and  C_6 
REMARK       I    between atoms: C_6  and  N_7 
REMARK    4  A    between atoms: N_7  and  C_8 
REMARK    5  A    between atoms: C_9  and  C_10 
REMARK       I    between atoms: C_10  and  N_11 
REMARK    6  A    between atoms: N_11  and  C_12 
REMARK    7  A    between atoms: C_12  and  C_13 
ROOT
HETATM    1  C   UNL     1      -2.836   4.931 -32.616  1.00  0.00     0.050 A 
HETATM    2  C   UNL     1      -2.322   6.020 -31.881  1.00  0.00     0.058 A 
HETATM    3  C   UNL     1      -1.376   6.888 -32.452  1.00  0.00     0.019 A 
HETATM    4  C   UNL     1      -0.910   6.668 -33.745  1.00  0.00     0.001 A 
HETATM    5  C   UNL     1      -1.391   5.585 -34.470  1.00  0.00     0.002 A 
HETATM    6  C   UNL     1      -2.346   4.727 -33.912  1.00  0.00     0.030 A 
ENDROOT
BRANCH   1   7
HETATM    7  N   UNL     1      -3.881   4.131 -32.077  1.00  0.00    -0.324 N 
HETATM    8  C   UNL     1      -3.746   2.870 -31.508  1.00  0.00     0.246 C 
HETATM    9  O   UNL     1      -2.679   2.371 -31.158  1.00  0.00    -0.271 OA
HETATM   10  H   UNL     1      -4.812   4.530 -32.106  1.00  0.00     0.169 HD
BRANCH   8  11
HETATM   11  C   UNL     1      -5.087   2.146 -31.328  1.00  0.00     0.278 C 
BRANCH  11  12
HETATM   12  O   UNL     1      -4.826   0.750 -31.261  1.00  0.00    -0.342 OA
BRANCH  12  13
HETATM   13  C   UNL     1      -5.225  -0.037 -32.305  1.00  0.00     0.075 A 
HETATM   14  C   UNL     1      -4.335  -1.071 -32.656  1.00  0.00    -0.029 A 
HETATM   15  C   UNL     1      -3.045  -1.266 -31.907  1.00  0.00     0.051 C 
HETATM   16  C   UNL     1      -4.674  -1.950 -33.695  1.00  0.00     0.009 A 
HETATM   17  C   UNL     1      -5.874  -1.796 -34.386  1.00  0.00     0.001 A 
HETATM   18  C   UNL     1      -6.746  -0.766 -34.041  1.00  0.00     0.003 A 
HETATM   19  C   UNL     1      -6.427   0.110 -33.000  1.00  0.00     0.037 A 
ENDBRANCH  12  13
ENDBRANCH  11  12
ENDBRANCH   8  11
ENDBRANCH   1   7
BRANCH   2  20
HETATM   20  C   UNL     1      -2.712   6.314 -30.480  1.00  0.00     0.254 C 
HETATM   21  N   UNL     1      -1.672   6.548 -29.606  1.00  0.00    -0.353 N 
HETATM   22  H   UNL     1      -0.746   6.700 -29.993  1.00  0.00     0.163 HD
HETATM   23  O   UNL     1      -3.894   6.369 -30.162  1.00  0.00    -0.268 OA
BRANCH  21  24
HETATM   24  C   UNL     1      -1.917   7.013 -28.257  1.00  0.00     0.162 C 
BRANCH  24  25
HETATM   25  C   UNL     1      -0.706   7.705 -27.708  1.00  0.00    -0.023 A 
HETATM   26  C   UNL     1      -0.713   8.220 -26.416  1.00  0.00     0.125 A 
HETATM   27  N   UNL     1       0.340   8.839 -25.838  1.00  0.00    -0.273 NA
HETATM   28  C   UNL     1       1.443   8.995 -26.602  1.00  0.00     0.116 A 
HETATM   29  C   UNL     1       1.546   8.540 -27.906  1.00  0.00     0.020 A 
HETATM   30  C   UNL     1       0.455   7.877 -28.464  1.00  0.00     0.012 A 
ENDBRANCH  24  25
ENDBRANCH  21  24
ENDBRANCH   2  20
TORSDOF 7
ENDMDL
MODEL 9
REMARK VINA RESULT:      -7.7      3.062      7.456
REMARK  7 active torsions:
REMARK  status: ('A' for Active; 'I' for Inactive)
REMARK    1  A    between atoms: C_3  and  O_4 
REMARK    2  A    between atoms: O_4  and  C_5 
REMARK    3  A    between atoms: C_5  and  C_6 
REMARK       I    between atoms: C_6  and  N_7 
REMARK    4  A    between atoms: N_7  and  C_8 
REMARK    5  A    between atoms: C_9  and  C_10 
REMARK       I    between atoms: C_10  and  N_11 
REMARK    6  A    between atoms: N_11  and  C_12 
REMARK    7  A    between atoms: C_12  and  C_13 
ROOT
HETATM    1  C   UNL     1      -7.080   2.173 -32.312  1.00  0.00     0.050 A 
HETATM    2  C   UNL     1      -5.953   2.694 -31.643  1.00  0.00     0.058 A 
HETATM    3  C   UNL     1      -6.083   3.306 -30.385  1.00  0.00     0.019 A 
HETATM    4  C   UNL     1      -7.336   3.433 -29.792  1.00  0.00     0.001 A 
HETATM    5  C   UNL     1      -8.458   2.946 -30.452  1.00  0.00     0.002 A 
HETATM    6  C   UNL     1      -8.330   2.320 -31.698  1.00  0.00     0.030 A 
ENDROOT
BRANCH   1   7
HETATM    7  N   UNL     1      -6.923   1.449 -33.526  1.00  0.00    -0.324 N 
HETATM    8  C   UNL     1      -7.325   0.140 -33.764  1.00  0.00     0.246 C 
HETATM    9  O   UNL     1      -8.099  -0.495 -33.050  1.00  0.00    -0.271 OA
HETATM   10  H   UNL     1      -6.482   1.945 -34.291  1.00  0.00     0.169 HD
BRANCH   8  11
HETATM   11  C   UNL     1      -6.722  -0.450 -35.045  1.00  0.00     0.278 C 
BRANCH  11  12
HETATM   12  O   UNL     1      -6.788  -1.867 -34.948  1.00  0.00    -0.342 OA
BRANCH  12  13
HETATM   13  C   UNL     1      -5.730  -2.530 -34.392  1.00  0.00     0.075 A 
HETATM   14  C   UNL     1      -5.653  -3.904 -34.694  1.00  0.00    -0.029 A 
HETATM   15  C   UNL     1      -6.681  -4.560 -35.574  1.00  0.00     0.051 C 
HETATM   16  C   UNL     1      -4.584  -4.661 -34.193  1.00  0.00     0.009 A 
HETATM   17  C   UNL     1      -3.612  -4.066 -33.392  1.00  0.00     0.001 A 
HETATM   18  C   UNL     1      -3.697  -2.709 -33.089  1.00  0.00     0.003 A 
HETATM   19  C   UNL     1      -4.750  -1.940 -33.590  1.00  0.00     0.037 A 
ENDBRANCH  12  13
ENDBRANCH  11  12
ENDBRANCH   8  11
ENDBRANCH   1   7
BRANCH   2  20
HETATM   20  C   UNL     1      -4.581   2.657 -32.209  1.00  0.00     0.254 C 
HETATM   21  N   UNL     1      -4.090   3.861 -32.665  1.00  0.00    -0.353 N 
HETATM   22  H   UNL     1      -4.591   4.709 -32.416  1.00  0.00     0.163 HD
HETATM   23  O   UNL     1      -3.943   1.612 -32.224  1.00  0.00    -0.268 OA
BRANCH  21  24
HETATM   24  C   UNL     1      -2.709   3.999 -33.081  1.00  0.00     0.162 C 
BRANCH  24  25
HETATM   25  C   UNL     1      -2.237   5.408 -32.884  1.00  0.00    -0.023 A 
HETATM   26  C   UNL     1      -2.063   6.252 -33.977  1.00  0.00     0.125 A 
HETATM   27  N   UNL     1      -1.661   7.538 -33.888  1.00  0.00    -0.273 NA
HETATM   28  C   UNL     1      -1.370   7.996 -32.651  1.00  0.00     0.116 A 
HETATM   29  C   UNL     1      -1.487   7.233 -31.501  1.00  0.00     0.020 A 
HETATM   30  C   UNL     1      -1.936   5.920 -31.621  1.00  0.00     0.012 A 
ENDBRANCH  24  25
ENDBRANCH  21  24
ENDBRANCH   2  20
TORSDOF 7
ENDMDL
MODEL 10
REMARK VINA RESULT:      -7.6     13.823     15.516
REMARK  7 active torsions:
REMARK  status: ('A' for Active; 'I' for Inactive)
REMARK    1  A    between atoms: C_3  and  O_4 
REMARK    2  A    between atoms: O_4  and  C_5 
REMARK    3  A    between atoms: C_5  and  C_6 
REMARK       I    between atoms: C_6  and  N_7 
REMARK    4  A    between atoms: N_7  and  C_8 
REMARK    5  A    between atoms: C_9  and  C_10 
REMARK       I    between atoms: C_10  and  N_11 
REMARK    6  A    between atoms: N_11  and  C_12 
REMARK    7  A    between atoms: C_12  and  C_13 
ROOT
HETATM    1  C   UNL     1      -5.452 -13.727 -35.266  1.00  0.00     0.050 A 
HETATM    2  C   UNL     1      -6.331 -14.828 -35.345  1.00  0.00     0.058 A 
HETATM    3  C   UNL     1      -6.979 -15.313 -34.197  1.00  0.00     0.019 A 
HETATM    4  C   UNL     1      -6.741 -14.730 -32.956  1.00  0.00     0.001 A 
HETATM    5  C   UNL     1      -5.859 -13.660 -32.861  1.00  0.00     0.002 A 
HETATM    6  C   UNL     1      -5.224 -13.162 -34.005  1.00  0.00     0.030 A 
ENDROOT
BRANCH   1   7
HETATM    7  N   UNL     1      -4.896 -13.166 -36.448  1.00  0.00    -0.324 N 
HETATM    8  C   UNL     1      -3.590 -13.318 -36.899  1.00  0.00     0.246 C 
HETATM    9  O   UNL     1      -2.800 -14.161 -36.481  1.00  0.00    -0.271 OA
HETATM   10  H   UNL     1      -5.522 -12.609 -37.018  1.00  0.00     0.169 HD
BRANCH   8  11
HETATM   11  C   UNL     1      -3.220 -12.330 -38.013  1.00  0.00     0.278 C 
BRANCH  11  12
HETATM   12  O   UNL     1      -3.251 -13.032 -39.249  1.00  0.00    -0.342 OA
BRANCH  12  13
HETATM   13  C   UNL     1      -4.402 -13.000 -39.986  1.00  0.00     0.075 A 
HETATM   14  C   UNL     1      -4.596 -14.096 -40.850  1.00  0.00    -0.029 A 
HETATM   15  C   UNL     1      -3.583 -15.206 -40.927  1.00  0.00     0.051 C 
HETATM   16  C   UNL     1      -5.764 -14.167 -41.623  1.00  0.00     0.009 A 
HETATM   17  C   UNL     1      -6.721 -13.158 -41.550  1.00  0.00     0.001 A 
HETATM   18  C   UNL     1      -6.521 -12.072 -40.700  1.00  0.00     0.003 A 
HETATM   19  C   UNL     1      -5.367 -11.993 -39.916  1.00  0.00     0.037 A 
ENDBRANCH  12  13
ENDBRANCH  11  12
ENDBRANCH   8  11
ENDBRANCH   1   7
BRANCH   2  20
HETATM   20  C   UNL     1      -6.615 -15.554 -36.609  1.00  0.00     0.254 C 
HETATM   21  N   UNL     1      -7.903 -15.441 -37.086  1.00  0.00    -0.353 N 
HETATM   22  H   UNL     1      -8.506 -14.735 -36.676  1.00  0.00     0.163 HD
HETATM   23  O   UNL     1      -5.729 -16.177 -37.180  1.00  0.00    -0.268 OA
BRANCH  21  24
HETATM   24  C   UNL     1      -8.266 -15.955 -38.391  1.00  0.00     0.162 C 
BRANCH  24  25
HETATM   25  C   UNL     1      -9.207 -15.016 -39.084  1.00  0.00    -0.023 A 
HETATM   26  C   UNL     1     -10.091 -15.489 -40.049  1.00  0.00     0.125 A 
HETATM   27  N   UNL     1     -10.983 -14.718 -40.707  1.00  0.00    -0.273 NA
HETATM   28  C   UNL     1     -10.964 -13.397 -40.424  1.00  0.00     0.116 A 
HETATM   29  C   UNL     1     -10.110 -12.821 -39.498  1.00  0.00     0.020 A 
HETATM   30  C   UNL     1      -9.223 -13.647 -38.812  1.00  0.00     0.012 A 
ENDBRANCH  24  25
ENDBRANCH  21  24
ENDBRANCH   2  20
TORSDOF 7
ENDMDL
