MODEL 1
REMARK VINA RESULT:      -9.3      0.000      0.000
REMARK  12 active torsions:
REMARK  status: ('A' for Active; 'I' for Inactive)
REMARK    1  A    between atoms: C_9  and  S_10 
REMARK    2  A    between atoms: S_10  and  C_11 
REMARK    3  A    between atoms: C_11  and  C_12 
REMARK       I    between atoms: C_12  and  N_13 
REMARK    4  A    between atoms: N_13  and  C_14 
REMARK    5  A    between atoms: C_14  and  C_15 
REMARK    6  A    between atoms: C_15  and  C_16 
REMARK    7  A    between atoms: C_19  and  S_20 
REMARK    8  A    between atoms: S_20  and  N_21 
REMARK    9  A    between atoms: N_27  and  C_28 
REMARK   10  A    between atoms: C_31  and  O_32 
REMARK   11  A    between atoms: O_32  and  C_33 
REMARK   12  A    between atoms: C_41  and  N_42 
ROOT
HETATM    1  C   UNL     1      -6.020   6.205 -28.321  1.00  0.00     0.073 C 
HETATM    2  C   UNL     1      -7.266   5.598 -28.858  1.00  0.00     0.068 A 
HETATM    3  N   UNL     1      -8.428   6.243 -28.689  1.00  0.00    -0.177 NA
HETATM    4  N   UNL     1      -9.332   5.461 -29.294  1.00  0.00    -0.260 N 
HETATM    5  H   UNL     1     -10.304   5.754 -29.309  1.00  0.00     0.191 HD
HETATM    6  C   UNL     1      -8.786   4.328 -29.825  1.00  0.00     0.162 A 
HETATM    7  C   UNL     1      -7.433   4.373 -29.573  1.00  0.00     0.081 A 
HETATM    8  N   UNL     1      -9.444   3.365 -30.464  1.00  0.00    -0.204 NA
HETATM    9  C   UNL     1      -8.624   2.391 -30.918  1.00  0.00     0.177 A 
HETATM   10  N   UNL     1      -7.270   2.364 -30.744  1.00  0.00    -0.276 N 
HETATM   11  C   UNL     1      -6.615   3.320 -30.016  1.00  0.00     0.124 A 
ENDROOT
BRANCH   9  12
HETATM   12  S   UNL     1      -9.513   1.140 -31.844  1.00  0.00    -0.082 SA
BRANCH  12  13
HETATM   13  C   UNL     1     -10.253   2.211 -33.122  1.00  0.00     0.185 C 
BRANCH  13  14
HETATM   14  C   UNL     1      -9.225   3.116 -33.782  1.00  0.00     0.227 C 
HETATM   15  N   UNL     1      -9.404   4.450 -33.458  1.00  0.00    -0.360 N 
HETATM   16  H   UNL     1      -9.995   4.682 -32.669  1.00  0.00     0.162 HD
HETATM   17  O   UNL     1      -8.378   2.721 -34.574  1.00  0.00    -0.273 OA
BRANCH  15  18
HETATM   18  C   UNL     1      -8.464   5.476 -33.884  1.00  0.00     0.127 C 
BRANCH  18  19
HETATM   19  C   UNL     1      -7.637   6.001 -32.709  1.00  0.00     0.058 C 
BRANCH  19  20
HETATM   20  C   UNL     1      -6.157   5.889 -32.973  1.00  0.00    -0.057 A 
HETATM   21  C   UNL     1      -5.236   6.605 -32.195  1.00  0.00     0.009 A 
HETATM   22  C   UNL     1      -3.869   6.535 -32.474  1.00  0.00     0.025 A 
HETATM   23  C   UNL     1      -3.422   5.742 -33.534  1.00  0.00     0.074 A 
HETATM   24  C   UNL     1      -4.328   5.029 -34.322  1.00  0.00     0.025 A 
HETATM   25  C   UNL     1      -5.691   5.102 -34.038  1.00  0.00     0.009 A 
BRANCH  23  26
HETATM   26  S   UNL     1      -1.699   5.704 -33.937  1.00  0.00     0.239 S 
HETATM   27  O   UNL     1      -0.963   5.184 -32.807  1.00  0.00    -0.206 OA
HETATM   28  O   UNL     1      -1.536   5.186 -35.273  1.00  0.00    -0.206 OA
BRANCH  26  29
HETATM   29  N   UNL     1      -1.323   7.338 -34.022  1.00  0.00    -0.225 NA
HETATM   30  H   UNL     1      -2.101   7.891 -33.659  1.00  0.00     0.136 HD
HETATM   31  H   UNL     1      -0.441   7.513 -33.539  1.00  0.00     0.136 HD
ENDBRANCH  26  29
ENDBRANCH  23  26
ENDBRANCH  19  20
ENDBRANCH  18  19
ENDBRANCH  15  18
ENDBRANCH  13  14
ENDBRANCH  12  13
ENDBRANCH   9  12
BRANCH  10  32
HETATM   32  C   UNL     1      -6.477   1.343 -31.388  1.00  0.00     0.043 A 
HETATM   33  C   UNL     1      -5.848   1.657 -32.597  1.00  0.00     0.033 A 
HETATM   34  C   UNL     1      -4.993   0.721 -33.177  1.00  0.00     0.039 A 
HETATM   35  C   UNL     1      -4.775  -0.522 -32.570  1.00  0.00     0.076 A 
HETATM   36  C   UNL     1      -5.429  -0.829 -31.371  1.00  0.00     0.039 A 
HETATM   37  C   UNL     1      -6.268   0.113 -30.761  1.00  0.00     0.033 A 
BRANCH  35  38
HETATM   38  O   UNL     1      -3.901  -1.336 -33.256  1.00  0.00    -0.311 OA
BRANCH  38  39
HETATM   39  C   UNL     1      -4.358  -2.510 -33.796  1.00  0.00     0.076 A 
HETATM   40  C   UNL     1      -3.725  -3.692 -33.414  1.00  0.00     0.037 A 
HETATM   41  C   UNL     1      -4.209  -4.916 -33.875  1.00  0.00     0.003 A 
HETATM   42  C   UNL     1      -5.328  -4.953 -34.708  1.00  0.00     0.000 A 
HETATM   43  C   UNL     1      -5.974  -3.768 -35.069  1.00  0.00     0.003 A 
HETATM   44  C   UNL     1      -5.500  -2.544 -34.599  1.00  0.00     0.037 A 
ENDBRANCH  38  39
ENDBRANCH  35  38
ENDBRANCH  10  32
BRANCH  11  45
HETATM   45  N   UNL     1      -5.254   3.262 -29.733  1.00  0.00    -0.384 N 
HETATM   46  H   UNL     1      -4.896   3.543 -28.826  1.00  0.00     0.157 HD
HETATM   47  H   UNL     1      -4.598   3.407 -30.495  1.00  0.00     0.157 HD
ENDBRANCH  11  45
TORSDOF 12
ENDMDL
MODEL 2
REMARK VINA RESULT:      -9.1      1.910      2.406
REMARK  12 active torsions:
REMARK  status: ('A' for Active; 'I' for Inactive)
REMARK    1  A    between atoms: C_9  and  S_10 
REMARK    2  A    between atoms: S_10  and  C_11 
REMARK    3  A    between atoms: C_11  and  C_12 
REMARK       I    between atoms: C_12  and  N_13 
REMARK    4  A    between atoms: N_13  and  C_14 
REMARK    5  A    between atoms: C_14  and  C_15 
REMARK    6  A    between atoms: C_15  and  C_16 
REMARK    7  A    between atoms: C_19  and  S_20 
REMARK    8  A    between atoms: S_20  and  N_21 
REMARK    9  A    between atoms: N_27  and  C_28 
REMARK   10  A    between atoms: C_31  and  O_32 
REMARK   11  A    between atoms: O_32  and  C_33 
REMARK   12  A    between atoms: C_41  and  N_42 
ROOT
HETATM    1  C   UNL     1      -6.780   6.990 -27.989  1.00  0.00     0.073 C 
HETATM    2  C   UNL     1      -7.739   6.176 -28.781  1.00  0.00     0.068 A 
HETATM    3  N   UNL     1      -8.971   6.653 -29.000  1.00  0.00    -0.177 NA
HETATM    4  N   UNL     1      -9.564   5.712 -29.746  1.00  0.00    -0.260 N 
HETATM    5  H   UNL     1     -10.520   5.859 -30.055  1.00  0.00     0.191 HD
HETATM    6  C   UNL     1      -8.756   4.640 -29.992  1.00  0.00     0.162 A 
HETATM    7  C   UNL     1      -7.545   4.897 -29.388  1.00  0.00     0.081 A 
HETATM    8  N   UNL     1      -9.084   3.553 -30.685  1.00  0.00    -0.204 NA
HETATM    9  C   UNL     1      -8.056   2.682 -30.798  1.00  0.00     0.177 A 
HETATM   10  N   UNL     1      -6.814   2.864 -30.261  1.00  0.00    -0.276 N 
HETATM   11  C   UNL     1      -6.513   3.948 -29.482  1.00  0.00     0.124 A 
ENDROOT
BRANCH   9  12
HETATM   12  S   UNL     1      -8.486   1.259 -31.800  1.00  0.00    -0.082 SA
BRANCH  12  13
HETATM   13  C   UNL     1      -8.578   2.080 -33.427  1.00  0.00     0.185 C 
BRANCH  13  14
HETATM   14  C   UNL     1      -7.202   2.399 -33.990  1.00  0.00     0.227 C 
HETATM   15  N   UNL     1      -6.881   3.740 -33.882  1.00  0.00    -0.360 N 
HETATM   16  H   UNL     1      -7.427   4.321 -33.258  1.00  0.00     0.162 HD
HETATM   17  O   UNL     1      -6.487   1.575 -34.548  1.00  0.00    -0.273 OA
BRANCH  15  18
HETATM   18  C   UNL     1      -5.567   4.247 -34.252  1.00  0.00     0.127 C 
BRANCH  18  19
HETATM   19  C   UNL     1      -5.270   5.583 -33.566  1.00  0.00     0.058 C 
BRANCH  19  20
HETATM   20  C   UNL     1      -3.953   5.555 -32.834  1.00  0.00    -0.057 A 
HETATM   21  C   UNL     1      -3.853   6.040 -31.522  1.00  0.00     0.009 A 
HETATM   22  C   UNL     1      -2.620   6.055 -30.865  1.00  0.00     0.025 A 
HETATM   23  C   UNL     1      -1.483   5.578 -31.522  1.00  0.00     0.074 A 
HETATM   24  C   UNL     1      -1.566   5.097 -32.831  1.00  0.00     0.025 A 
HETATM   25  C   UNL     1      -2.799   5.084 -33.482  1.00  0.00     0.009 A 
BRANCH  23  26
HETATM   26  S   UNL     1       0.093   5.659 -30.722  1.00  0.00     0.239 S 
HETATM   27  O   UNL     1       0.827   4.447 -31.007  1.00  0.00    -0.206 OA
HETATM   28  O   UNL     1       0.657   6.972 -30.919  1.00  0.00    -0.206 OA
BRANCH  26  29
HETATM   29  N   UNL     1      -0.333   5.573 -29.101  1.00  0.00    -0.225 NA
HETATM   30  H   UNL     1       0.410   5.976 -28.527  1.00  0.00     0.136 HD
HETATM   31  H   UNL     1      -1.241   6.017 -28.960  1.00  0.00     0.136 HD
ENDBRANCH  26  29
ENDBRANCH  23  26
ENDBRANCH  19  20
ENDBRANCH  18  19
ENDBRANCH  15  18
ENDBRANCH  13  14
ENDBRANCH  12  13
ENDBRANCH   9  12
BRANCH  10  32
HETATM   32  C   UNL     1      -5.752   1.930 -30.559  1.00  0.00     0.043 A 
HETATM   33  C   UNL     1      -5.849   0.632 -30.051  1.00  0.00     0.033 A 
HETATM   34  C   UNL     1      -4.890  -0.311 -30.418  1.00  0.00     0.039 A 
HETATM   35  C   UNL     1      -3.835   0.035 -31.271  1.00  0.00     0.076 A 
HETATM   36  C   UNL     1      -3.740   1.347 -31.754  1.00  0.00     0.039 A 
HETATM   37  C   UNL     1      -4.713   2.297 -31.418  1.00  0.00     0.033 A 
BRANCH  35  38
HETATM   38  O   UNL     1      -2.973  -1.002 -31.548  1.00  0.00    -0.311 OA
BRANCH  38  39
HETATM   39  C   UNL     1      -3.401  -2.043 -32.330  1.00  0.00     0.076 A 
HETATM   40  C   UNL     1      -4.061  -1.736 -33.519  1.00  0.00     0.037 A 
HETATM   41  C   UNL     1      -4.441  -2.762 -34.384  1.00  0.00     0.003 A 
HETATM   42  C   UNL     1      -4.153  -4.088 -34.060  1.00  0.00     0.000 A 
HETATM   43  C   UNL     1      -3.470  -4.390 -32.879  1.00  0.00     0.003 A 
HETATM   44  C   UNL     1      -3.078  -3.365 -32.018  1.00  0.00     0.037 A 
ENDBRANCH  38  39
ENDBRANCH  35  38
ENDBRANCH  10  32
BRANCH  11  45
HETATM   45  N   UNL     1      -5.291   4.107 -28.837  1.00  0.00    -0.384 N 
HETATM   46  H   UNL     1      -4.442   4.288 -29.362  1.00  0.00     0.157 HD
HETATM   47  H   UNL     1      -5.137   3.603 -27.969  1.00  0.00     0.157 HD
ENDBRANCH  11  45
TORSDOF 12
ENDMDL
MODEL 3
REMARK VINA RESULT:      -8.9      2.783      4.446
REMARK  12 active torsions:
REMARK  status: ('A' for Active; 'I' for Inactive)
REMARK    1  A    between atoms: C_9  and  S_10 
REMARK    2  A    between atoms: S_10  and  C_11 
REMARK    3  A    between atoms: C_11  and  C_12 
REMARK       I    between atoms: C_12  and  N_13 
REMARK    4  A    between atoms: N_13  and  C_14 
REMARK    5  A    between atoms: C_14  and  C_15 
REMARK    6  A    between atoms: C_15  and  C_16 
REMARK    7  A    between atoms: C_19  and  S_20 
REMARK    8  A    between atoms: S_20  and  N_21 
REMARK    9  A    between atoms: N_27  and  C_28 
REMARK   10  A    between atoms: C_31  and  O_32 
REMARK   11  A    between atoms: O_32  and  C_33 
REMARK   12  A    between atoms: C_41  and  N_42 
ROOT
HETATM    1  C   UNL     1     -13.820   1.949 -33.286  1.00  0.00     0.073 C 
HETATM    2  C   UNL     1     -12.816   2.956 -32.850  1.00  0.00     0.068 A 
HETATM    3  N   UNL     1     -13.241   4.131 -32.369  1.00  0.00    -0.177 NA
HETATM    4  N   UNL     1     -12.116   4.786 -32.053  1.00  0.00    -0.260 N 
HETATM    5  H   UNL     1     -12.185   5.715 -31.648  1.00  0.00     0.191 HD
HETATM    6  C   UNL     1     -10.987   4.074 -32.336  1.00  0.00     0.162 A 
HETATM    7  C   UNL     1     -11.390   2.863 -32.854  1.00  0.00     0.081 A 
HETATM    8  N   UNL     1      -9.735   4.480 -32.146  1.00  0.00    -0.204 NA
HETATM    9  C   UNL     1      -8.828   3.534 -32.479  1.00  0.00     0.177 A 
HETATM   10  N   UNL     1      -9.133   2.297 -32.971  1.00  0.00    -0.276 N 
HETATM   11  C   UNL     1     -10.421   1.920 -33.237  1.00  0.00     0.124 A 
ENDROOT
BRANCH   9  12
HETATM   12  S   UNL     1      -7.149   4.064 -32.146  1.00  0.00    -0.082 SA
BRANCH  12  13
HETATM   13  C   UNL     1      -6.654   4.509 -33.845  1.00  0.00     0.185 C 
BRANCH  13  14
HETATM   14  C   UNL     1      -5.369   5.321 -33.877  1.00  0.00     0.227 C 
HETATM   15  N   UNL     1      -4.512   4.921 -34.887  1.00  0.00    -0.360 N 
HETATM   16  H   UNL     1      -4.877   4.339 -35.631  1.00  0.00     0.162 HD
HETATM   17  O   UNL     1      -5.088   6.184 -33.054  1.00  0.00    -0.273 OA
BRANCH  15  18
HETATM   18  C   UNL     1      -3.277   5.637 -35.175  1.00  0.00     0.127 C 
BRANCH  18  19
HETATM   19  C   UNL     1      -2.057   4.888 -34.634  1.00  0.00     0.058 C 
BRANCH  19  20
HETATM   20  C   UNL     1      -1.669   5.371 -33.260  1.00  0.00    -0.057 A 
HETATM   21  C   UNL     1      -1.054   6.619 -33.089  1.00  0.00     0.009 A 
HETATM   22  C   UNL     1      -0.653   7.042 -31.818  1.00  0.00     0.025 A 
HETATM   23  C   UNL     1      -0.873   6.213 -30.715  1.00  0.00     0.074 A 
HETATM   24  C   UNL     1      -1.479   4.965 -30.872  1.00  0.00     0.025 A 
HETATM   25  C   UNL     1      -1.877   4.548 -32.142  1.00  0.00     0.009 A 
BRANCH  23  26
HETATM   26  S   UNL     1      -0.305   6.711 -29.115  1.00  0.00     0.239 S 
HETATM   27  O   UNL     1       0.781   7.652 -29.274  1.00  0.00    -0.206 OA
HETATM   28  O   UNL     1      -1.443   6.975 -28.269  1.00  0.00    -0.206 OA
BRANCH  26  29
HETATM   29  N   UNL     1       0.389   5.297 -28.534  1.00  0.00    -0.225 NA
HETATM   30  H   UNL     1       0.713   4.725 -29.315  1.00  0.00     0.136 HD
HETATM   31  H   UNL     1       1.126   5.526 -27.865  1.00  0.00     0.136 HD
ENDBRANCH  26  29
ENDBRANCH  23  26
ENDBRANCH  19  20
ENDBRANCH  18  19
ENDBRANCH  15  18
ENDBRANCH  13  14
ENDBRANCH  12  13
ENDBRANCH   9  12
BRANCH  10  32
HETATM   32  C   UNL     1      -8.088   1.317 -33.166  1.00  0.00     0.043 A 
HETATM   33  C   UNL     1      -7.481   1.237 -34.422  1.00  0.00     0.033 A 
HETATM   34  C   UNL     1      -6.401   0.374 -34.597  1.00  0.00     0.039 A 
HETATM   35  C   UNL     1      -5.934  -0.413 -33.536  1.00  0.00     0.076 A 
HETATM   36  C   UNL     1      -6.567  -0.336 -32.289  1.00  0.00     0.039 A 
HETATM   37  C   UNL     1      -7.635   0.549 -32.091  1.00  0.00     0.033 A 
BRANCH  35  38
HETATM   38  O   UNL     1      -4.858  -1.209 -33.858  1.00  0.00    -0.311 OA
BRANCH  38  39
HETATM   39  C   UNL     1      -5.054  -2.545 -34.091  1.00  0.00     0.076 A 
HETATM   40  C   UNL     1      -6.185  -2.921 -34.815  1.00  0.00     0.037 A 
HETATM   41  C   UNL     1      -6.382  -4.261 -35.144  1.00  0.00     0.003 A 
HETATM   42  C   UNL     1      -5.443  -5.218 -34.756  1.00  0.00     0.000 A 
HETATM   43  C   UNL     1      -4.300  -4.835 -34.052  1.00  0.00     0.003 A 
HETATM   44  C   UNL     1      -4.094  -3.493 -33.732  1.00  0.00     0.037 A 
ENDBRANCH  38  39
ENDBRANCH  35  38
ENDBRANCH  10  32
BRANCH  11  45
HETATM   45  N   UNL     1     -10.753   0.709 -33.835  1.00  0.00    -0.384 N 
HETATM   46  H   UNL     1     -10.878   0.639 -34.839  1.00  0.00     0.157 HD
HETATM   47  H   UNL     1     -11.314   0.049 -33.305  1.00  0.00     0.157 HD
ENDBRANCH  11  45
TORSDOF 12
ENDMDL
MODEL 4
REMARK VINA RESULT:      -8.8      2.671      4.457
REMARK  12 active torsions:
REMARK  status: ('A' for Active; 'I' for Inactive)
REMARK    1  A    between atoms: C_9  and  S_10 
REMARK    2  A    between atoms: S_10  and  C_11 
REMARK    3  A    between atoms: C_11  and  C_12 
REMARK       I    between atoms: C_12  and  N_13 
REMARK    4  A    between atoms: N_13  and  C_14 
REMARK    5  A    between atoms: C_14  and  C_15 
REMARK    6  A    between atoms: C_15  and  C_16 
REMARK    7  A    between atoms: C_19  and  S_20 
REMARK    8  A    between atoms: S_20  and  N_21 
REMARK    9  A    between atoms: N_27  and  C_28 
REMARK   10  A    between atoms: C_31  and  O_32 
REMARK   11  A    between atoms: O_32  and  C_33 
REMARK   12  A    between atoms: C_41  and  N_42 
ROOT
HETATM    1  C   UNL     1     -15.137   1.070 -33.560  1.00  0.00     0.073 C 
HETATM    2  C   UNL     1     -14.341   2.222 -33.060  1.00  0.00     0.068 A 
HETATM    3  N   UNL     1     -14.981   3.283 -32.554  1.00  0.00    -0.177 NA
HETATM    4  N   UNL     1     -14.000   4.116 -32.181  1.00  0.00    -0.260 N 
HETATM    5  H   UNL     1     -14.245   5.001 -31.748  1.00  0.00     0.191 HD
HETATM    6  C   UNL     1     -12.755   3.627 -32.453  1.00  0.00     0.162 A 
HETATM    7  C   UNL     1     -12.922   2.384 -33.024  1.00  0.00     0.081 A 
HETATM    8  N   UNL     1     -11.601   4.242 -32.211  1.00  0.00    -0.204 NA
HETATM    9  C   UNL     1     -10.532   3.486 -32.547  1.00  0.00     0.177 A 
HETATM   10  N   UNL     1     -10.598   2.235 -33.089  1.00  0.00    -0.276 N 
HETATM   11  C   UNL     1     -11.791   1.645 -33.407  1.00  0.00     0.124 A 
ENDROOT
BRANCH   9  12
HETATM   12  S   UNL     1      -8.983   4.294 -32.144  1.00  0.00    -0.082 SA
BRANCH  12  13
HETATM   13  C   UNL     1      -8.959   3.972 -30.349  1.00  0.00     0.185 C 
BRANCH  13  14
HETATM   14  C   UNL     1      -7.547   3.811 -29.810  1.00  0.00     0.227 C 
HETATM   15  N   UNL     1      -6.866   2.764 -30.408  1.00  0.00    -0.360 N 
HETATM   16  H   UNL     1      -7.232   2.376 -31.268  1.00  0.00     0.162 HD
HETATM   17  O   UNL     1      -7.086   4.482 -28.895  1.00  0.00    -0.273 OA
BRANCH  15  18
HETATM   18  C   UNL     1      -5.462   2.503 -30.128  1.00  0.00     0.127 C 
BRANCH  18  19
HETATM   19  C   UNL     1      -4.654   2.345 -31.419  1.00  0.00     0.058 C 
BRANCH  19  20
HETATM   20  C   UNL     1      -3.835   3.574 -31.720  1.00  0.00    -0.057 A 
HETATM   21  C   UNL     1      -4.058   4.770 -31.022  1.00  0.00     0.009 A 
HETATM   22  C   UNL     1      -3.329   5.919 -31.337  1.00  0.00     0.025 A 
HETATM   23  C   UNL     1      -2.370   5.870 -32.352  1.00  0.00     0.074 A 
HETATM   24  C   UNL     1      -2.142   4.689 -33.060  1.00  0.00     0.025 A 
HETATM   25  C   UNL     1      -2.872   3.544 -32.740  1.00  0.00     0.009 A 
BRANCH  23  26
HETATM   26  S   UNL     1      -1.492   7.339 -32.804  1.00  0.00     0.239 S 
HETATM   27  O   UNL     1      -0.195   7.326 -32.168  1.00  0.00    -0.206 OA
HETATM   28  O   UNL     1      -1.661   7.576 -34.216  1.00  0.00    -0.206 OA
BRANCH  26  29
HETATM   29  N   UNL     1      -2.379   8.531 -32.022  1.00  0.00    -0.225 NA
HETATM   30  H   UNL     1      -2.227   8.470 -31.014  1.00  0.00     0.136 HD
HETATM   31  H   UNL     1      -2.145   9.445 -32.413  1.00  0.00     0.136 HD
ENDBRANCH  26  29
ENDBRANCH  23  26
ENDBRANCH  19  20
ENDBRANCH  18  19
ENDBRANCH  15  18
ENDBRANCH  13  14
ENDBRANCH  12  13
ENDBRANCH   9  12
BRANCH  10  32
HETATM   32  C   UNL     1      -9.390   1.465 -33.284  1.00  0.00     0.043 A 
HETATM   33  C   UNL     1      -8.684   1.631 -34.478  1.00  0.00     0.033 A 
HETATM   34  C   UNL     1      -7.462   0.979 -34.638  1.00  0.00     0.039 A 
HETATM   35  C   UNL     1      -6.951   0.158 -33.624  1.00  0.00     0.076 A 
HETATM   36  C   UNL     1      -7.682  -0.015 -32.442  1.00  0.00     0.039 A 
HETATM   37  C   UNL     1      -8.897   0.658 -32.256  1.00  0.00     0.033 A 
BRANCH  35  38
HETATM   38  O   UNL     1      -5.734  -0.411 -33.923  1.00  0.00    -0.311 OA
BRANCH  38  39
HETATM   39  C   UNL     1      -5.674  -1.743 -34.242  1.00  0.00     0.076 A 
HETATM   40  C   UNL     1      -4.464  -2.407 -34.042  1.00  0.00     0.037 A 
HETATM   41  C   UNL     1      -4.381  -3.779 -34.276  1.00  0.00     0.003 A 
HETATM   42  C   UNL     1      -5.509  -4.482 -34.700  1.00  0.00     0.000 A 
HETATM   43  C   UNL     1      -6.725  -3.819 -34.875  1.00  0.00     0.003 A 
HETATM   44  C   UNL     1      -6.814  -2.449 -34.630  1.00  0.00     0.037 A 
ENDBRANCH  38  39
ENDBRANCH  35  38
ENDBRANCH  10  32
BRANCH  11  45
HETATM   45  N   UNL     1     -11.886   0.418 -34.055  1.00  0.00    -0.384 N 
HETATM   46  H   UNL     1     -11.494   0.285 -34.982  1.00  0.00     0.157 HD
HETATM   47  H   UNL     1     -12.694  -0.166 -33.863  1.00  0.00     0.157 HD
ENDBRANCH  11  45
TORSDOF 12
ENDMDL
MODEL 5
REMARK VINA RESULT:      -8.6      3.255      4.839
REMARK  12 active torsions:
REMARK  status: ('A' for Active; 'I' for Inactive)
REMARK    1  A    between atoms: C_9  and  S_10 
REMARK    2  A    between atoms: S_10  and  C_11 
REMARK    3  A    between atoms: C_11  and  C_12 
REMARK       I    between atoms: C_12  and  N_13 
REMARK    4  A    between atoms: N_13  and  C_14 
REMARK    5  A    between atoms: C_14  and  C_15 
REMARK    6  A    between atoms: C_15  and  C_16 
REMARK    7  A    between atoms: C_19  and  S_20 
REMARK    8  A    between atoms: S_20  and  N_21 
REMARK    9  A    between atoms: N_27  and  C_28 
REMARK   10  A    between atoms: C_31  and  O_32 
REMARK   11  A    between atoms: O_32  and  C_33 
REMARK   12  A    between atoms: C_41  and  N_42 
ROOT
HETATM    1  C   UNL     1     -10.352   6.153 -30.223  1.00  0.00     0.073 C 
HETATM    2  C   UNL     1      -8.904   5.909 -29.994  1.00  0.00     0.068 A 
HETATM    3  N   UNL     1      -8.244   6.683 -29.122  1.00  0.00    -0.177 NA
HETATM    4  N   UNL     1      -6.995   6.200 -29.130  1.00  0.00    -0.260 N 
HETATM    5  H   UNL     1      -6.300   6.626 -28.524  1.00  0.00     0.191 HD
HETATM    6  C   UNL     1      -6.832   5.156 -29.993  1.00  0.00     0.162 A 
HETATM    7  C   UNL     1      -8.055   4.920 -30.580  1.00  0.00     0.081 A 
HETATM    8  N   UNL     1      -5.700   4.496 -30.222  1.00  0.00    -0.204 NA
HETATM    9  C   UNL     1      -5.862   3.479 -31.097  1.00  0.00     0.177 A 
HETATM   10  N   UNL     1      -7.040   3.150 -31.706  1.00  0.00    -0.276 N 
HETATM   11  C   UNL     1      -8.179   3.887 -31.524  1.00  0.00     0.124 A 
ENDROOT
BRANCH   9  12
HETATM   12  S   UNL     1      -4.348   2.549 -31.337  1.00  0.00    -0.082 SA
BRANCH  12  13
HETATM   13  C   UNL     1      -3.691   3.452 -32.779  1.00  0.00     0.185 C 
BRANCH  13  14
HETATM   14  C   UNL     1      -2.421   4.220 -32.449  1.00  0.00     0.227 C 
HETATM   15  N   UNL     1      -2.078   5.129 -33.434  1.00  0.00    -0.360 N 
HETATM   16  H   UNL     1      -2.775   5.382 -34.124  1.00  0.00     0.162 HD
HETATM   17  O   UNL     1      -1.734   4.005 -31.458  1.00  0.00    -0.273 OA
BRANCH  15  18
HETATM   18  C   UNL     1      -0.965   6.053 -33.272  1.00  0.00     0.127 C 
BRANCH  18  19
HETATM   19  C   UNL     1      -1.412   7.358 -32.610  1.00  0.00     0.058 C 
BRANCH  19  20
HETATM   20  C   UNL     1      -1.093   7.375 -31.137  1.00  0.00    -0.057 A 
HETATM   21  C   UNL     1       0.185   7.027 -30.679  1.00  0.00     0.009 A 
HETATM   22  C   UNL     1       0.462   6.998 -29.309  1.00  0.00     0.025 A 
HETATM   23  C   UNL     1      -0.543   7.325 -28.396  1.00  0.00     0.074 A 
HETATM   24  C   UNL     1      -1.823   7.668 -28.838  1.00  0.00     0.025 A 
HETATM   25  C   UNL     1      -2.093   7.695 -30.206  1.00  0.00     0.009 A 
BRANCH  23  26
HETATM   26  S   UNL     1      -0.219   7.223 -26.659  1.00  0.00     0.239 S 
HETATM   27  O   UNL     1       1.210   7.178 -26.450  1.00  0.00    -0.206 OA
HETATM   28  O   UNL     1      -1.076   8.151 -25.962  1.00  0.00    -0.206 OA
BRANCH  26  29
HETATM   29  N   UNL     1      -0.791   5.690 -26.285  1.00  0.00    -0.225 NA
HETATM   30  H   UNL     1      -1.249   5.284 -27.102  1.00  0.00     0.136 HD
HETATM   31  H   UNL     1      -0.027   5.118 -25.922  1.00  0.00     0.136 HD
ENDBRANCH  26  29
ENDBRANCH  23  26
ENDBRANCH  19  20
ENDBRANCH  18  19
ENDBRANCH  15  18
ENDBRANCH  13  14
ENDBRANCH  12  13
ENDBRANCH   9  12
BRANCH  10  32
HETATM   32  C   UNL     1      -7.127   1.960 -32.520  1.00  0.00     0.043 A 
HETATM   33  C   UNL     1      -6.785   2.056 -33.872  1.00  0.00     0.033 A 
HETATM   34  C   UNL     1      -6.760   0.897 -34.647  1.00  0.00     0.039 A 
HETATM   35  C   UNL     1      -7.083  -0.345 -34.087  1.00  0.00     0.076 A 
HETATM   36  C   UNL     1      -7.444  -0.421 -32.736  1.00  0.00     0.039 A 
HETATM   37  C   UNL     1      -7.446   0.731 -31.938  1.00  0.00     0.033 A 
BRANCH  35  38
HETATM   38  O   UNL     1      -7.007  -1.397 -34.972  1.00  0.00    -0.311 OA
BRANCH  38  39
HETATM   39  C   UNL     1      -6.203  -2.468 -34.678  1.00  0.00     0.076 A 
HETATM   40  C   UNL     1      -6.674  -3.742 -34.993  1.00  0.00     0.037 A 
HETATM   41  C   UNL     1      -5.856  -4.852 -34.786  1.00  0.00     0.003 A 
HETATM   42  C   UNL     1      -4.570  -4.683 -34.273  1.00  0.00     0.000 A 
HETATM   43  C   UNL     1      -4.093  -3.403 -33.982  1.00  0.00     0.003 A 
HETATM   44  C   UNL     1      -4.904  -2.290 -34.199  1.00  0.00     0.037 A 
ENDBRANCH  38  39
ENDBRANCH  35  38
ENDBRANCH  10  32
BRANCH  11  45
HETATM   45  N   UNL     1      -9.363   3.639 -32.210  1.00  0.00    -0.384 N 
HETATM   46  H   UNL     1      -9.619   4.187 -33.025  1.00  0.00     0.157 HD
HETATM   47  H   UNL     1     -10.159   3.289 -31.685  1.00  0.00     0.157 HD
ENDBRANCH  11  45
TORSDOF 12
ENDMDL
MODEL 6
REMARK VINA RESULT:      -8.6      2.409      4.029
REMARK  12 active torsions:
REMARK  status: ('A' for Active; 'I' for Inactive)
REMARK    1  A    between atoms: C_9  and  S_10 
REMARK    2  A    between atoms: S_10  and  C_11 
REMARK    3  A    between atoms: C_11  and  C_12 
REMARK       I    between atoms: C_12  and  N_13 
REMARK    4  A    between atoms: N_13  and  C_14 
REMARK    5  A    between atoms: C_14  and  C_15 
REMARK    6  A    between atoms: C_15  and  C_16 
REMARK    7  A    between atoms: C_19  and  S_20 
REMARK    8  A    between atoms: S_20  and  N_21 
REMARK    9  A    between atoms: N_27  and  C_28 
REMARK   10  A    between atoms: C_31  and  O_32 
REMARK   11  A    between atoms: O_32  and  C_33 
REMARK   12  A    between atoms: C_41  and  N_42 
ROOT
HETATM    1  C   UNL     1     -12.366   1.455 -35.344  1.00  0.00     0.073 C 
HETATM    2  C   UNL     1     -12.072   2.244 -34.118  1.00  0.00     0.068 A 
HETATM    3  N   UNL     1     -13.040   2.999 -33.584  1.00  0.00    -0.177 NA
HETATM    4  N   UNL     1     -12.472   3.550 -32.503  1.00  0.00    -0.260 N 
HETATM    5  H   UNL     1     -13.027   4.164 -31.916  1.00  0.00     0.191 HD
HETATM    6  C   UNL     1     -11.166   3.184 -32.343  1.00  0.00     0.162 A 
HETATM    7  C   UNL     1     -10.856   2.323 -33.372  1.00  0.00     0.081 A 
HETATM    8  N   UNL     1     -10.352   3.590 -31.373  1.00  0.00    -0.204 NA
HETATM    9  C   UNL     1      -9.129   3.020 -31.452  1.00  0.00     0.177 A 
HETATM   10  N   UNL     1      -8.739   2.134 -32.416  1.00  0.00    -0.276 N 
HETATM   11  C   UNL     1      -9.561   1.786 -33.454  1.00  0.00     0.124 A 
ENDROOT
BRANCH   9  12
HETATM   12  S   UNL     1      -8.066   3.514 -30.096  1.00  0.00    -0.082 SA
BRANCH  12  13
HETATM   13  C   UNL     1      -8.554   5.269 -29.984  1.00  0.00     0.185 C 
BRANCH  13  14
HETATM   14  C   UNL     1      -7.574   6.186 -30.697  1.00  0.00     0.227 C 
HETATM   15  N   UNL     1      -7.020   5.601 -31.822  1.00  0.00    -0.360 N 
HETATM   16  H   UNL     1      -7.459   4.773 -32.205  1.00  0.00     0.162 HD
HETATM   17  O   UNL     1      -7.251   7.293 -30.282  1.00  0.00    -0.273 OA
BRANCH  15  18
HETATM   18  C   UNL     1      -6.146   6.341 -32.721  1.00  0.00     0.127 C 
BRANCH  18  19
HETATM   19  C   UNL     1      -5.103   5.426 -33.367  1.00  0.00     0.058 C 
BRANCH  19  20
HETATM   20  C   UNL     1      -3.777   5.498 -32.654  1.00  0.00    -0.057 A 
HETATM   21  C   UNL     1      -3.031   6.685 -32.652  1.00  0.00     0.009 A 
HETATM   22  C   UNL     1      -1.780   6.734 -32.030  1.00  0.00     0.025 A 
HETATM   23  C   UNL     1      -1.278   5.590 -31.404  1.00  0.00     0.074 A 
HETATM   24  C   UNL     1      -2.007   4.400 -31.403  1.00  0.00     0.025 A 
HETATM   25  C   UNL     1      -3.255   4.357 -32.025  1.00  0.00     0.009 A 
BRANCH  23  26
HETATM   26  S   UNL     1       0.335   5.625 -30.675  1.00  0.00     0.239 S 
HETATM   27  O   UNL     1       1.120   4.541 -31.221  1.00  0.00    -0.206 OA
HETATM   28  O   UNL     1       0.810   6.986 -30.641  1.00  0.00    -0.206 OA
BRANCH  26  29
HETATM   29  N   UNL     1       0.009   5.205 -29.083  1.00  0.00    -0.225 NA
HETATM   30  H   UNL     1      -0.134   4.196 -29.014  1.00  0.00     0.136 HD
HETATM   31  H   UNL     1       0.754   5.552 -28.477  1.00  0.00     0.136 HD
ENDBRANCH  26  29
ENDBRANCH  23  26
ENDBRANCH  19  20
ENDBRANCH  18  19
ENDBRANCH  15  18
ENDBRANCH  13  14
ENDBRANCH  12  13
ENDBRANCH   9  12
BRANCH  10  32
HETATM   32  C   UNL     1      -7.452   1.484 -32.325  1.00  0.00     0.043 A 
HETATM   33  C   UNL     1      -7.366   0.282 -31.617  1.00  0.00     0.033 A 
HETATM   34  C   UNL     1      -6.157  -0.412 -31.609  1.00  0.00     0.039 A 
HETATM   35  C   UNL     1      -5.039   0.088 -32.289  1.00  0.00     0.076 A 
HETATM   36  C   UNL     1      -5.137   1.305 -32.976  1.00  0.00     0.039 A 
HETATM   37  C   UNL     1      -6.353   1.999 -33.017  1.00  0.00     0.033 A 
BRANCH  35  38
HETATM   38  O   UNL     1      -3.922  -0.711 -32.197  1.00  0.00    -0.311 OA
BRANCH  38  39
HETATM   39  C   UNL     1      -3.912  -1.929 -32.825  1.00  0.00     0.076 A 
HETATM   40  C   UNL     1      -3.326  -3.003 -32.154  1.00  0.00     0.037 A 
HETATM   41  C   UNL     1      -3.366  -4.276 -32.721  1.00  0.00     0.003 A 
HETATM   42  C   UNL     1      -3.997  -4.472 -33.949  1.00  0.00     0.000 A 
HETATM   43  C   UNL     1      -4.604  -3.400 -34.606  1.00  0.00     0.003 A 
HETATM   44  C   UNL     1      -4.576  -2.127 -34.036  1.00  0.00     0.037 A 
ENDBRANCH  38  39
ENDBRANCH  35  38
ENDBRANCH  10  32
BRANCH  11  45
HETATM   45  N   UNL     1      -9.156   0.969 -34.505  1.00  0.00    -0.384 N 
HETATM   46  H   UNL     1      -8.177   0.739 -34.640  1.00  0.00     0.157 HD
HETATM   47  H   UNL     1      -9.696   0.989 -35.365  1.00  0.00     0.157 HD
ENDBRANCH  11  45
TORSDOF 12
ENDMDL
MODEL 7
REMARK VINA RESULT:      -8.5      3.103      6.572
REMARK  12 active torsions:
REMARK  status: ('A' for Active; 'I' for Inactive)
REMARK    1  A    between atoms: C_9  and  S_10 
REMARK    2  A    between atoms: S_10  and  C_11 
REMARK    3  A    between atoms: C_11  and  C_12 
REMARK       I    between atoms: C_12  and  N_13 
REMARK    4  A    between atoms: N_13  and  C_14 
REMARK    5  A    between atoms: C_14  and  C_15 
REMARK    6  A    between atoms: C_15  and  C_16 
REMARK    7  A    between atoms: C_19  and  S_20 
REMARK    8  A    between atoms: S_20  and  N_21 
REMARK    9  A    between atoms: N_27  and  C_28 
REMARK   10  A    between atoms: C_31  and  O_32 
REMARK   11  A    between atoms: O_32  and  C_33 
REMARK   12  A    between atoms: C_41  and  N_42 
ROOT
HETATM    1  C   UNL     1      -0.730   7.221 -33.065  1.00  0.00     0.073 C 
HETATM    2  C   UNL     1      -1.988   7.524 -32.332  1.00  0.00     0.068 A 
HETATM    3  N   UNL     1      -2.242   8.788 -31.971  1.00  0.00    -0.177 NA
HETATM    4  N   UNL     1      -3.434   8.726 -31.364  1.00  0.00    -0.260 N 
HETATM    5  H   UNL     1      -3.850   9.582 -31.009  1.00  0.00     0.191 HD
HETATM    6  C   UNL     1      -3.939   7.459 -31.308  1.00  0.00     0.162 A 
HETATM    7  C   UNL     1      -3.032   6.633 -31.935  1.00  0.00     0.081 A 
HETATM    8  N   UNL     1      -5.090   7.098 -30.749  1.00  0.00    -0.204 NA
HETATM    9  C   UNL     1      -5.342   5.778 -30.893  1.00  0.00     0.177 A 
HETATM   10  N   UNL     1      -4.521   4.888 -31.524  1.00  0.00    -0.276 N 
HETATM   11  C   UNL     1      -3.302   5.257 -32.024  1.00  0.00     0.124 A 
ENDROOT
BRANCH   9  12
HETATM   12  S   UNL     1      -6.933   5.317 -30.205  1.00  0.00    -0.082 SA
BRANCH  12  13
HETATM   13  C   UNL     1      -7.955   6.621 -30.969  1.00  0.00     0.185 C 
BRANCH  13  14
HETATM   14  C   UNL     1      -8.975   6.056 -31.945  1.00  0.00     0.227 C 
HETATM   15  N   UNL     1      -8.437   5.822 -33.199  1.00  0.00    -0.360 N 
HETATM   16  H   UNL     1      -7.430   5.802 -33.299  1.00  0.00     0.162 HD
HETATM   17  O   UNL     1     -10.159   5.896 -31.677  1.00  0.00    -0.273 OA
BRANCH  15  18
HETATM   18  C   UNL     1      -9.204   5.175 -34.254  1.00  0.00     0.127 C 
BRANCH  18  19
HETATM   19  C   UNL     1      -9.028   3.655 -34.221  1.00  0.00     0.058 C 
BRANCH  19  20
HETATM   20  C   UNL     1     -10.343   2.944 -34.025  1.00  0.00    -0.057 A 
HETATM   21  C   UNL     1     -10.379   1.572 -33.739  1.00  0.00     0.009 A 
HETATM   22  C   UNL     1     -11.601   0.909 -33.606  1.00  0.00     0.025 A 
HETATM   23  C   UNL     1     -12.793   1.623 -33.753  1.00  0.00     0.074 A 
HETATM   24  C   UNL     1     -12.773   2.989 -34.044  1.00  0.00     0.025 A 
HETATM   25  C   UNL     1     -11.550   3.646 -34.176  1.00  0.00     0.009 A 
BRANCH  23  26
HETATM   26  S   UNL     1     -14.343   0.776 -33.655  1.00  0.00     0.239 S 
HETATM   27  O   UNL     1     -15.072   1.263 -32.506  1.00  0.00    -0.206 OA
HETATM   28  O   UNL     1     -14.929   0.705 -34.971  1.00  0.00    -0.206 OA
BRANCH  26  29
HETATM   29  N   UNL     1     -13.865  -0.787 -33.273  1.00  0.00    -0.225 NA
HETATM   30  H   UNL     1     -14.520  -1.195 -32.604  1.00  0.00     0.136 HD
HETATM   31  H   UNL     1     -13.765  -1.334 -34.129  1.00  0.00     0.136 HD
ENDBRANCH  26  29
ENDBRANCH  23  26
ENDBRANCH  19  20
ENDBRANCH  18  19
ENDBRANCH  15  18
ENDBRANCH  13  14
ENDBRANCH  12  13
ENDBRANCH   9  12
BRANCH  10  32
HETATM   32  C   UNL     1      -4.955   3.526 -31.737  1.00  0.00     0.043 A 
HETATM   33  C   UNL     1      -4.773   2.603 -30.702  1.00  0.00     0.033 A 
HETATM   34  C   UNL     1      -5.281   1.314 -30.849  1.00  0.00     0.039 A 
HETATM   35  C   UNL     1      -5.955   0.939 -32.019  1.00  0.00     0.076 A 
HETATM   36  C   UNL     1      -6.110   1.869 -33.055  1.00  0.00     0.039 A 
HETATM   37  C   UNL     1      -5.629   3.177 -32.909  1.00  0.00     0.033 A 
BRANCH  35  38
HETATM   38  O   UNL     1      -6.406  -0.362 -32.015  1.00  0.00    -0.311 OA
BRANCH  38  39
HETATM   39  C   UNL     1      -6.097  -1.184 -33.067  1.00  0.00     0.076 A 
HETATM   40  C   UNL     1      -4.784  -1.640 -33.174  1.00  0.00     0.037 A 
HETATM   41  C   UNL     1      -4.446  -2.543 -34.182  1.00  0.00     0.003 A 
HETATM   42  C   UNL     1      -5.422  -2.992 -35.072  1.00  0.00     0.000 A 
HETATM   43  C   UNL     1      -6.741  -2.552 -34.946  1.00  0.00     0.003 A 
HETATM   44  C   UNL     1      -7.085  -1.658 -33.932  1.00  0.00     0.037 A 
ENDBRANCH  38  39
ENDBRANCH  35  38
ENDBRANCH  10  32
BRANCH  11  45
HETATM   45  N   UNL     1      -2.400   4.354 -32.577  1.00  0.00    -0.384 N 
HETATM   46  H   UNL     1      -1.467   4.648 -32.850  1.00  0.00     0.157 HD
HETATM   47  H   UNL     1      -2.767   3.586 -33.131  1.00  0.00     0.157 HD
ENDBRANCH  11  45
TORSDOF 12
ENDMDL
MODEL 8
REMARK VINA RESULT:      -8.4      3.473      5.853
REMARK  12 active torsions:
REMARK  status: ('A' for Active; 'I' for Inactive)
REMARK    1  A    between atoms: C_9  and  S_10 
REMARK    2  A    between atoms: S_10  and  C_11 
REMARK    3  A    between atoms: C_11  and  C_12 
REMARK       I    between atoms: C_12  and  N_13 
REMARK    4  A    between atoms: N_13  and  C_14 
REMARK    5  A    between atoms: C_14  and  C_15 
REMARK    6  A    between atoms: C_15  and  C_16 
REMARK    7  A    between atoms: C_19  and  S_20 
REMARK    8  A    between atoms: S_20  and  N_21 
REMARK    9  A    between atoms: N_27  and  C_28 
REMARK   10  A    between atoms: C_31  and  O_32 
REMARK   11  A    between atoms: O_32  and  C_33 
REMARK   12  A    between atoms: C_41  and  N_42 
ROOT
HETATM    1  C   UNL     1      -0.900   6.819 -33.636  1.00  0.00     0.073 C 
HETATM    2  C   UNL     1      -1.950   7.340 -32.722  1.00  0.00     0.068 A 
HETATM    3  N   UNL     1      -1.960   8.644 -32.419  1.00  0.00    -0.177 NA
HETATM    4  N   UNL     1      -3.019   8.789 -31.611  1.00  0.00    -0.260 N 
HETATM    5  H   UNL     1      -3.242   9.713 -31.255  1.00  0.00     0.191 HD
HETATM    6  C   UNL     1      -3.673   7.615 -31.374  1.00  0.00     0.162 A 
HETATM    7  C   UNL     1      -3.017   6.634 -32.085  1.00  0.00     0.081 A 
HETATM    8  N   UNL     1      -4.742   7.455 -30.599  1.00  0.00    -0.204 NA
HETATM    9  C   UNL     1      -5.194   6.181 -30.598  1.00  0.00     0.177 A 
HETATM   10  N   UNL     1      -4.629   5.150 -31.293  1.00  0.00    -0.276 N 
HETATM   11  C   UNL     1      -3.483   5.310 -32.023  1.00  0.00     0.124 A 
ENDROOT
BRANCH   9  12
HETATM   12  S   UNL     1      -6.680   5.995 -29.613  1.00  0.00    -0.082 SA
BRANCH  12  13
HETATM   13  C   UNL     1      -6.451   7.414 -28.490  1.00  0.00     0.185 C 
BRANCH  13  14
HETATM   14  C   UNL     1      -5.575   7.069 -27.296  1.00  0.00     0.227 C 
HETATM   15  N   UNL     1      -4.938   8.177 -26.766  1.00  0.00    -0.360 N 
HETATM   16  H   UNL     1      -5.270   9.098 -27.025  1.00  0.00     0.162 HD
HETATM   17  O   UNL     1      -5.392   5.926 -26.893  1.00  0.00    -0.273 OA
BRANCH  15  18
HETATM   18  C   UNL     1      -4.143   8.097 -25.549  1.00  0.00     0.127 C 
BRANCH  18  19
HETATM   19  C   UNL     1      -2.770   8.747 -25.733  1.00  0.00     0.058 C 
BRANCH  19  20
HETATM   20  C   UNL     1      -1.914   7.980 -26.708  1.00  0.00    -0.057 A 
HETATM   21  C   UNL     1      -1.838   8.369 -28.053  1.00  0.00     0.009 A 
HETATM   22  C   UNL     1      -1.081   7.626 -28.963  1.00  0.00     0.025 A 
HETATM   23  C   UNL     1      -0.394   6.492 -28.523  1.00  0.00     0.074 A 
HETATM   24  C   UNL     1      -0.465   6.089 -27.188  1.00  0.00     0.025 A 
HETATM   25  C   UNL     1      -1.221   6.835 -26.285  1.00  0.00     0.009 A 
BRANCH  23  26
HETATM   26  S   UNL     1       0.510   5.508 -29.684  1.00  0.00     0.239 S 
HETATM   27  O   UNL     1       0.917   6.343 -30.791  1.00  0.00    -0.206 OA
HETATM   28  O   UNL     1       1.434   4.662 -28.969  1.00  0.00    -0.206 OA
BRANCH  26  29
HETATM   29  N   UNL     1      -0.683   4.491 -30.284  1.00  0.00    -0.225 NA
HETATM   30  H   UNL     1      -0.675   3.608 -29.772  1.00  0.00     0.136 HD
HETATM   31  H   UNL     1      -1.586   4.968 -30.256  1.00  0.00     0.136 HD
ENDBRANCH  26  29
ENDBRANCH  23  26
ENDBRANCH  19  20
ENDBRANCH  18  19
ENDBRANCH  15  18
ENDBRANCH  13  14
ENDBRANCH  12  13
ENDBRANCH   9  12
BRANCH  10  32
HETATM   32  C   UNL     1      -5.276   3.858 -31.325  1.00  0.00     0.043 A 
HETATM   33  C   UNL     1      -6.101   3.558 -32.413  1.00  0.00     0.033 A 
HETATM   34  C   UNL     1      -6.647   2.279 -32.514  1.00  0.00     0.039 A 
HETATM   35  C   UNL     1      -6.386   1.310 -31.537  1.00  0.00     0.076 A 
HETATM   36  C   UNL     1      -5.575   1.634 -30.443  1.00  0.00     0.039 A 
HETATM   37  C   UNL     1      -4.996   2.905 -30.343  1.00  0.00     0.033 A 
BRANCH  35  38
HETATM   38  O   UNL     1      -6.988   0.095 -31.777  1.00  0.00    -0.311 OA
BRANCH  38  39
HETATM   39  C   UNL     1      -6.496  -0.716 -32.767  1.00  0.00     0.076 A 
HETATM   40  C   UNL     1      -5.150  -1.073 -32.708  1.00  0.00     0.037 A 
HETATM   41  C   UNL     1      -4.628  -1.961 -33.648  1.00  0.00     0.003 A 
HETATM   42  C   UNL     1      -5.455  -2.494 -34.637  1.00  0.00     0.000 A 
HETATM   43  C   UNL     1      -6.809  -2.153 -34.678  1.00  0.00     0.003 A 
HETATM   44  C   UNL     1      -7.337  -1.275 -33.732  1.00  0.00     0.037 A 
ENDBRANCH  38  39
ENDBRANCH  35  38
ENDBRANCH  10  32
BRANCH  11  45
HETATM   45  N   UNL     1      -2.828   4.258 -32.654  1.00  0.00    -0.384 N 
HETATM   46  H   UNL     1      -2.270   3.596 -32.124  1.00  0.00     0.157 HD
HETATM   47  H   UNL     1      -2.506   4.395 -33.608  1.00  0.00     0.157 HD
ENDBRANCH  11  45
TORSDOF 12
ENDMDL
MODEL 9
REMARK VINA RESULT:      -8.1      3.523      7.060
REMARK  12 active torsions:
REMARK  status: ('A' for Active; 'I' for Inactive)
REMARK    1  A    between atoms: C_9  and  S_10 
REMARK    2  A    between atoms: S_10  and  C_11 
REMARK    3  A    between atoms: C_11  and  C_12 
REMARK       I    between atoms: C_12  and  N_13 
REMARK    4  A    between atoms: N_13  and  C_14 
REMARK    5  A    between atoms: C_14  and  C_15 
REMARK    6  A    between atoms: C_15  and  C_16 
REMARK    7  A    between atoms: C_19  and  S_20 
REMARK    8  A    between atoms: S_20  and  N_21 
REMARK    9  A    between atoms: N_27  and  C_28 
REMARK   10  A    between atoms: C_31  and  O_32 
REMARK   11  A    between atoms: O_32  and  C_33 
REMARK   12  A    between atoms: C_41  and  N_42 
ROOT
HETATM    1  C   UNL     1      -3.373  -4.918 -33.246  1.00  0.00     0.073 C 
HETATM    2  C   UNL     1      -4.472  -4.179 -33.922  1.00  0.00     0.068 A 
HETATM    3  N   UNL     1      -5.313  -4.850 -34.719  1.00  0.00    -0.177 NA
HETATM    4  N   UNL     1      -6.179  -3.922 -35.145  1.00  0.00    -0.260 N 
HETATM    5  H   UNL     1      -6.934  -4.201 -35.764  1.00  0.00     0.191 HD
HETATM    6  C   UNL     1      -5.905  -2.675 -34.660  1.00  0.00     0.162 A 
HETATM    7  C   UNL     1      -4.800  -2.790 -33.847  1.00  0.00     0.081 A 
HETATM    8  N   UNL     1      -6.583  -1.563 -34.929  1.00  0.00    -0.204 NA
HETATM    9  C   UNL     1      -6.100  -0.490 -34.263  1.00  0.00     0.177 A 
HETATM   10  N   UNL     1      -5.031  -0.512 -33.414  1.00  0.00    -0.276 N 
HETATM   11  C   UNL     1      -4.293  -1.646 -33.208  1.00  0.00     0.124 A 
ENDROOT
BRANCH   9  12
HETATM   12  S   UNL     1      -7.069   0.986 -34.572  1.00  0.00    -0.082 SA
BRANCH  12  13
HETATM   13  C   UNL     1      -8.658   0.430 -33.869  1.00  0.00     0.185 C 
BRANCH  13  14
HETATM   14  C   UNL     1      -9.422   1.563 -33.202  1.00  0.00     0.227 C 
HETATM   15  N   UNL     1      -8.584   2.497 -32.617  1.00  0.00    -0.360 N 
HETATM   16  H   UNL     1      -7.605   2.498 -32.874  1.00  0.00     0.162 HD
HETATM   17  O   UNL     1     -10.644   1.607 -33.123  1.00  0.00    -0.273 OA
BRANCH  15  18
HETATM   18  C   UNL     1      -9.097   3.724 -32.025  1.00  0.00     0.127 C 
BRANCH  18  19
HETATM   19  C   UNL     1      -8.195   4.918 -32.343  1.00  0.00     0.058 C 
BRANCH  19  20
HETATM   20  C   UNL     1      -7.435   5.383 -31.127  1.00  0.00    -0.057 A 
HETATM   21  C   UNL     1      -6.593   6.503 -31.195  1.00  0.00     0.009 A 
HETATM   22  C   UNL     1      -5.854   6.901 -30.078  1.00  0.00     0.025 A 
HETATM   23  C   UNL     1      -5.961   6.178 -28.887  1.00  0.00     0.074 A 
HETATM   24  C   UNL     1      -6.791   5.058 -28.806  1.00  0.00     0.025 A 
HETATM   25  C   UNL     1      -7.527   4.665 -29.924  1.00  0.00     0.009 A 
BRANCH  23  26
HETATM   26  S   UNL     1      -4.975   6.635 -27.490  1.00  0.00     0.239 S 
HETATM   27  O   UNL     1      -3.633   6.928 -27.939  1.00  0.00    -0.206 OA
HETATM   28  O   UNL     1      -5.728   7.538 -26.655  1.00  0.00    -0.206 OA
BRANCH  26  29
HETATM   29  N   UNL     1      -4.877   5.190 -26.643  1.00  0.00    -0.225 NA
HETATM   30  H   UNL     1      -5.557   4.524 -27.015  1.00  0.00     0.136 HD
HETATM   31  H   UNL     1      -3.916   4.843 -26.666  1.00  0.00     0.136 HD
ENDBRANCH  26  29
ENDBRANCH  23  26
ENDBRANCH  19  20
ENDBRANCH  18  19
ENDBRANCH  15  18
ENDBRANCH  13  14
ENDBRANCH  12  13
ENDBRANCH   9  12
BRANCH  10  32
HETATM   32  C   UNL     1      -4.687   0.667 -32.652  1.00  0.00     0.043 A 
HETATM   33  C   UNL     1      -3.595   1.432 -33.073  1.00  0.00     0.033 A 
HETATM   34  C   UNL     1      -3.315   2.629 -32.415  1.00  0.00     0.039 A 
HETATM   35  C   UNL     1      -4.104   3.056 -31.340  1.00  0.00     0.076 A 
HETATM   36  C   UNL     1      -5.180   2.267 -30.917  1.00  0.00     0.039 A 
HETATM   37  C   UNL     1      -5.492   1.077 -31.587  1.00  0.00     0.033 A 
BRANCH  35  38
HETATM   38  O   UNL     1      -3.709   4.258 -30.797  1.00  0.00    -0.311 OA
BRANCH  38  39
HETATM   39  C   UNL     1      -2.909   5.097 -31.529  1.00  0.00     0.076 A 
HETATM   40  C   UNL     1      -1.563   5.186 -31.176  1.00  0.00     0.037 A 
HETATM   41  C   UNL     1      -0.697   5.964 -31.944  1.00  0.00     0.003 A 
HETATM   42  C   UNL     1      -1.178   6.643 -33.063  1.00  0.00     0.000 A 
HETATM   43  C   UNL     1      -2.522   6.532 -33.428  1.00  0.00     0.003 A 
HETATM   44  C   UNL     1      -3.388   5.745 -32.669  1.00  0.00     0.037 A 
ENDBRANCH  38  39
ENDBRANCH  35  38
ENDBRANCH  10  32
BRANCH  11  45
HETATM   45  N   UNL     1      -3.139  -1.673 -32.433  1.00  0.00    -0.384 N 
HETATM   46  H   UNL     1      -3.042  -2.327 -31.662  1.00  0.00     0.157 HD
HETATM   47  H   UNL     1      -2.627  -0.806 -32.302  1.00  0.00     0.157 HD
ENDBRANCH  11  45
TORSDOF 12
ENDMDL
MODEL 10
REMARK VINA RESULT:      -8.0      3.021      7.565
REMARK  12 active torsions:
REMARK  status: ('A' for Active; 'I' for Inactive)
REMARK    1  A    between atoms: C_9  and  S_10 
REMARK    2  A    between atoms: S_10  and  C_11 
REMARK    3  A    between atoms: C_11  and  C_12 
REMARK       I    between atoms: C_12  and  N_13 
REMARK    4  A    between atoms: N_13  and  C_14 
REMARK    5  A    between atoms: C_14  and  C_15 
REMARK    6  A    between atoms: C_15  and  C_16 
REMARK    7  A    between atoms: C_19  and  S_20 
REMARK    8  A    between atoms: S_20  and  N_21 
REMARK    9  A    between atoms: N_27  and  C_28 
REMARK   10  A    between atoms: C_31  and  O_32 
REMARK   11  A    between atoms: O_32  and  C_33 
REMARK   12  A    between atoms: C_41  and  N_42 
ROOT
HETATM    1  C   UNL     1      -1.817   5.202 -34.894  1.00  0.00     0.073 C 
HETATM    2  C   UNL     1      -2.416   5.374 -33.544  1.00  0.00     0.068 A 
HETATM    3  N   UNL     1      -1.653   5.845 -32.550  1.00  0.00    -0.177 NA
HETATM    4  N   UNL     1      -2.478   5.901 -31.496  1.00  0.00    -0.260 N 
HETATM    5  H   UNL     1      -2.122   6.248 -30.611  1.00  0.00     0.191 HD
HETATM    6  C   UNL     1      -3.738   5.461 -31.783  1.00  0.00     0.162 A 
HETATM    7  C   UNL     1      -3.753   5.110 -33.115  1.00  0.00     0.081 A 
HETATM    8  N   UNL     1      -4.755   5.386 -30.930  1.00  0.00    -0.204 NA
HETATM    9  C   UNL     1      -5.893   4.955 -31.519  1.00  0.00     0.177 A 
HETATM   10  N   UNL     1      -6.012   4.613 -32.835  1.00  0.00    -0.276 N 
HETATM   11  C   UNL     1      -4.939   4.618 -33.684  1.00  0.00     0.124 A 
ENDROOT
BRANCH   9  12
HETATM   12  S   UNL     1      -7.276   4.933 -30.377  1.00  0.00    -0.082 SA
BRANCH  12  13
HETATM   13  C   UNL     1      -6.738   3.551 -29.314  1.00  0.00     0.185 C 
BRANCH  13  14
HETATM   14  C   UNL     1      -6.433   2.294 -30.113  1.00  0.00     0.227 C 
HETATM   15  N   UNL     1      -5.083   2.149 -30.382  1.00  0.00    -0.360 N 
HETATM   16  H   UNL     1      -4.421   2.704 -29.854  1.00  0.00     0.162 HD
HETATM   17  O   UNL     1      -7.293   1.532 -30.540  1.00  0.00    -0.273 OA
BRANCH  15  18
HETATM   18  C   UNL     1      -4.553   0.959 -31.032  1.00  0.00     0.127 C 
BRANCH  18  19
HETATM   19  C   UNL     1      -4.626   1.075 -32.557  1.00  0.00     0.058 C 
BRANCH  19  20
HETATM   20  C   UNL     1      -4.937  -0.250 -33.204  1.00  0.00    -0.057 A 
HETATM   21  C   UNL     1      -6.166  -0.460 -33.847  1.00  0.00     0.009 A 
HETATM   22  C   UNL     1      -6.468  -1.706 -34.404  1.00  0.00     0.025 A 
HETATM   23  C   UNL     1      -5.536  -2.743 -34.320  1.00  0.00     0.074 A 
HETATM   24  C   UNL     1      -4.311  -2.550 -33.678  1.00  0.00     0.025 A 
HETATM   25  C   UNL     1      -4.014  -1.305 -33.124  1.00  0.00     0.009 A 
BRANCH  23  26
HETATM   26  S   UNL     1      -5.940  -4.342 -34.961  1.00  0.00     0.239 S 
HETATM   27  O   UNL     1      -6.196  -4.229 -36.379  1.00  0.00    -0.206 OA
HETATM   28  O   UNL     1      -5.030  -5.317 -34.413  1.00  0.00    -0.206 OA
BRANCH  26  29
HETATM   29  N   UNL     1      -7.429  -4.640 -34.245  1.00  0.00    -0.225 NA
HETATM   30  H   UNL     1      -8.154  -4.688 -34.962  1.00  0.00     0.136 HD
HETATM   31  H   UNL     1      -7.370  -5.482 -33.669  1.00  0.00     0.136 HD
ENDBRANCH  26  29
ENDBRANCH  23  26
ENDBRANCH  19  20
ENDBRANCH  18  19
ENDBRANCH  15  18
ENDBRANCH  13  14
ENDBRANCH  12  13
ENDBRANCH   9  12
BRANCH  10  32
HETATM   32  C   UNL     1      -7.309   4.294 -33.387  1.00  0.00     0.043 A 
HETATM   33  C   UNL     1      -8.116   5.345 -33.833  1.00  0.00     0.033 A 
HETATM   34  C   UNL     1      -9.323   5.050 -34.465  1.00  0.00     0.039 A 
HETATM   35  C   UNL     1      -9.732   3.722 -34.642  1.00  0.00     0.076 A 
HETATM   36  C   UNL     1      -8.922   2.681 -34.170  1.00  0.00     0.039 A 
HETATM   37  C   UNL     1      -7.693   2.962 -33.559  1.00  0.00     0.033 A 
BRANCH  35  38
HETATM   38  O   UNL     1     -10.940   3.589 -35.288  1.00  0.00    -0.311 OA
BRANCH  38  39
HETATM   39  C   UNL     1     -11.965   2.923 -34.668  1.00  0.00     0.076 A 
HETATM   40  C   UNL     1     -12.343   1.683 -35.183  1.00  0.00     0.037 A 
HETATM   41  C   UNL     1     -13.325   0.935 -34.535  1.00  0.00     0.003 A 
HETATM   42  C   UNL     1     -13.919   1.425 -33.372  1.00  0.00     0.000 A 
HETATM   43  C   UNL     1     -13.521   2.656 -32.845  1.00  0.00     0.003 A 
HETATM   44  C   UNL     1     -12.530   3.401 -33.484  1.00  0.00     0.037 A 
ENDBRANCH  38  39
ENDBRANCH  35  38
ENDBRANCH  10  32
BRANCH  11  45
HETATM   45  N   UNL     1      -5.007   4.176 -35.002  1.00  0.00    -0.384 N 
HETATM   46  H   UNL     1      -5.367   4.777 -35.736  1.00  0.00     0.157 HD
HETATM   47  H   UNL     1      -5.161   3.186 -35.169  1.00  0.00     0.157 HD
ENDBRANCH  11  45
TORSDOF 12
ENDMDL
