MODEL 1
REMARK VINA RESULT:      -8.6      0.000      0.000
REMARK  2 active torsions:
REMARK  status: ('A' for Active; 'I' for Inactive)
REMARK    1  A    between atoms: C_2  and  C_3 
REMARK    2  A    between atoms: C_6  and  C_7 
ROOT
HETATM    1  C   UNL     1      -6.217   1.129 -33.222  1.00  0.00     0.119 C 
HETATM    2  S   UNL     1      -4.757   1.804 -32.394  1.00  0.00    -0.141 SA
HETATM    3  C   UNL     1      -5.281   2.145 -30.691  1.00  0.00     0.136 C 
HETATM    4  C   UNL     1      -6.160   3.380 -30.537  1.00  0.00     0.031 C 
HETATM    5  C   UNL     1      -5.788   0.921 -29.958  1.00  0.00     0.236 C 
HETATM    6  O   UNL     1      -5.179   0.375 -29.048  1.00  0.00    -0.272 OA
HETATM    7  N   UNL     1      -7.077   0.368 -30.204  1.00  0.00    -0.311 N 
HETATM    8  C   UNL     1      -7.894   0.710 -31.254  1.00  0.00     0.134 C 
HETATM    9  C   UNL     1      -7.539   1.109 -32.527  1.00  0.00     0.032 C 
HETATM   10  N   UNL     1      -9.260   0.660 -31.227  1.00  0.00    -0.262 N 
HETATM   11  H   UNL     1      -9.867   0.361 -30.472  1.00  0.00     0.191 HD
HETATM   12  N   UNL     1      -9.831   1.178 -32.318  1.00  0.00    -0.178 NA
HETATM   13  C   UNL     1      -8.801   1.432 -33.132  1.00  0.00     0.062 C 
HETATM   14  C   UNL     1      -9.068   1.962 -34.497  1.00  0.00     0.073 C 
HETATM   15  H   UNL     1      -7.403  -0.277 -29.492  1.00  0.00     0.170 HD
ENDROOT
BRANCH   1  16
HETATM   16  C   UNL     1      -6.010  -0.299 -33.719  1.00  0.00    -0.040 A 
HETATM   17  C   UNL     1      -4.829  -1.027 -33.485  1.00  0.00     0.009 A 
HETATM   18  C   UNL     1      -4.702  -2.353 -33.908  1.00  0.00     0.007 A 
HETATM   19  C   UNL     1      -5.746  -2.987 -34.586  1.00  0.00    -0.059 A 
HETATM   20  C   UNL     1      -6.917  -2.269 -34.845  1.00  0.00     0.007 A 
HETATM   21  C   UNL     1      -7.045  -0.944 -34.421  1.00  0.00     0.009 A 
BRANCH  19  22
HETATM   22  C   UNL     1      -5.625  -4.431 -35.000  1.00  0.00     0.034 C 
HETATM   23  C   UNL     1      -4.559  -5.156 -34.191  1.00  0.00     0.010 C 
ENDBRANCH  19  22
ENDBRANCH   1  16
TORSDOF 2
ENDMDL
MODEL 2
REMARK VINA RESULT:      -8.2      1.365      1.912
REMARK  2 active torsions:
REMARK  status: ('A' for Active; 'I' for Inactive)
REMARK    1  A    between atoms: C_2  and  C_3 
REMARK    2  A    between atoms: C_6  and  C_7 
ROOT
HETATM    1  C   UNL     1      -7.010   2.349 -33.637  1.00  0.00     0.119 C 
HETATM    2  S   UNL     1      -5.549   3.336 -33.229  1.00  0.00    -0.141 SA
HETATM    3  C   UNL     1      -5.830   3.940 -31.543  1.00  0.00     0.136 C 
HETATM    4  C   UNL     1      -6.843   5.073 -31.439  1.00  0.00     0.031 C 
HETATM    5  C   UNL     1      -6.021   2.834 -30.527  1.00  0.00     0.236 C 
HETATM    6  O   UNL     1      -5.197   2.549 -29.669  1.00  0.00    -0.272 OA
HETATM    7  N   UNL     1      -7.238   2.100 -30.426  1.00  0.00    -0.311 N 
HETATM    8  C   UNL     1      -8.258   2.134 -31.345  1.00  0.00     0.134 C 
HETATM    9  C   UNL     1      -8.181   2.314 -32.712  1.00  0.00     0.032 C 
HETATM   10  N   UNL     1      -9.579   1.935 -31.051  1.00  0.00    -0.262 N 
HETATM   11  H   UNL     1     -10.002   1.721 -30.154  1.00  0.00     0.191 HD
HETATM   12  N   UNL     1     -10.392   2.161 -32.087  1.00  0.00    -0.178 NA
HETATM   13  C   UNL     1      -9.560   2.367 -33.113  1.00  0.00     0.062 C 
HETATM   14  C   UNL     1     -10.123   2.586 -34.472  1.00  0.00     0.073 C 
HETATM   15  H   UNL     1      -7.344   1.573 -29.566  1.00  0.00     0.170 HD
ENDROOT
BRANCH   1  16
HETATM   16  C   UNL     1      -6.679   0.885 -33.912  1.00  0.00    -0.040 A 
HETATM   17  C   UNL     1      -7.396   0.099 -34.833  1.00  0.00     0.009 A 
HETATM   18  C   UNL     1      -7.024  -1.222 -35.098  1.00  0.00     0.007 A 
HETATM   19  C   UNL     1      -5.932  -1.799 -34.444  1.00  0.00    -0.059 A 
HETATM   20  C   UNL     1      -5.224  -1.037 -33.511  1.00  0.00     0.007 A 
HETATM   21  C   UNL     1      -5.596   0.284 -33.246  1.00  0.00     0.009 A 
BRANCH  19  22
HETATM   22  C   UNL     1      -5.505  -3.208 -34.766  1.00  0.00     0.034 C 
HETATM   23  C   UNL     1      -6.704  -4.123 -34.969  1.00  0.00     0.010 C 
ENDBRANCH  19  22
ENDBRANCH   1  16
TORSDOF 2
ENDMDL
MODEL 3
REMARK VINA RESULT:      -8.1      2.816      3.767
REMARK  2 active torsions:
REMARK  status: ('A' for Active; 'I' for Inactive)
REMARK    1  A    between atoms: C_2  and  C_3 
REMARK    2  A    between atoms: C_6  and  C_7 
ROOT
HETATM    1  C   UNL     1      -6.800   1.041 -31.943  1.00  0.00     0.119 C 
HETATM    2  S   UNL     1      -8.538   0.969 -31.445  1.00  0.00    -0.141 SA
HETATM    3  C   UNL     1      -9.302   2.459 -32.143  1.00  0.00     0.136 C 
HETATM    4  C   UNL     1      -8.960   3.747 -31.406  1.00  0.00     0.031 C 
HETATM    5  C   UNL     1      -9.186   2.550 -33.649  1.00  0.00     0.236 C 
HETATM    6  O   UNL     1     -10.131   2.408 -34.413  1.00  0.00    -0.272 OA
HETATM    7  N   UNL     1      -7.970   2.917 -34.296  1.00  0.00    -0.311 N 
HETATM    8  C   UNL     1      -6.744   2.999 -33.681  1.00  0.00     0.134 C 
HETATM    9  C   UNL     1      -6.259   2.253 -32.626  1.00  0.00     0.032 C 
HETATM   10  N   UNL     1      -5.735   3.838 -34.066  1.00  0.00    -0.262 N 
HETATM   11  H   UNL     1      -5.717   4.493 -34.840  1.00  0.00     0.191 HD
HETATM   12  N   UNL     1      -4.697   3.836 -33.226  1.00  0.00    -0.178 NA
HETATM   13  C   UNL     1      -4.984   2.860 -32.358  1.00  0.00     0.062 C 
HETATM   14  C   UNL     1      -3.998   2.518 -31.297  1.00  0.00     0.073 C 
HETATM   15  H   UNL     1      -8.074   3.189 -35.267  1.00  0.00     0.170 HD
ENDROOT
BRANCH   1  16
HETATM   16  C   UNL     1      -6.387  -0.130 -32.830  1.00  0.00    -0.040 A 
HETATM   17  C   UNL     1      -5.113  -0.724 -32.769  1.00  0.00     0.009 A 
HETATM   18  C   UNL     1      -4.795  -1.833 -33.558  1.00  0.00     0.007 A 
HETATM   19  C   UNL     1      -5.736  -2.374 -34.439  1.00  0.00    -0.059 A 
HETATM   20  C   UNL     1      -6.998  -1.780 -34.526  1.00  0.00     0.007 A 
HETATM   21  C   UNL     1      -7.317  -0.672 -33.736  1.00  0.00     0.009 A 
BRANCH  19  22
HETATM   22  C   UNL     1      -5.406  -3.598 -35.254  1.00  0.00     0.034 C 
HETATM   23  C   UNL     1      -6.595  -4.543 -35.346  1.00  0.00     0.010 C 
ENDBRANCH  19  22
ENDBRANCH   1  16
TORSDOF 2
ENDMDL
MODEL 4
REMARK VINA RESULT:      -8.1      1.575      2.048
REMARK  2 active torsions:
REMARK  status: ('A' for Active; 'I' for Inactive)
REMARK    1  A    between atoms: C_2  and  C_3 
REMARK    2  A    between atoms: C_6  and  C_7 
ROOT
HETATM    1  C   UNL     1      -6.040   1.600 -33.250  1.00  0.00     0.119 C 
HETATM    2  S   UNL     1      -5.128   3.133 -32.944  1.00  0.00    -0.141 SA
HETATM    3  C   UNL     1      -6.041   3.985 -31.629  1.00  0.00     0.136 C 
HETATM    4  C   UNL     1      -7.339   4.639 -32.085  1.00  0.00     0.031 C 
HETATM    5  C   UNL     1      -6.162   3.177 -30.355  1.00  0.00     0.236 C 
HETATM    6  O   UNL     1      -5.566   3.446 -29.321  1.00  0.00    -0.272 OA
HETATM    7  N   UNL     1      -7.073   2.088 -30.230  1.00  0.00    -0.311 N 
HETATM    8  C   UNL     1      -7.753   1.506 -31.272  1.00  0.00     0.134 C 
HETATM    9  C   UNL     1      -7.354   1.357 -32.585  1.00  0.00     0.032 C 
HETATM   10  N   UNL     1      -8.976   0.903 -31.164  1.00  0.00    -0.262 N 
HETATM   11  H   UNL     1      -9.547   0.776 -30.335  1.00  0.00     0.191 HD
HETATM   12  N   UNL     1      -9.493   0.542 -32.340  1.00  0.00    -0.178 NA
HETATM   13  C   UNL     1      -8.512   0.785 -33.215  1.00  0.00     0.062 C 
HETATM   14  C   UNL     1      -8.710   0.431 -34.647  1.00  0.00     0.073 C 
HETATM   15  H   UNL     1      -7.249   1.791 -29.276  1.00  0.00     0.170 HD
ENDROOT
BRANCH   1  16
HETATM   16  C   UNL     1      -5.213   0.350 -32.962  1.00  0.00    -0.040 A 
HETATM   17  C   UNL     1      -4.355   0.239 -31.853  1.00  0.00     0.009 A 
HETATM   18  C   UNL     1      -3.660  -0.945 -31.593  1.00  0.00     0.007 A 
HETATM   19  C   UNL     1      -3.793  -2.049 -32.440  1.00  0.00    -0.059 A 
HETATM   20  C   UNL     1      -4.625  -1.946 -33.558  1.00  0.00     0.007 A 
HETATM   21  C   UNL     1      -5.321  -0.762 -33.817  1.00  0.00     0.009 A 
BRANCH  19  22
HETATM   22  C   UNL     1      -3.079  -3.340 -32.133  1.00  0.00     0.034 C 
HETATM   23  C   UNL     1      -3.450  -4.433 -33.125  1.00  0.00     0.010 C 
ENDBRANCH  19  22
ENDBRANCH   1  16
TORSDOF 2
ENDMDL
MODEL 5
REMARK VINA RESULT:      -7.8      2.748      3.661
REMARK  2 active torsions:
REMARK  status: ('A' for Active; 'I' for Inactive)
REMARK    1  A    between atoms: C_2  and  C_3 
REMARK    2  A    between atoms: C_6  and  C_7 
ROOT
HETATM    1  C   UNL     1      -5.403   1.756 -31.500  1.00  0.00     0.119 C 
HETATM    2  S   UNL     1      -6.484   1.650 -30.053  1.00  0.00    -0.141 SA
HETATM    3  C   UNL     1      -7.701   2.979 -30.261  1.00  0.00     0.136 C 
HETATM    4  C   UNL     1      -7.163   4.376 -29.978  1.00  0.00     0.031 C 
HETATM    5  C   UNL     1      -8.509   2.866 -31.536  1.00  0.00     0.236 C 
HETATM    6  O   UNL     1      -9.694   2.562 -31.564  1.00  0.00    -0.272 OA
HETATM    7  N   UNL     1      -7.970   3.211 -32.809  1.00  0.00    -0.311 N 
HETATM    8  C   UNL     1      -6.642   3.451 -33.063  1.00  0.00     0.134 C 
HETATM    9  C   UNL     1      -5.534   2.891 -32.460  1.00  0.00     0.032 C 
HETATM   10  N   UNL     1      -6.175   4.288 -34.040  1.00  0.00    -0.262 N 
HETATM   11  H   UNL     1      -6.704   4.828 -34.715  1.00  0.00     0.191 HD
HETATM   12  N   UNL     1      -4.852   4.466 -33.996  1.00  0.00    -0.178 NA
HETATM   13  C   UNL     1      -4.440   3.604 -33.059  1.00  0.00     0.062 C 
HETATM   14  C   UNL     1      -2.984   3.474 -32.782  1.00  0.00     0.073 C 
HETATM   15  H   UNL     1      -8.662   3.339 -33.540  1.00  0.00     0.170 HD
ENDROOT
BRANCH   1  16
HETATM   16  C   UNL     1      -5.443   0.499 -32.364  1.00  0.00    -0.040 A 
HETATM   17  C   UNL     1      -6.643  -0.131 -32.743  1.00  0.00     0.009 A 
HETATM   18  C   UNL     1      -6.639  -1.247 -33.584  1.00  0.00     0.007 A 
HETATM   19  C   UNL     1      -5.435  -1.773 -34.063  1.00  0.00    -0.059 A 
HETATM   20  C   UNL     1      -4.234  -1.170 -33.677  1.00  0.00     0.007 A 
HETATM   21  C   UNL     1      -4.239  -0.054 -32.837  1.00  0.00     0.009 A 
BRANCH  19  22
HETATM   22  C   UNL     1      -5.435  -2.948 -35.007  1.00  0.00     0.034 C 
HETATM   23  C   UNL     1      -6.703  -3.777 -34.866  1.00  0.00     0.010 C 
ENDBRANCH  19  22
ENDBRANCH   1  16
TORSDOF 2
ENDMDL
MODEL 6
REMARK VINA RESULT:      -7.7      2.038      2.437
REMARK  2 active torsions:
REMARK  status: ('A' for Active; 'I' for Inactive)
REMARK    1  A    between atoms: C_2  and  C_3 
REMARK    2  A    between atoms: C_6  and  C_7 
ROOT
HETATM    1  C   UNL     1      -7.101   2.925 -33.693  1.00  0.00     0.119 C 
HETATM    2  S   UNL     1      -5.711   4.015 -34.080  1.00  0.00    -0.141 SA
HETATM    3  C   UNL     1      -5.234   4.770 -32.502  1.00  0.00     0.136 C 
HETATM    4  C   UNL     1      -6.181   5.858 -32.011  1.00  0.00     0.031 C 
HETATM    5  C   UNL     1      -4.838   3.762 -31.444  1.00  0.00     0.236 C 
HETATM    6  O   UNL     1      -3.690   3.603 -31.053  1.00  0.00    -0.272 OA
HETATM    7  N   UNL     1      -5.802   2.984 -30.738  1.00  0.00    -0.311 N 
HETATM    8  C   UNL     1      -7.129   2.879 -31.075  1.00  0.00     0.134 C 
HETATM    9  C   UNL     1      -7.706   2.926 -32.328  1.00  0.00     0.032 C 
HETATM   10  N   UNL     1      -8.143   2.648 -30.186  1.00  0.00    -0.262 N 
HETATM   11  H   UNL     1      -8.084   2.504 -29.184  1.00  0.00     0.191 HD
HETATM   12  N   UNL     1      -9.357   2.731 -30.735  1.00  0.00    -0.178 NA
HETATM   13  C   UNL     1      -9.113   2.874 -32.042  1.00  0.00     0.062 C 
HETATM   14  C   UNL     1     -10.257   2.931 -32.993  1.00  0.00     0.073 C 
HETATM   15  H   UNL     1      -5.452   2.541 -29.896  1.00  0.00     0.170 HD
ENDROOT
BRANCH   1  16
HETATM   16  C   UNL     1      -6.807   1.458 -33.994  1.00  0.00    -0.040 A 
HETATM   17  C   UNL     1      -5.718   0.766 -33.434  1.00  0.00     0.009 A 
HETATM   18  C   UNL     1      -5.517  -0.594 -33.690  1.00  0.00     0.007 A 
HETATM   19  C   UNL     1      -6.393  -1.298 -34.521  1.00  0.00    -0.059 A 
HETATM   20  C   UNL     1      -7.467  -0.618 -35.101  1.00  0.00     0.007 A 
HETATM   21  C   UNL     1      -7.668   0.741 -34.845  1.00  0.00     0.009 A 
BRANCH  19  22
HETATM   22  C   UNL     1      -6.201  -2.774 -34.758  1.00  0.00     0.034 C 
HETATM   23  C   UNL     1      -4.736  -3.171 -34.651  1.00  0.00     0.010 C 
ENDBRANCH  19  22
ENDBRANCH   1  16
TORSDOF 2
ENDMDL
MODEL 7
REMARK VINA RESULT:      -7.3      3.521      5.685
REMARK  2 active torsions:
REMARK  status: ('A' for Active; 'I' for Inactive)
REMARK    1  A    between atoms: C_2  and  C_3 
REMARK    2  A    between atoms: C_6  and  C_7 
ROOT
HETATM    1  C   UNL     1      -5.778   2.785 -32.039  1.00  0.00     0.119 C 
HETATM    2  S   UNL     1      -5.299   2.284 -30.367  1.00  0.00    -0.141 SA
HETATM    3  C   UNL     1      -5.274   0.471 -30.395  1.00  0.00     0.136 C 
HETATM    4  C   UNL     1      -6.653  -0.179 -30.387  1.00  0.00     0.031 C 
HETATM    5  C   UNL     1      -4.317  -0.106 -31.416  1.00  0.00     0.236 C 
HETATM    6  O   UNL     1      -3.272  -0.672 -31.124  1.00  0.00    -0.272 OA
HETATM    7  N   UNL     1      -4.615  -0.126 -32.810  1.00  0.00    -0.311 N 
HETATM    8  C   UNL     1      -5.649   0.555 -33.404  1.00  0.00     0.134 C 
HETATM    9  C   UNL     1      -6.205   1.764 -33.041  1.00  0.00     0.032 C 
HETATM   10  N   UNL     1      -6.296   0.152 -34.540  1.00  0.00    -0.262 N 
HETATM   11  H   UNL     1      -6.117  -0.665 -35.114  1.00  0.00     0.191 HD
HETATM   12  N   UNL     1      -7.358   0.904 -34.839  1.00  0.00    -0.178 NA
HETATM   13  C   UNL     1      -7.305   1.906 -33.955  1.00  0.00     0.062 C 
HETATM   14  C   UNL     1      -8.313   2.998 -34.033  1.00  0.00     0.073 C 
HETATM   15  H   UNL     1      -4.033  -0.751 -33.357  1.00  0.00     0.170 HD
ENDROOT
BRANCH   1  16
HETATM   16  C   UNL     1      -4.702   3.606 -32.743  1.00  0.00    -0.040 A 
HETATM   17  C   UNL     1      -5.000   4.648 -33.640  1.00  0.00     0.009 A 
HETATM   18  C   UNL     1      -3.985   5.414 -34.221  1.00  0.00     0.007 A 
HETATM   19  C   UNL     1      -2.642   5.153 -33.930  1.00  0.00    -0.059 A 
HETATM   20  C   UNL     1      -2.331   4.107 -33.058  1.00  0.00     0.007 A 
HETATM   21  C   UNL     1      -3.346   3.342 -32.477  1.00  0.00     0.009 A 
BRANCH  19  22
HETATM   22  C   UNL     1      -1.552   6.010 -34.520  1.00  0.00     0.034 C 
HETATM   23  C   UNL     1      -1.139   7.122 -33.567  1.00  0.00     0.010 C 
ENDBRANCH  19  22
ENDBRANCH   1  16
TORSDOF 2
ENDMDL
MODEL 8
REMARK VINA RESULT:      -7.3      3.277      5.722
REMARK  2 active torsions:
REMARK  status: ('A' for Active; 'I' for Inactive)
REMARK    1  A    between atoms: C_2  and  C_3 
REMARK    2  A    between atoms: C_6  and  C_7 
ROOT
HETATM    1  C   UNL     1      -6.218   1.574 -33.058  1.00  0.00     0.119 C 
HETATM    2  S   UNL     1      -7.726   1.668 -34.053  1.00  0.00    -0.141 SA
HETATM    3  C   UNL     1      -9.091   1.709 -32.859  1.00  0.00     0.136 C 
HETATM    4  C   UNL     1      -9.395   0.368 -32.203  1.00  0.00     0.031 C 
HETATM    5  C   UNL     1      -9.018   2.874 -31.897  1.00  0.00     0.236 C 
HETATM    6  O   UNL     1      -9.782   3.830 -31.928  1.00  0.00    -0.272 OA
HETATM    7  N   UNL     1      -8.108   2.897 -30.800  1.00  0.00    -0.311 N 
HETATM    8  C   UNL     1      -7.067   2.020 -30.621  1.00  0.00     0.134 C 
HETATM    9  C   UNL     1      -6.298   1.389 -31.579  1.00  0.00     0.032 C 
HETATM   10  N   UNL     1      -6.562   1.647 -29.406  1.00  0.00    -0.262 N 
HETATM   11  H   UNL     1      -6.845   1.955 -28.482  1.00  0.00     0.191 HD
HETATM   12  N   UNL     1      -5.650   0.676 -29.488  1.00  0.00    -0.178 NA
HETATM   13  C   UNL     1      -5.456   0.523 -30.802  1.00  0.00     0.062 C 
HETATM   14  C   UNL     1      -4.433  -0.448 -31.277  1.00  0.00     0.073 C 
HETATM   15  H   UNL     1      -8.319   3.591 -30.091  1.00  0.00     0.170 HD
ENDROOT
BRANCH   1  16
HETATM   16  C   UNL     1      -5.300   2.777 -33.257  1.00  0.00    -0.040 A 
HETATM   17  C   UNL     1      -4.017   2.863 -32.684  1.00  0.00     0.009 A 
HETATM   18  C   UNL     1      -3.185   3.956 -32.938  1.00  0.00     0.007 A 
HETATM   19  C   UNL     1      -3.613   5.001 -33.763  1.00  0.00    -0.059 A 
HETATM   20  C   UNL     1      -4.893   4.939 -34.321  1.00  0.00     0.007 A 
HETATM   21  C   UNL     1      -5.725   3.845 -34.067  1.00  0.00     0.009 A 
BRANCH  19  22
HETATM   22  C   UNL     1      -2.697   6.156 -34.074  1.00  0.00     0.034 C 
HETATM   23  C   UNL     1      -1.338   5.675 -34.563  1.00  0.00     0.010 C 
ENDBRANCH  19  22
ENDBRANCH   1  16
TORSDOF 2
ENDMDL
MODEL 9
REMARK VINA RESULT:      -7.1     13.973     15.294
REMARK  2 active torsions:
REMARK  status: ('A' for Active; 'I' for Inactive)
REMARK    1  A    between atoms: C_2  and  C_3 
REMARK    2  A    between atoms: C_6  and  C_7 
ROOT
HETATM    1  C   UNL     1      -5.540 -14.913 -37.813  1.00  0.00     0.119 C 
HETATM    2  S   UNL     1      -6.018 -15.654 -36.233  1.00  0.00    -0.141 SA
HETATM    3  C   UNL     1      -4.892 -14.940 -35.004  1.00  0.00     0.136 C 
HETATM    4  C   UNL     1      -3.477 -15.503 -35.043  1.00  0.00     0.031 C 
HETATM    5  C   UNL     1      -4.962 -13.430 -34.924  1.00  0.00     0.236 C 
HETATM    6  O   UNL     1      -5.450 -12.822 -33.981  1.00  0.00    -0.272 OA
HETATM    7  N   UNL     1      -4.363 -12.589 -35.906  1.00  0.00    -0.311 N 
HETATM    8  C   UNL     1      -3.875 -13.016 -37.117  1.00  0.00     0.134 C 
HETATM    9  C   UNL     1      -4.322 -14.055 -37.908  1.00  0.00     0.032 C 
HETATM   10  N   UNL     1      -2.849 -12.421 -37.797  1.00  0.00    -0.262 N 
HETATM   11  H   UNL     1      -2.316 -11.596 -37.542  1.00  0.00     0.191 HD
HETATM   12  N   UNL     1      -2.463 -13.104 -38.878  1.00  0.00    -0.178 NA
HETATM   13  C   UNL     1      -3.364 -14.087 -38.978  1.00  0.00     0.062 C 
HETATM   14  C   UNL     1      -3.290 -15.026 -40.130  1.00  0.00     0.073 C 
HETATM   15  H   UNL     1      -4.253 -11.622 -35.623  1.00  0.00     0.170 HD
ENDROOT
BRANCH   1  16
HETATM   16  C   UNL     1      -6.657 -14.086 -38.443  1.00  0.00    -0.040 A 
HETATM   17  C   UNL     1      -6.508 -13.405 -39.665  1.00  0.00     0.009 A 
HETATM   18  C   UNL     1      -7.575 -12.705 -40.237  1.00  0.00     0.007 A 
HETATM   19  C   UNL     1      -8.818 -12.657 -39.598  1.00  0.00    -0.059 A 
HETATM   20  C   UNL     1      -8.974 -13.311 -38.373  1.00  0.00     0.007 A 
HETATM   21  C   UNL     1      -7.907 -14.011 -37.802  1.00  0.00     0.009 A 
BRANCH  19  22
HETATM   22  C   UNL     1      -9.980 -11.942 -40.239  1.00  0.00     0.034 C 
HETATM   23  C   UNL     1     -11.190 -12.855 -40.376  1.00  0.00     0.010 C 
ENDBRANCH  19  22
ENDBRANCH   1  16
TORSDOF 2
ENDMDL
MODEL 10
REMARK VINA RESULT:      -7.0      3.073      5.063
REMARK  2 active torsions:
REMARK  status: ('A' for Active; 'I' for Inactive)
REMARK    1  A    between atoms: C_2  and  C_3 
REMARK    2  A    between atoms: C_6  and  C_7 
ROOT
HETATM    1  C   UNL     1      -7.775   2.735 -33.071  1.00  0.00     0.119 C 
HETATM    2  S   UNL     1      -6.521   1.772 -33.950  1.00  0.00    -0.141 SA
HETATM    3  C   UNL     1      -5.356   1.217 -32.675  1.00  0.00     0.136 C 
HETATM    4  C   UNL     1      -4.419   2.303 -32.162  1.00  0.00     0.031 C 
HETATM    5  C   UNL     1      -6.000   0.382 -31.589  1.00  0.00     0.236 C 
HETATM    6  O   UNL     1      -5.819  -0.821 -31.460  1.00  0.00    -0.272 OA
HETATM    7  N   UNL     1      -6.795   0.961 -30.558  1.00  0.00    -0.311 N 
HETATM    8  C   UNL     1      -7.255   2.255 -30.550  1.00  0.00     0.134 C 
HETATM    9  C   UNL     1      -7.608   3.050 -31.622  1.00  0.00     0.032 C 
HETATM   10  N   UNL     1      -7.501   2.987 -29.421  1.00  0.00    -0.262 N 
HETATM   11  H   UNL     1      -7.407   2.706 -28.452  1.00  0.00     0.191 HD
HETATM   12  N   UNL     1      -7.804   4.263 -29.674  1.00  0.00    -0.178 NA
HETATM   13  C   UNL     1      -7.899   4.316 -31.007  1.00  0.00     0.062 C 
HETATM   14  C   UNL     1      -8.299   5.593 -31.657  1.00  0.00     0.073 C 
HETATM   15  H   UNL     1      -6.958   0.356 -29.760  1.00  0.00     0.170 HD
ENDROOT
BRANCH   1  16
HETATM   16  C   UNL     1      -9.173   2.134 -33.186  1.00  0.00    -0.040 A 
HETATM   17  C   UNL     1     -10.315   2.904 -33.472  1.00  0.00     0.009 A 
HETATM   18  C   UNL     1     -11.570   2.307 -33.626  1.00  0.00     0.007 A 
HETATM   19  C   UNL     1     -11.721   0.924 -33.489  1.00  0.00    -0.059 A 
HETATM   20  C   UNL     1     -10.598   0.149 -33.183  1.00  0.00     0.007 A 
HETATM   21  C   UNL     1      -9.344   0.747 -33.030  1.00  0.00     0.009 A 
BRANCH  19  22
HETATM   22  C   UNL     1     -13.065   0.276 -33.701  1.00  0.00     0.034 C 
HETATM   23  C   UNL     1     -14.201   1.266 -33.488  1.00  0.00     0.010 C 
ENDBRANCH  19  22
ENDBRANCH   1  16
TORSDOF 2
ENDMDL
