MODEL 1
REMARK VINA RESULT:      -8.1      0.000      0.000
REMARK  9 active torsions:
REMARK  status: ('A' for Active; 'I' for Inactive)
REMARK    1  A    between atoms: C_3  and  N_4 
REMARK       I    between atoms: N_4  and  C_5 
REMARK    2  A    between atoms: C_5  and  C_6 
REMARK    3  A    between atoms: C_13  and  C_14 
REMARK    4  A    between atoms: C_14  and  O_15 
REMARK    5  A    between atoms: O_15  and  C_16 
REMARK    6  A    between atoms: C_16  and  C_17 
REMARK       I    between atoms: C_17  and  N_18 
REMARK    7  A    between atoms: N_18  and  C_19 
REMARK    8  A    between atoms: C_19  and  C_20 
REMARK    9  A    between atoms: C_22  and  O_23 
ROOT
HETATM    1  C   UNL     1      -3.723  -1.764 -32.478  1.00  0.00     0.293 C 
HETATM    2  O   UNL     1      -3.206  -2.668 -31.838  1.00  0.00    -0.259 OA
ENDROOT
BRANCH   1   3
HETATM    3  C   UNL     1      -4.232  -0.514 -31.858  1.00  0.00     0.041 A 
HETATM    4  C   UNL     1      -3.361   0.583 -31.795  1.00  0.00     0.047 A 
HETATM    5  C   UNL     1      -3.763   1.800 -31.233  1.00  0.00     0.042 A 
HETATM    6  C   UNL     1      -5.066   1.908 -30.703  1.00  0.00    -0.035 A 
HETATM    7  C   UNL     1      -5.579   3.170 -30.058  1.00  0.00     0.050 C 
HETATM    8  C   UNL     1      -5.929   0.797 -30.756  1.00  0.00     0.010 A 
HETATM    9  C   UNL     1      -5.520  -0.404 -31.338  1.00  0.00     0.018 A 
BRANCH   5  10
HETATM   10  N   UNL     1      -2.895   2.912 -31.167  1.00  0.00    -0.321 N 
HETATM   11  C   UNL     1      -2.663   3.872 -32.140  1.00  0.00     0.279 C 
HETATM   12  O   UNL     1      -3.245   3.944 -33.217  1.00  0.00    -0.265 OA
HETATM   13  H   UNL     1      -2.410   3.084 -30.294  1.00  0.00     0.169 HD
BRANCH  11  14
HETATM   14  C   UNL     1      -1.669   4.853 -31.741  1.00  0.00     0.142 A 
HETATM   15  O   UNL     1      -0.689   4.500 -30.847  1.00  0.00    -0.317 OA
HETATM   16  C   UNL     1       0.093   5.595 -30.663  1.00  0.00     0.143 A 
HETATM   17  C   UNL     1      -0.367   6.651 -31.412  1.00  0.00     0.027 A 
HETATM   18  C   UNL     1      -1.503   6.174 -32.108  1.00  0.00     0.045 A 
ENDBRANCH  11  14
ENDBRANCH   5  10
ENDBRANCH   1   3
BRANCH   1  19
HETATM   19  O   UNL     1      -3.851  -1.735 -33.825  1.00  0.00    -0.308 OA
BRANCH  19  20
HETATM   20  C   UNL     1      -4.677  -2.762 -34.382  1.00  0.00     0.281 C 
BRANCH  20  21
HETATM   21  C   UNL     1      -6.135  -2.352 -34.626  1.00  0.00     0.242 C 
HETATM   22  N   UNL     1      -6.314  -1.016 -34.901  1.00  0.00    -0.355 N 
HETATM   23  H   UNL     1      -5.506  -0.398 -34.841  1.00  0.00     0.162 HD
HETATM   24  O   UNL     1      -7.053  -3.169 -34.613  1.00  0.00    -0.271 OA
BRANCH  22  25
HETATM   25  C   UNL     1      -7.619  -0.416 -35.030  1.00  0.00     0.161 C 
BRANCH  25  26
HETATM   26  C   UNL     1      -7.722   0.877 -34.258  1.00  0.00    -0.038 A 
HETATM   27  C   UNL     1      -8.811   1.124 -33.403  1.00  0.00     0.045 A 
HETATM   28  C   UNL     1      -8.897   2.323 -32.690  1.00  0.00     0.068 A 
HETATM   29  C   UNL     1      -7.884   3.275 -32.826  1.00  0.00     0.037 A 
HETATM   30  C   UNL     1      -6.804   3.046 -33.676  1.00  0.00     0.003 A 
HETATM   31  C   UNL     1      -6.726   1.854 -34.393  1.00  0.00     0.009 A 
BRANCH  28  32
HETATM   32  O   UNL     1      -9.902   2.681 -31.832  1.00  0.00    -0.356 OA
HETATM   33  C   UNL     1      -9.506   3.176 -30.560  1.00  0.00     0.210 C 
ENDBRANCH  28  32
ENDBRANCH  25  26
ENDBRANCH  22  25
ENDBRANCH  20  21
ENDBRANCH  19  20
ENDBRANCH   1  19
TORSDOF 9
ENDMDL
MODEL 2
REMARK VINA RESULT:      -7.7      2.355      8.120
REMARK  9 active torsions:
REMARK  status: ('A' for Active; 'I' for Inactive)
REMARK    1  A    between atoms: C_3  and  N_4 
REMARK       I    between atoms: N_4  and  C_5 
REMARK    2  A    between atoms: C_5  and  C_6 
REMARK    3  A    between atoms: C_13  and  C_14 
REMARK    4  A    between atoms: C_14  and  O_15 
REMARK    5  A    between atoms: O_15  and  C_16 
REMARK    6  A    between atoms: C_16  and  C_17 
REMARK       I    between atoms: C_17  and  N_18 
REMARK    7  A    between atoms: N_18  and  C_19 
REMARK    8  A    between atoms: C_19  and  C_20 
REMARK    9  A    between atoms: C_22  and  O_23 
ROOT
HETATM    1  C   UNL     1      -6.005   4.859 -33.834  1.00  0.00     0.293 C 
HETATM    2  O   UNL     1      -7.099   5.005 -34.358  1.00  0.00    -0.259 OA
ENDROOT
BRANCH   1   3
HETATM    3  C   UNL     1      -5.667   3.708 -32.960  1.00  0.00     0.041 A 
HETATM    4  C   UNL     1      -5.894   2.419 -33.463  1.00  0.00     0.047 A 
HETATM    5  C   UNL     1      -5.597   1.279 -32.706  1.00  0.00     0.042 A 
HETATM    6  C   UNL     1      -5.079   1.442 -31.404  1.00  0.00    -0.035 A 
HETATM    7  C   UNL     1      -4.751   0.275 -30.508  1.00  0.00     0.050 C 
HETATM    8  C   UNL     1      -4.869   2.740 -30.900  1.00  0.00     0.010 A 
HETATM    9  C   UNL     1      -5.151   3.866 -31.674  1.00  0.00     0.018 A 
BRANCH   5  10
HETATM   10  N   UNL     1      -5.818  -0.024 -33.205  1.00  0.00    -0.321 N 
HETATM   11  C   UNL     1      -4.880  -0.925 -33.682  1.00  0.00     0.279 C 
HETATM   12  O   UNL     1      -3.665  -0.750 -33.683  1.00  0.00    -0.265 OA
HETATM   13  H   UNL     1      -6.763  -0.390 -33.171  1.00  0.00     0.169 HD
BRANCH  11  14
HETATM   14  C   UNL     1      -5.474  -2.162 -34.156  1.00  0.00     0.142 A 
HETATM   15  O   UNL     1      -4.678  -3.262 -34.362  1.00  0.00    -0.317 OA
HETATM   16  C   UNL     1      -5.488  -4.263 -34.793  1.00  0.00     0.143 A 
HETATM   17  C   UNL     1      -6.790  -3.831 -34.878  1.00  0.00     0.027 A 
HETATM   18  C   UNL     1      -6.783  -2.477 -34.467  1.00  0.00     0.045 A 
ENDBRANCH  11  14
ENDBRANCH   5  10
ENDBRANCH   1   3
BRANCH   1  19
HETATM   19  O   UNL     1      -4.937   5.670 -34.016  1.00  0.00    -0.308 OA
BRANCH  19  20
HETATM   20  C   UNL     1      -3.998   5.231 -35.003  1.00  0.00     0.281 C 
BRANCH  20  21
HETATM   21  C   UNL     1      -2.534   5.564 -34.690  1.00  0.00     0.242 C 
HETATM   22  N   UNL     1      -2.361   6.492 -33.690  1.00  0.00    -0.355 N 
HETATM   23  H   UNL     1      -3.188   6.940 -33.298  1.00  0.00     0.162 HD
HETATM   24  O   UNL     1      -1.601   5.010 -35.268  1.00  0.00    -0.271 OA
BRANCH  22  25
HETATM   25  C   UNL     1      -1.069   7.030 -33.341  1.00  0.00     0.161 C 
BRANCH  25  26
HETATM   26  C   UNL     1      -0.677   6.678 -31.927  1.00  0.00    -0.038 A 
HETATM   27  C   UNL     1      -0.988   7.535 -30.855  1.00  0.00     0.045 A 
HETATM   28  C   UNL     1      -0.622   7.200 -29.549  1.00  0.00     0.068 A 
HETATM   29  C   UNL     1       0.048   5.997 -29.312  1.00  0.00     0.037 A 
HETATM   30  C   UNL     1       0.368   5.143 -30.366  1.00  0.00     0.003 A 
HETATM   31  C   UNL     1       0.012   5.485 -31.669  1.00  0.00     0.009 A 
BRANCH  28  32
HETATM   32  O   UNL     1      -0.863   7.946 -28.427  1.00  0.00    -0.356 OA
HETATM   33  C   UNL     1      -1.818   7.427 -27.511  1.00  0.00     0.210 C 
ENDBRANCH  28  32
ENDBRANCH  25  26
ENDBRANCH  22  25
ENDBRANCH  20  21
ENDBRANCH  19  20
ENDBRANCH   1  19
TORSDOF 9
ENDMDL
MODEL 3
REMARK VINA RESULT:      -7.6      2.376      5.672
REMARK  9 active torsions:
REMARK  status: ('A' for Active; 'I' for Inactive)
REMARK    1  A    between atoms: C_3  and  N_4 
REMARK       I    between atoms: N_4  and  C_5 
REMARK    2  A    between atoms: C_5  and  C_6 
REMARK    3  A    between atoms: C_13  and  C_14 
REMARK    4  A    between atoms: C_14  and  O_15 
REMARK    5  A    between atoms: O_15  and  C_16 
REMARK    6  A    between atoms: C_16  and  C_17 
REMARK       I    between atoms: C_17  and  N_18 
REMARK    7  A    between atoms: N_18  and  C_19 
REMARK    8  A    between atoms: C_19  and  C_20 
REMARK    9  A    between atoms: C_22  and  O_23 
ROOT
HETATM    1  C   UNL     1      -6.403   4.904 -33.256  1.00  0.00     0.293 C 
HETATM    2  O   UNL     1      -7.325   5.140 -34.022  1.00  0.00    -0.259 OA
ENDROOT
BRANCH   1   3
HETATM    3  C   UNL     1      -4.978   5.150 -33.593  1.00  0.00     0.041 A 
HETATM    4  C   UNL     1      -4.125   5.559 -32.558  1.00  0.00     0.047 A 
HETATM    5  C   UNL     1      -2.767   5.807 -32.789  1.00  0.00     0.042 A 
HETATM    6  C   UNL     1      -2.261   5.660 -34.097  1.00  0.00    -0.035 A 
HETATM    7  C   UNL     1      -0.819   5.927 -34.446  1.00  0.00     0.050 C 
HETATM    8  C   UNL     1      -3.127   5.265 -35.134  1.00  0.00     0.010 A 
HETATM    9  C   UNL     1      -4.475   5.002 -34.884  1.00  0.00     0.018 A 
BRANCH   5  10
HETATM   10  N   UNL     1      -1.898   6.216 -31.753  1.00  0.00    -0.321 N 
HETATM   11  C   UNL     1      -1.128   5.418 -30.921  1.00  0.00     0.279 C 
HETATM   12  O   UNL     1      -1.028   4.198 -31.003  1.00  0.00    -0.265 OA
HETATM   13  H   UNL     1      -1.762   7.211 -31.614  1.00  0.00     0.169 HD
BRANCH  11  14
HETATM   14  C   UNL     1      -0.384   6.182 -29.936  1.00  0.00     0.142 A 
HETATM   15  O   UNL     1       0.069   5.563 -28.798  1.00  0.00    -0.317 OA
HETATM   16  C   UNL     1       0.728   6.501 -28.070  1.00  0.00     0.143 A 
HETATM   17  C   UNL     1       0.702   7.717 -28.710  1.00  0.00     0.027 A 
HETATM   18  C   UNL     1      -0.014   7.513 -29.914  1.00  0.00     0.045 A 
ENDBRANCH  11  14
ENDBRANCH   5  10
ENDBRANCH   1   3
BRANCH   1  19
HETATM   19  O   UNL     1      -6.538   4.450 -31.988  1.00  0.00    -0.308 OA
BRANCH  19  20
HETATM   20  C   UNL     1      -7.187   3.181 -31.859  1.00  0.00     0.281 C 
BRANCH  20  21
HETATM   21  C   UNL     1      -6.251   2.009 -31.540  1.00  0.00     0.242 C 
HETATM   22  N   UNL     1      -5.424   1.641 -32.576  1.00  0.00    -0.355 N 
HETATM   23  H   UNL     1      -5.545   2.101 -33.477  1.00  0.00     0.162 HD
HETATM   24  O   UNL     1      -6.226   1.477 -30.432  1.00  0.00    -0.271 OA
BRANCH  22  25
HETATM   25  C   UNL     1      -4.567   0.483 -32.514  1.00  0.00     0.161 C 
BRANCH  25  26
HETATM   26  C   UNL     1      -5.116  -0.666 -33.325  1.00  0.00    -0.038 A 
HETATM   27  C   UNL     1      -4.396  -1.867 -33.457  1.00  0.00     0.045 A 
HETATM   28  C   UNL     1      -4.913  -2.926 -34.208  1.00  0.00     0.068 A 
HETATM   29  C   UNL     1      -6.162  -2.787 -34.820  1.00  0.00     0.037 A 
HETATM   30  C   UNL     1      -6.881  -1.599 -34.703  1.00  0.00     0.003 A 
HETATM   31  C   UNL     1      -6.358  -0.541 -33.962  1.00  0.00     0.009 A 
BRANCH  28  32
HETATM   32  O   UNL     1      -4.312  -4.138 -34.413  1.00  0.00    -0.356 OA
HETATM   33  C   UNL     1      -3.446  -4.602 -33.386  1.00  0.00     0.210 C 
ENDBRANCH  28  32
ENDBRANCH  25  26
ENDBRANCH  22  25
ENDBRANCH  20  21
ENDBRANCH  19  20
ENDBRANCH   1  19
TORSDOF 9
ENDMDL
MODEL 4
REMARK VINA RESULT:      -7.5      2.164      5.222
REMARK  9 active torsions:
REMARK  status: ('A' for Active; 'I' for Inactive)
REMARK    1  A    between atoms: C_3  and  N_4 
REMARK       I    between atoms: N_4  and  C_5 
REMARK    2  A    between atoms: C_5  and  C_6 
REMARK    3  A    between atoms: C_13  and  C_14 
REMARK    4  A    between atoms: C_14  and  O_15 
REMARK    5  A    between atoms: O_15  and  C_16 
REMARK    6  A    between atoms: C_16  and  C_17 
REMARK       I    between atoms: C_17  and  N_18 
REMARK    7  A    between atoms: N_18  and  C_19 
REMARK    8  A    between atoms: C_19  and  C_20 
REMARK    9  A    between atoms: C_22  and  O_23 
ROOT
HETATM    1  C   UNL     1      -3.711   2.013 -32.168  1.00  0.00     0.293 C 
HETATM    2  O   UNL     1      -3.373   0.940 -32.646  1.00  0.00    -0.259 OA
ENDROOT
BRANCH   1   3
HETATM    3  C   UNL     1      -2.974   3.280 -32.403  1.00  0.00     0.041 A 
HETATM    4  C   UNL     1      -2.416   3.925 -31.289  1.00  0.00     0.047 A 
HETATM    5  C   UNL     1      -1.700   5.120 -31.423  1.00  0.00     0.042 A 
HETATM    6  C   UNL     1      -1.560   5.690 -32.706  1.00  0.00    -0.035 A 
HETATM    7  C   UNL     1      -0.828   6.986 -32.944  1.00  0.00     0.050 C 
HETATM    8  C   UNL     1      -2.138   5.045 -33.816  1.00  0.00     0.010 A 
HETATM    9  C   UNL     1      -2.832   3.844 -33.670  1.00  0.00     0.018 A 
BRANCH   5  10
HETATM   10  N   UNL     1      -1.130   5.776 -30.309  1.00  0.00    -0.321 N 
HETATM   11  C   UNL     1       0.078   5.505 -29.686  1.00  0.00     0.279 C 
HETATM   12  O   UNL     1       0.897   4.671 -30.059  1.00  0.00    -0.265 OA
HETATM   13  H   UNL     1      -1.618   6.580 -29.933  1.00  0.00     0.169 HD
BRANCH  11  14
HETATM   14  C   UNL     1       0.325   6.358 -28.537  1.00  0.00     0.142 A 
HETATM   15  O   UNL     1      -0.198   6.018 -27.314  1.00  0.00    -0.317 OA
HETATM   16  C   UNL     1       0.190   6.977 -26.435  1.00  0.00     0.143 A 
HETATM   17  C   UNL     1       0.946   7.936 -27.066  1.00  0.00     0.027 A 
HETATM   18  C   UNL     1       1.034   7.538 -28.422  1.00  0.00     0.045 A 
ENDBRANCH  11  14
ENDBRANCH   5  10
ENDBRANCH   1   3
BRANCH   1  19
HETATM   19  O   UNL     1      -4.821   2.220 -31.420  1.00  0.00    -0.308 OA
BRANCH  19  20
HETATM   20  C   UNL     1      -6.003   2.543 -32.159  1.00  0.00     0.281 C 
BRANCH  20  21
HETATM   21  C   UNL     1      -6.837   1.334 -32.600  1.00  0.00     0.242 C 
HETATM   22  N   UNL     1      -6.439   0.769 -33.789  1.00  0.00    -0.355 N 
HETATM   23  H   UNL     1      -5.699   1.228 -34.318  1.00  0.00     0.162 HD
HETATM   24  O   UNL     1      -7.758   0.893 -31.916  1.00  0.00    -0.271 OA
BRANCH  22  25
HETATM   25  C   UNL     1      -7.175  -0.291 -34.432  1.00  0.00     0.161 C 
BRANCH  25  26
HETATM   26  C   UNL     1      -6.411  -1.592 -34.421  1.00  0.00    -0.038 A 
HETATM   27  C   UNL     1      -5.178  -1.702 -33.751  1.00  0.00     0.045 A 
HETATM   28  C   UNL     1      -4.479  -2.912 -33.744  1.00  0.00     0.068 A 
HETATM   29  C   UNL     1      -5.020  -4.020 -34.401  1.00  0.00     0.037 A 
HETATM   30  C   UNL     1      -6.236  -3.923 -35.074  1.00  0.00     0.003 A 
HETATM   31  C   UNL     1      -6.926  -2.712 -35.088  1.00  0.00     0.009 A 
BRANCH  28  32
HETATM   32  O   UNL     1      -3.276  -3.144 -33.134  1.00  0.00    -0.356 OA
HETATM   33  C   UNL     1      -3.097  -2.577 -31.843  1.00  0.00     0.210 C 
ENDBRANCH  28  32
ENDBRANCH  25  26
ENDBRANCH  22  25
ENDBRANCH  20  21
ENDBRANCH  19  20
ENDBRANCH   1  19
TORSDOF 9
ENDMDL
MODEL 5
REMARK VINA RESULT:      -7.5      1.959      6.109
REMARK  9 active torsions:
REMARK  status: ('A' for Active; 'I' for Inactive)
REMARK    1  A    between atoms: C_3  and  N_4 
REMARK       I    between atoms: N_4  and  C_5 
REMARK    2  A    between atoms: C_5  and  C_6 
REMARK    3  A    between atoms: C_13  and  C_14 
REMARK    4  A    between atoms: C_14  and  O_15 
REMARK    5  A    between atoms: O_15  and  C_16 
REMARK    6  A    between atoms: C_16  and  C_17 
REMARK       I    between atoms: C_17  and  N_18 
REMARK    7  A    between atoms: N_18  and  C_19 
REMARK    8  A    between atoms: C_19  and  C_20 
REMARK    9  A    between atoms: C_22  and  O_23 
ROOT
HETATM    1  C   UNL     1      -2.637   3.832 -32.162  1.00  0.00     0.293 C 
HETATM    2  O   UNL     1      -1.688   4.149 -31.461  1.00  0.00    -0.259 OA
ENDROOT
BRANCH   1   3
HETATM    3  C   UNL     1      -3.688   2.876 -31.729  1.00  0.00     0.041 A 
HETATM    4  C   UNL     1      -3.735   1.628 -32.366  1.00  0.00     0.047 A 
HETATM    5  C   UNL     1      -4.690   0.667 -32.015  1.00  0.00     0.042 A 
HETATM    6  C   UNL     1      -5.632   0.977 -31.012  1.00  0.00    -0.035 A 
HETATM    7  C   UNL     1      -6.710   0.015 -30.583  1.00  0.00     0.050 C 
HETATM    8  C   UNL     1      -5.588   2.239 -30.388  1.00  0.00     0.010 A 
HETATM    9  C   UNL     1      -4.617   3.180 -30.736  1.00  0.00     0.018 A 
BRANCH   5  10
HETATM   10  N   UNL     1      -4.744  -0.595 -32.648  1.00  0.00    -0.321 N 
HETATM   11  C   UNL     1      -5.426  -0.941 -33.804  1.00  0.00     0.279 C 
HETATM   12  O   UNL     1      -6.052  -0.163 -34.517  1.00  0.00    -0.265 OA
HETATM   13  H   UNL     1      -4.182  -1.344 -32.259  1.00  0.00     0.169 HD
BRANCH  11  14
HETATM   14  C   UNL     1      -5.290  -2.347 -34.141  1.00  0.00     0.142 A 
HETATM   15  O   UNL     1      -4.165  -3.032 -33.755  1.00  0.00    -0.317 OA
HETATM   16  C   UNL     1      -4.307  -4.309 -34.193  1.00  0.00     0.143 A 
HETATM   17  C   UNL     1      -5.498  -4.462 -34.863  1.00  0.00     0.027 A 
HETATM   18  C   UNL     1      -6.133  -3.198 -34.830  1.00  0.00     0.045 A 
ENDBRANCH  11  14
ENDBRANCH   5  10
ENDBRANCH   1   3
BRANCH   1  19
HETATM   19  O   UNL     1      -2.907   4.339 -33.387  1.00  0.00    -0.308 OA
BRANCH  19  20
HETATM   20  C   UNL     1      -3.817   5.443 -33.404  1.00  0.00     0.281 C 
BRANCH  20  21
HETATM   21  C   UNL     1      -5.225   5.108 -33.912  1.00  0.00     0.242 C 
HETATM   22  N   UNL     1      -6.236   5.804 -33.292  1.00  0.00    -0.355 N 
HETATM   23  H   UNL     1      -5.996   6.410 -32.508  1.00  0.00     0.162 HD
HETATM   24  O   UNL     1      -5.415   4.309 -34.827  1.00  0.00    -0.271 OA
BRANCH  22  25
HETATM   25  C   UNL     1      -7.631   5.536 -33.538  1.00  0.00     0.161 C 
BRANCH  25  26
HETATM   26  C   UNL     1      -8.205   4.571 -32.530  1.00  0.00    -0.038 A 
HETATM   27  C   UNL     1      -8.646   3.293 -32.921  1.00  0.00     0.045 A 
HETATM   28  C   UNL     1      -9.173   2.405 -31.979  1.00  0.00     0.068 A 
HETATM   29  C   UNL     1      -9.250   2.793 -30.639  1.00  0.00     0.037 A 
HETATM   30  C   UNL     1      -8.825   4.059 -30.240  1.00  0.00     0.003 A 
HETATM   31  C   UNL     1      -8.309   4.946 -31.183  1.00  0.00     0.009 A 
BRANCH  28  32
HETATM   32  O   UNL     1      -9.635   1.142 -32.232  1.00  0.00    -0.356 OA
HETATM   33  C   UNL     1      -9.265   0.567 -33.478  1.00  0.00     0.210 C 
ENDBRANCH  28  32
ENDBRANCH  25  26
ENDBRANCH  22  25
ENDBRANCH  20  21
ENDBRANCH  19  20
ENDBRANCH   1  19
TORSDOF 9
ENDMDL
MODEL 6
REMARK VINA RESULT:      -7.2      3.265      9.173
REMARK  9 active torsions:
REMARK  status: ('A' for Active; 'I' for Inactive)
REMARK    1  A    between atoms: C_3  and  N_4 
REMARK       I    between atoms: N_4  and  C_5 
REMARK    2  A    between atoms: C_5  and  C_6 
REMARK    3  A    between atoms: C_13  and  C_14 
REMARK    4  A    between atoms: C_14  and  O_15 
REMARK    5  A    between atoms: O_15  and  C_16 
REMARK    6  A    between atoms: C_16  and  C_17 
REMARK       I    between atoms: C_17  and  N_18 
REMARK    7  A    between atoms: N_18  and  C_19 
REMARK    8  A    between atoms: C_19  and  C_20 
REMARK    9  A    between atoms: C_22  and  O_23 
ROOT
HETATM    1  C   UNL     1      -2.605   4.026 -32.496  1.00  0.00     0.293 C 
HETATM    2  O   UNL     1      -2.289   4.056 -33.676  1.00  0.00    -0.259 OA
ENDROOT
BRANCH   1   3
HETATM    3  C   UNL     1      -3.571   3.047 -31.935  1.00  0.00     0.041 A 
HETATM    4  C   UNL     1      -3.667   1.795 -32.561  1.00  0.00     0.047 A 
HETATM    5  C   UNL     1      -4.547   0.813 -32.092  1.00  0.00     0.042 A 
HETATM    6  C   UNL     1      -5.365   1.106 -30.981  1.00  0.00    -0.035 A 
HETATM    7  C   UNL     1      -6.359   0.120 -30.421  1.00  0.00     0.050 C 
HETATM    8  C   UNL     1      -5.274   2.370 -30.369  1.00  0.00     0.010 A 
HETATM    9  C   UNL     1      -4.377   3.333 -30.835  1.00  0.00     0.018 A 
BRANCH   5  10
HETATM   10  N   UNL     1      -4.649  -0.452 -32.712  1.00  0.00    -0.321 N 
HETATM   11  C   UNL     1      -5.455  -0.817 -33.779  1.00  0.00     0.279 C 
HETATM   12  O   UNL     1      -6.178  -0.056 -34.414  1.00  0.00    -0.265 OA
HETATM   13  H   UNL     1      -4.030  -1.188 -32.391  1.00  0.00     0.169 HD
BRANCH  11  14
HETATM   14  C   UNL     1      -5.331  -2.221 -34.127  1.00  0.00     0.142 A 
HETATM   15  O   UNL     1      -4.197  -2.910 -33.774  1.00  0.00    -0.317 OA
HETATM   16  C   UNL     1      -4.353  -4.185 -34.215  1.00  0.00     0.143 A 
HETATM   17  C   UNL     1      -5.561  -4.332 -34.855  1.00  0.00     0.027 A 
HETATM   18  C   UNL     1      -6.193  -3.067 -34.798  1.00  0.00     0.045 A 
ENDBRANCH  11  14
ENDBRANCH   5  10
ENDBRANCH   1   3
BRANCH   1  19
HETATM   19  O   UNL     1      -2.089   4.819 -31.528  1.00  0.00    -0.308 OA
BRANCH  19  20
HETATM   20  C   UNL     1      -0.743   5.251 -31.747  1.00  0.00     0.281 C 
BRANCH  20  21
HETATM   21  C   UNL     1       0.182   5.114 -30.532  1.00  0.00     0.242 C 
HETATM   22  N   UNL     1      -0.273   5.740 -29.394  1.00  0.00    -0.355 N 
HETATM   23  H   UNL     1      -1.121   6.302 -29.459  1.00  0.00     0.162 HD
HETATM   24  O   UNL     1       1.224   4.462 -30.574  1.00  0.00    -0.271 OA
BRANCH  22  25
HETATM   25  C   UNL     1       0.513   5.834 -28.189  1.00  0.00     0.161 C 
BRANCH  25  26
HETATM   26  C   UNL     1       0.394   7.194 -27.545  1.00  0.00    -0.038 A 
HETATM   27  C   UNL     1      -0.727   7.529 -26.764  1.00  0.00     0.045 A 
HETATM   28  C   UNL     1      -0.828   8.790 -26.170  1.00  0.00     0.068 A 
HETATM   29  C   UNL     1       0.203   9.715 -26.348  1.00  0.00     0.037 A 
HETATM   30  C   UNL     1       1.315   9.399 -27.126  1.00  0.00     0.003 A 
HETATM   31  C   UNL     1       1.408   8.145 -27.726  1.00  0.00     0.009 A 
BRANCH  28  32
HETATM   32  O   UNL     1      -1.863   9.235 -25.394  1.00  0.00    -0.356 OA
HETATM   33  C   UNL     1      -1.519   9.798 -24.135  1.00  0.00     0.210 C 
ENDBRANCH  28  32
ENDBRANCH  25  26
ENDBRANCH  22  25
ENDBRANCH  20  21
ENDBRANCH  19  20
ENDBRANCH   1  19
TORSDOF 9
ENDMDL
MODEL 7
REMARK VINA RESULT:      -7.2      2.497      8.127
REMARK  9 active torsions:
REMARK  status: ('A' for Active; 'I' for Inactive)
REMARK    1  A    between atoms: C_3  and  N_4 
REMARK       I    between atoms: N_4  and  C_5 
REMARK    2  A    between atoms: C_5  and  C_6 
REMARK    3  A    between atoms: C_13  and  C_14 
REMARK    4  A    between atoms: C_14  and  O_15 
REMARK    5  A    between atoms: O_15  and  C_16 
REMARK    6  A    between atoms: C_16  and  C_17 
REMARK       I    between atoms: C_17  and  N_18 
REMARK    7  A    between atoms: N_18  and  C_19 
REMARK    8  A    between atoms: C_19  and  C_20 
REMARK    9  A    between atoms: C_22  and  O_23 
ROOT
HETATM    1  C   UNL     1      -2.621   3.646 -32.272  1.00  0.00     0.293 C 
HETATM    2  O   UNL     1      -1.725   4.086 -31.566  1.00  0.00    -0.259 OA
ENDROOT
BRANCH   1   3
HETATM    3  C   UNL     1      -3.671   2.721 -31.775  1.00  0.00     0.041 A 
HETATM    4  C   UNL     1      -3.822   1.492 -32.435  1.00  0.00     0.047 A 
HETATM    5  C   UNL     1      -4.783   0.561 -32.028  1.00  0.00     0.042 A 
HETATM    6  C   UNL     1      -5.626   0.881 -30.943  1.00  0.00    -0.035 A 
HETATM    7  C   UNL     1      -6.704  -0.049 -30.449  1.00  0.00     0.050 C 
HETATM    8  C   UNL     1      -5.479   2.123 -30.296  1.00  0.00     0.010 A 
HETATM    9  C   UNL     1      -4.502   3.034 -30.702  1.00  0.00     0.018 A 
BRANCH   5  10
HETATM   10  N   UNL     1      -4.941  -0.681 -32.683  1.00  0.00    -0.321 N 
HETATM   11  C   UNL     1      -5.614  -0.942 -33.866  1.00  0.00     0.279 C 
HETATM   12  O   UNL     1      -6.136  -0.096 -34.586  1.00  0.00    -0.265 OA
HETATM   13  H   UNL     1      -4.471  -1.488 -32.289  1.00  0.00     0.169 HD
BRANCH  11  14
HETATM   14  C   UNL     1      -5.608  -2.349 -34.222  1.00  0.00     0.142 A 
HETATM   15  O   UNL     1      -4.473  -3.095 -34.021  1.00  0.00    -0.317 OA
HETATM   16  C   UNL     1      -4.750  -4.359 -34.432  1.00  0.00     0.143 A 
HETATM   17  C   UNL     1      -6.039  -4.445 -34.903  1.00  0.00     0.027 A 
HETATM   18  C   UNL     1      -6.593  -3.150 -34.768  1.00  0.00     0.045 A 
ENDBRANCH  11  14
ENDBRANCH   5  10
ENDBRANCH   1   3
BRANCH   1  19
HETATM   19  O   UNL     1      -2.827   3.975 -33.568  1.00  0.00    -0.308 OA
BRANCH  19  20
HETATM   20  C   UNL     1      -3.820   4.981 -33.792  1.00  0.00     0.281 C 
BRANCH  20  21
HETATM   21  C   UNL     1      -3.620   6.271 -32.987  1.00  0.00     0.242 C 
HETATM   22  N   UNL     1      -2.411   6.893 -33.197  1.00  0.00    -0.355 N 
HETATM   23  H   UNL     1      -1.723   6.426 -33.786  1.00  0.00     0.162 HD
HETATM   24  O   UNL     1      -4.493   6.721 -32.248  1.00  0.00    -0.271 OA
BRANCH  22  25
HETATM   25  C   UNL     1      -1.985   8.043 -32.438  1.00  0.00     0.161 C 
BRANCH  25  26
HETATM   26  C   UNL     1      -1.269   7.647 -31.170  1.00  0.00    -0.038 A 
HETATM   27  C   UNL     1      -1.846   7.882 -29.909  1.00  0.00     0.045 A 
HETATM   28  C   UNL     1      -1.176   7.509 -28.741  1.00  0.00     0.068 A 
HETATM   29  C   UNL     1       0.072   6.888 -28.835  1.00  0.00     0.037 A 
HETATM   30  C   UNL     1       0.658   6.657 -30.078  1.00  0.00     0.003 A 
HETATM   31  C   UNL     1      -0.007   7.039 -31.240  1.00  0.00     0.009 A 
BRANCH  28  32
HETATM   32  O   UNL     1      -1.628   7.684 -27.461  1.00  0.00    -0.356 OA
HETATM   33  C   UNL     1      -0.732   7.332 -26.415  1.00  0.00     0.210 C 
ENDBRANCH  28  32
ENDBRANCH  25  26
ENDBRANCH  22  25
ENDBRANCH  20  21
ENDBRANCH  19  20
ENDBRANCH   1  19
TORSDOF 9
ENDMDL
MODEL 8
REMARK VINA RESULT:      -7.2      2.076      6.152
REMARK  9 active torsions:
REMARK  status: ('A' for Active; 'I' for Inactive)
REMARK    1  A    between atoms: C_3  and  N_4 
REMARK       I    between atoms: N_4  and  C_5 
REMARK    2  A    between atoms: C_5  and  C_6 
REMARK    3  A    between atoms: C_13  and  C_14 
REMARK    4  A    between atoms: C_14  and  O_15 
REMARK    5  A    between atoms: O_15  and  C_16 
REMARK    6  A    between atoms: C_16  and  C_17 
REMARK       I    between atoms: C_17  and  N_18 
REMARK    7  A    between atoms: N_18  and  C_19 
REMARK    8  A    between atoms: C_19  and  C_20 
REMARK    9  A    between atoms: C_22  and  O_23 
ROOT
HETATM    1  C   UNL     1      -3.068   4.205 -32.215  1.00  0.00     0.293 C 
HETATM    2  O   UNL     1      -1.921   3.993 -32.580  1.00  0.00    -0.259 OA
ENDROOT
BRANCH   1   3
HETATM    3  C   UNL     1      -3.958   3.150 -31.669  1.00  0.00     0.041 A 
HETATM    4  C   UNL     1      -3.843   1.859 -32.204  1.00  0.00     0.047 A 
HETATM    5  C   UNL     1      -4.639   0.805 -31.742  1.00  0.00     0.042 A 
HETATM    6  C   UNL     1      -5.589   1.062 -30.732  1.00  0.00    -0.035 A 
HETATM    7  C   UNL     1      -6.507  -0.004 -30.188  1.00  0.00     0.050 C 
HETATM    8  C   UNL     1      -5.710   2.364 -30.211  1.00  0.00     0.010 A 
HETATM    9  C   UNL     1      -4.895   3.400 -30.668  1.00  0.00     0.018 A 
BRANCH   5  10
HETATM   10  N   UNL     1      -4.529  -0.500 -32.272  1.00  0.00    -0.321 N 
HETATM   11  C   UNL     1      -3.441  -1.357 -32.209  1.00  0.00     0.279 C 
HETATM   12  O   UNL     1      -2.396  -1.133 -31.606  1.00  0.00    -0.265 OA
HETATM   13  H   UNL     1      -5.348  -0.904 -32.711  1.00  0.00     0.169 HD
BRANCH  11  14
HETATM   14  C   UNL     1      -3.669  -2.611 -32.904  1.00  0.00     0.142 A 
HETATM   15  O   UNL     1      -3.136  -3.772 -32.400  1.00  0.00    -0.317 OA
HETATM   16  C   UNL     1      -3.507  -4.775 -33.237  1.00  0.00     0.143 A 
HETATM   17  C   UNL     1      -4.261  -4.286 -34.276  1.00  0.00     0.027 A 
HETATM   18  C   UNL     1      -4.367  -2.891 -34.063  1.00  0.00     0.045 A 
ENDBRANCH  11  14
ENDBRANCH   5  10
ENDBRANCH   1   3
BRANCH   1  19
HETATM   19  O   UNL     1      -3.669   5.417 -32.193  1.00  0.00    -0.308 OA
BRANCH  19  20
HETATM   20  C   UNL     1      -4.388   5.763 -33.382  1.00  0.00     0.281 C 
BRANCH  20  21
HETATM   21  C   UNL     1      -5.913   5.785 -33.227  1.00  0.00     0.242 C 
HETATM   22  N   UNL     1      -6.554   4.677 -33.733  1.00  0.00    -0.355 N 
HETATM   23  H   UNL     1      -5.999   3.984 -34.232  1.00  0.00     0.162 HD
HETATM   24  O   UNL     1      -6.499   6.706 -32.661  1.00  0.00    -0.271 OA
BRANCH  22  25
HETATM   25  C   UNL     1      -7.991   4.571 -33.798  1.00  0.00     0.161 C 
BRANCH  25  26
HETATM   26  C   UNL     1      -8.458   3.148 -33.609  1.00  0.00    -0.038 A 
HETATM   27  C   UNL     1      -7.565   2.070 -33.741  1.00  0.00     0.045 A 
HETATM   28  C   UNL     1      -8.007   0.756 -33.562  1.00  0.00     0.068 A 
HETATM   29  C   UNL     1      -9.346   0.521 -33.240  1.00  0.00     0.037 A 
HETATM   30  C   UNL     1     -10.242   1.580 -33.114  1.00  0.00     0.003 A 
HETATM   31  C   UNL     1      -9.801   2.888 -33.303  1.00  0.00     0.009 A 
BRANCH  28  32
HETATM   32  O   UNL     1      -7.240  -0.373 -33.665  1.00  0.00    -0.356 OA
HETATM   33  C   UNL     1      -7.227  -1.021 -34.930  1.00  0.00     0.210 C 
ENDBRANCH  28  32
ENDBRANCH  25  26
ENDBRANCH  22  25
ENDBRANCH  20  21
ENDBRANCH  19  20
ENDBRANCH   1  19
TORSDOF 9
ENDMDL
MODEL 9
REMARK VINA RESULT:      -7.1     15.636     18.066
REMARK  9 active torsions:
REMARK  status: ('A' for Active; 'I' for Inactive)
REMARK    1  A    between atoms: C_3  and  N_4 
REMARK       I    between atoms: N_4  and  C_5 
REMARK    2  A    between atoms: C_5  and  C_6 
REMARK    3  A    between atoms: C_13  and  C_14 
REMARK    4  A    between atoms: C_14  and  O_15 
REMARK    5  A    between atoms: O_15  and  C_16 
REMARK    6  A    between atoms: C_16  and  C_17 
REMARK       I    between atoms: C_17  and  N_18 
REMARK    7  A    between atoms: N_18  and  C_19 
REMARK    8  A    between atoms: C_19  and  C_20 
REMARK    9  A    between atoms: C_22  and  O_23 
ROOT
HETATM    1  C   UNL     1      -9.876 -12.447 -40.138  1.00  0.00     0.293 C 
HETATM    2  O   UNL     1     -10.451 -11.481 -40.617  1.00  0.00    -0.259 OA
ENDROOT
BRANCH   1   3
HETATM    3  C   UNL     1      -8.450 -12.426 -39.726  1.00  0.00     0.041 A 
HETATM    4  C   UNL     1      -8.155 -12.722 -38.387  1.00  0.00     0.047 A 
HETATM    5  C   UNL     1      -6.837 -12.730 -37.917  1.00  0.00     0.042 A 
HETATM    6  C   UNL     1      -5.793 -12.412 -38.811  1.00  0.00    -0.035 A 
HETATM    7  C   UNL     1      -4.346 -12.372 -38.390  1.00  0.00     0.050 C 
HETATM    8  C   UNL     1      -6.099 -12.100 -40.149  1.00  0.00     0.010 A 
HETATM    9  C   UNL     1      -7.417 -12.115 -40.608  1.00  0.00     0.018 A 
BRANCH   5  10
HETATM   10  N   UNL     1      -6.528 -13.031 -36.572  1.00  0.00    -0.321 N 
HETATM   11  C   UNL     1      -6.663 -14.244 -35.916  1.00  0.00     0.279 C 
HETATM   12  O   UNL     1      -7.020 -15.296 -36.438  1.00  0.00    -0.265 OA
HETATM   13  H   UNL     1      -6.104 -12.302 -36.009  1.00  0.00     0.169 HD
BRANCH  11  14
HETATM   14  C   UNL     1      -6.285 -14.176 -34.516  1.00  0.00     0.142 A 
HETATM   15  O   UNL     1      -6.603 -15.213 -33.676  1.00  0.00    -0.317 OA
HETATM   16  C   UNL     1      -6.131 -14.887 -32.445  1.00  0.00     0.143 A 
HETATM   17  C   UNL     1      -5.522 -13.655 -32.470  1.00  0.00     0.027 A 
HETATM   18  C   UNL     1      -5.621 -13.195 -33.805  1.00  0.00     0.045 A 
ENDBRANCH  11  14
ENDBRANCH   5  10
ENDBRANCH   1   3
BRANCH   1  19
HETATM   19  O   UNL     1     -10.453 -13.639 -39.857  1.00  0.00    -0.308 OA
BRANCH  19  20
HETATM   20  C   UNL     1     -10.948 -14.360 -40.991  1.00  0.00     0.281 C 
BRANCH  20  21
HETATM   21  C   UNL     1     -10.038 -15.492 -41.480  1.00  0.00     0.242 C 
HETATM   22  N   UNL     1      -9.058 -15.863 -40.588  1.00  0.00    -0.355 N 
HETATM   23  H   UNL     1      -8.955 -15.322 -39.731  1.00  0.00     0.162 HD
HETATM   24  O   UNL     1     -10.206 -16.041 -42.567  1.00  0.00    -0.271 OA
BRANCH  22  25
HETATM   25  C   UNL     1      -8.027 -16.816 -40.916  1.00  0.00     0.161 C 
BRANCH  25  26
HETATM   26  C   UNL     1      -6.666 -16.168 -40.994  1.00  0.00    -0.038 A 
HETATM   27  C   UNL     1      -6.262 -15.470 -42.147  1.00  0.00     0.045 A 
HETATM   28  C   UNL     1      -5.001 -14.871 -42.209  1.00  0.00     0.068 A 
HETATM   29  C   UNL     1      -4.144 -14.961 -41.108  1.00  0.00     0.037 A 
HETATM   30  C   UNL     1      -4.530 -15.656 -39.964  1.00  0.00     0.003 A 
HETATM   31  C   UNL     1      -5.783 -16.261 -39.909  1.00  0.00     0.009 A 
BRANCH  28  32
HETATM   32  O   UNL     1      -4.492 -14.170 -43.268  1.00  0.00    -0.356 OA
HETATM   33  C   UNL     1      -4.142 -14.924 -44.422  1.00  0.00     0.210 C 
ENDBRANCH  28  32
ENDBRANCH  25  26
ENDBRANCH  22  25
ENDBRANCH  20  21
ENDBRANCH  19  20
ENDBRANCH   1  19
TORSDOF 9
ENDMDL
MODEL 10
REMARK VINA RESULT:      -6.9      1.772      5.028
REMARK  9 active torsions:
REMARK  status: ('A' for Active; 'I' for Inactive)
REMARK    1  A    between atoms: C_3  and  N_4 
REMARK       I    between atoms: N_4  and  C_5 
REMARK    2  A    between atoms: C_5  and  C_6 
REMARK    3  A    between atoms: C_13  and  C_14 
REMARK    4  A    between atoms: C_14  and  O_15 
REMARK    5  A    between atoms: O_15  and  C_16 
REMARK    6  A    between atoms: C_16  and  C_17 
REMARK       I    between atoms: C_17  and  N_18 
REMARK    7  A    between atoms: N_18  and  C_19 
REMARK    8  A    between atoms: C_19  and  C_20 
REMARK    9  A    between atoms: C_22  and  O_23 
ROOT
HETATM    1  C   UNL     1      -8.695   2.025 -31.340  1.00  0.00     0.293 C 
HETATM    2  O   UNL     1      -9.057   3.179 -31.160  1.00  0.00    -0.259 OA
ENDROOT
BRANCH   1   3
HETATM    3  C   UNL     1      -7.269   1.613 -31.364  1.00  0.00     0.041 A 
HETATM    4  C   UNL     1      -6.345   2.494 -31.944  1.00  0.00     0.047 A 
HETATM    5  C   UNL     1      -4.981   2.185 -32.003  1.00  0.00     0.042 A 
HETATM    6  C   UNL     1      -4.540   0.950 -31.483  1.00  0.00    -0.035 A 
HETATM    7  C   UNL     1      -3.096   0.521 -31.523  1.00  0.00     0.050 C 
HETATM    8  C   UNL     1      -5.476   0.064 -30.917  1.00  0.00     0.010 A 
HETATM    9  C   UNL     1      -6.830   0.394 -30.848  1.00  0.00     0.018 A 
BRANCH   5  10
HETATM   10  N   UNL     1      -4.042   3.067 -32.581  1.00  0.00    -0.321 N 
HETATM   11  C   UNL     1      -3.536   4.243 -32.050  1.00  0.00     0.279 C 
HETATM   12  O   UNL     1      -3.784   4.679 -30.930  1.00  0.00    -0.265 OA
HETATM   13  H   UNL     1      -3.632   2.805 -33.470  1.00  0.00     0.169 HD
BRANCH  11  14
HETATM   14  C   UNL     1      -2.615   4.919 -32.947  1.00  0.00     0.142 A 
HETATM   15  O   UNL     1      -2.388   4.405 -34.199  1.00  0.00    -0.317 OA
HETATM   16  C   UNL     1      -1.501   5.229 -34.813  1.00  0.00     0.143 A 
HETATM   17  C   UNL     1      -1.143   6.262 -33.979  1.00  0.00     0.027 A 
HETATM   18  C   UNL     1      -1.861   6.063 -32.776  1.00  0.00     0.045 A 
ENDBRANCH  11  14
ENDBRANCH   5  10
ENDBRANCH   1   3
BRANCH   1  19
HETATM   19  O   UNL     1      -9.518   0.960 -31.478  1.00  0.00    -0.308 OA
BRANCH  19  20
HETATM   20  C   UNL     1     -10.044   0.762 -32.794  1.00  0.00     0.281 C 
BRANCH  20  21
HETATM   21  C   UNL     1      -8.994   0.754 -33.911  1.00  0.00     0.242 C 
HETATM   22  N   UNL     1      -8.192  -0.363 -33.933  1.00  0.00    -0.355 N 
HETATM   23  H   UNL     1      -8.291  -1.044 -33.182  1.00  0.00     0.162 HD
HETATM   24  O   UNL     1      -8.913   1.662 -34.736  1.00  0.00    -0.271 OA
BRANCH  22  25
HETATM   25  C   UNL     1      -7.066  -0.496 -34.824  1.00  0.00     0.161 C 
BRANCH  25  26
HETATM   26  C   UNL     1      -6.429  -1.861 -34.725  1.00  0.00    -0.038 A 
HETATM   27  C   UNL     1      -5.189  -2.036 -34.084  1.00  0.00     0.045 A 
HETATM   28  C   UNL     1      -4.608  -3.304 -33.995  1.00  0.00     0.068 A 
HETATM   29  C   UNL     1      -5.276  -4.403 -34.542  1.00  0.00     0.037 A 
HETATM   30  C   UNL     1      -6.501  -4.242 -35.186  1.00  0.00     0.003 A 
HETATM   31  C   UNL     1      -7.072  -2.975 -35.282  1.00  0.00     0.009 A 
BRANCH  28  32
HETATM   32  O   UNL     1      -3.412  -3.604 -33.402  1.00  0.00    -0.356 OA
HETATM   33  C   UNL     1      -3.127  -4.982 -33.204  1.00  0.00     0.210 C 
ENDBRANCH  28  32
ENDBRANCH  25  26
ENDBRANCH  22  25
ENDBRANCH  20  21
ENDBRANCH  19  20
ENDBRANCH   1  19
TORSDOF 9
ENDMDL
