MODEL 1
REMARK VINA RESULT:      -8.7      0.000      0.000
REMARK  5 active torsions:
REMARK  status: ('A' for Active; 'I' for Inactive)
REMARK    1  A    between atoms: C_2  and  C_3 
REMARK    2  A    between atoms: C_2  and  C_19 
REMARK       I    between atoms: C_3  and  N_4 
REMARK    3  A    between atoms: N_4  and  C_5 
REMARK    4  A    between atoms: C_8  and  O_9 
REMARK    5  A    between atoms: O_9  and  C_10 
ROOT
HETATM    1  C   UNL     1      -6.266   1.260 -33.334  1.00  0.00     0.234 C 
HETATM    2  N   UNL     1      -5.508   1.825 -32.317  1.00  0.00    -0.325 N 
HETATM    3  O   UNL     1      -6.394   1.741 -34.458  1.00  0.00    -0.272 OA
HETATM    4  H   UNL     1      -5.398   1.273 -31.474  1.00  0.00     0.169 HD
ENDROOT
BRANCH   2   5
HETATM    5  C   UNL     1      -4.811   3.049 -32.358  1.00  0.00     0.052 A 
HETATM    6  C   UNL     1      -5.376   4.305 -32.156  1.00  0.00     0.149 A 
HETATM    7  N   UNL     1      -4.675   5.468 -32.182  1.00  0.00    -0.235 NA
HETATM    8  C   UNL     1      -3.350   5.380 -32.416  1.00  0.00     0.169 A 
HETATM    9  C   UNL     1      -2.694   4.181 -32.643  1.00  0.00     0.060 A 
HETATM   10  C   UNL     1      -3.437   3.001 -32.607  1.00  0.00     0.035 A 
BRANCH   8  11
HETATM   11  O   UNL     1      -2.576   6.531 -32.494  1.00  0.00    -0.291 OA
BRANCH  11  12
HETATM   12  C   UNL     1      -1.646   6.736 -31.508  1.00  0.00     0.095 A 
HETATM   13  C   UNL     1      -1.961   6.814 -30.157  1.00  0.00     0.153 A 
HETATM   14  N   UNL     1      -1.036   6.933 -29.172  1.00  0.00    -0.270 NA
HETATM   15  C   UNL     1       0.257   6.984 -29.563  1.00  0.00     0.116 A 
HETATM   16  C   UNL     1       0.668   6.902 -30.885  1.00  0.00     0.022 A 
HETATM   17  C   UNL     1      -0.304   6.763 -31.872  1.00  0.00     0.040 A 
ENDBRANCH  11  12
ENDBRANCH   8  11
ENDBRANCH   2   5
BRANCH   1  18
HETATM   18  C   UNL     1      -6.994  -0.050 -32.915  1.00  0.00     0.061 C 
HETATM   19  C   UNL     1      -6.995  -0.079 -31.370  1.00  0.00     0.030 C 
HETATM   20  C   UNL     1      -8.470   0.009 -33.368  1.00  0.00     0.030 C 
BRANCH  18  21
HETATM   21  C   UNL     1      -6.329  -1.275 -33.570  1.00  0.00    -0.038 A 
HETATM   22  C   UNL     1      -7.058  -2.261 -34.256  1.00  0.00     0.050 A 
HETATM   23  C   UNL     1      -6.406  -3.354 -34.824  1.00  0.00     0.117 A 
HETATM   24  F   UNL     1      -7.128  -4.285 -35.464  1.00  0.00    -0.206 F 
HETATM   25  C   UNL     1      -5.029  -3.500 -34.736  1.00  0.00     0.042 A 
HETATM   26  C   UNL     1      -4.286  -2.533 -34.068  1.00  0.00     0.004 A 
HETATM   27  C   UNL     1      -4.929  -1.433 -33.491  1.00  0.00     0.008 A 
ENDBRANCH  18  21
ENDBRANCH   1  18
TORSDOF 5
ENDMDL
MODEL 2
REMARK VINA RESULT:      -8.3      4.801      8.272
REMARK  5 active torsions:
REMARK  status: ('A' for Active; 'I' for Inactive)
REMARK    1  A    between atoms: C_2  and  C_3 
REMARK    2  A    between atoms: C_2  and  C_19 
REMARK       I    between atoms: C_3  and  N_4 
REMARK    3  A    between atoms: N_4  and  C_5 
REMARK    4  A    between atoms: C_8  and  O_9 
REMARK    5  A    between atoms: O_9  and  C_10 
ROOT
HETATM    1  C   UNL     1      -6.539   0.454 -33.649  1.00  0.00     0.234 C 
HETATM    2  N   UNL     1      -7.608   0.729 -32.807  1.00  0.00    -0.325 N 
HETATM    3  O   UNL     1      -6.448   0.844 -34.811  1.00  0.00    -0.272 OA
HETATM    4  H   UNL     1      -7.510   0.440 -31.841  1.00  0.00     0.169 HD
ENDROOT
BRANCH   2   5
HETATM    5  C   UNL     1      -8.783   1.437 -33.130  1.00  0.00     0.052 A 
HETATM    6  C   UNL     1      -9.085   2.730 -32.713  1.00  0.00     0.149 A 
HETATM    7  N   UNL     1     -10.218   3.396 -33.057  1.00  0.00    -0.235 NA
HETATM    8  C   UNL     1     -11.090   2.749 -33.856  1.00  0.00     0.169 A 
HETATM    9  C   UNL     1     -10.890   1.457 -34.314  1.00  0.00     0.060 A 
HETATM   10  C   UNL     1      -9.717   0.797 -33.950  1.00  0.00     0.035 A 
BRANCH   8  11
HETATM   11  O   UNL     1     -12.288   3.353 -34.219  1.00  0.00    -0.291 OA
BRANCH  11  12
HETATM   12  C   UNL     1     -13.428   2.925 -33.591  1.00  0.00     0.095 A 
HETATM   13  C   UNL     1     -14.194   1.852 -34.032  1.00  0.00     0.153 A 
HETATM   14  N   UNL     1     -15.275   1.373 -33.368  1.00  0.00    -0.270 NA
HETATM   15  C   UNL     1     -15.603   2.002 -32.219  1.00  0.00     0.116 A 
HETATM   16  C   UNL     1     -14.894   3.072 -31.694  1.00  0.00     0.022 A 
HETATM   17  C   UNL     1     -13.778   3.531 -32.390  1.00  0.00     0.040 A 
ENDBRANCH  11  12
ENDBRANCH   8  11
ENDBRANCH   2   5
BRANCH   1  18
HETATM   18  C   UNL     1      -5.450  -0.448 -33.000  1.00  0.00     0.061 C 
HETATM   19  C   UNL     1      -4.111   0.313 -33.132  1.00  0.00     0.030 C 
HETATM   20  C   UNL     1      -5.736  -0.602 -31.490  1.00  0.00     0.030 C 
BRANCH  18  21
HETATM   21  C   UNL     1      -5.449  -1.847 -33.644  1.00  0.00    -0.038 A 
HETATM   22  C   UNL     1      -4.310  -2.669 -33.675  1.00  0.00     0.050 A 
HETATM   23  C   UNL     1      -4.361  -3.925 -34.279  1.00  0.00     0.117 A 
HETATM   24  F   UNL     1      -3.257  -4.684 -34.302  1.00  0.00    -0.206 F 
HETATM   25  C   UNL     1      -5.529  -4.401 -34.858  1.00  0.00     0.042 A 
HETATM   26  C   UNL     1      -6.670  -3.607 -34.833  1.00  0.00     0.004 A 
HETATM   27  C   UNL     1      -6.630  -2.344 -34.234  1.00  0.00     0.008 A 
ENDBRANCH  18  21
ENDBRANCH   1  18
TORSDOF 5
ENDMDL
MODEL 3
REMARK VINA RESULT:      -8.3      1.440      1.740
REMARK  5 active torsions:
REMARK  status: ('A' for Active; 'I' for Inactive)
REMARK    1  A    between atoms: C_2  and  C_3 
REMARK    2  A    between atoms: C_2  and  C_19 
REMARK       I    between atoms: C_3  and  N_4 
REMARK    3  A    between atoms: N_4  and  C_5 
REMARK    4  A    between atoms: C_8  and  O_9 
REMARK    5  A    between atoms: O_9  and  C_10 
ROOT
HETATM    1  C   UNL     1      -6.130   1.702 -33.304  1.00  0.00     0.234 C 
HETATM    2  N   UNL     1      -5.285   1.909 -32.222  1.00  0.00    -0.325 N 
HETATM    3  O   UNL     1      -6.252   2.474 -34.252  1.00  0.00    -0.272 OA
HETATM    4  H   UNL     1      -5.198   1.145 -31.562  1.00  0.00     0.169 HD
ENDROOT
BRANCH   2   5
HETATM    5  C   UNL     1      -4.476   3.037 -31.981  1.00  0.00     0.052 A 
HETATM    6  C   UNL     1      -4.824   4.122 -31.182  1.00  0.00     0.149 A 
HETATM    7  N   UNL     1      -4.015   5.189 -30.951  1.00  0.00    -0.235 NA
HETATM    8  C   UNL     1      -2.802   5.176 -31.540  1.00  0.00     0.169 A 
HETATM    9  C   UNL     1      -2.366   4.152 -32.365  1.00  0.00     0.060 A 
HETATM   10  C   UNL     1      -3.215   3.067 -32.581  1.00  0.00     0.035 A 
BRANCH   8  11
HETATM   11  O   UNL     1      -1.936   6.250 -31.381  1.00  0.00    -0.291 OA
BRANCH  11  12
HETATM   12  C   UNL     1      -1.207   6.309 -30.221  1.00  0.00     0.095 A 
HETATM   13  C   UNL     1      -1.594   7.040 -29.105  1.00  0.00     0.153 A 
HETATM   14  N   UNL     1      -0.920   7.034 -27.927  1.00  0.00    -0.270 NA
HETATM   15  C   UNL     1       0.192   6.269 -27.875  1.00  0.00     0.116 A 
HETATM   16  C   UNL     1       0.650   5.497 -28.933  1.00  0.00     0.022 A 
HETATM   17  C   UNL     1      -0.073   5.510 -30.123  1.00  0.00     0.040 A 
ENDBRANCH  11  12
ENDBRANCH   8  11
ENDBRANCH   2   5
BRANCH   1  18
HETATM   18  C   UNL     1      -6.965   0.392 -33.202  1.00  0.00     0.061 C 
HETATM   19  C   UNL     1      -7.537   0.345 -31.767  1.00  0.00     0.030 C 
HETATM   20  C   UNL     1      -8.168   0.466 -34.167  1.00  0.00     0.030 C 
BRANCH  18  21
HETATM   21  C   UNL     1      -6.107  -0.830 -33.580  1.00  0.00    -0.038 A 
HETATM   22  C   UNL     1      -4.967  -1.214 -32.855  1.00  0.00     0.050 A 
HETATM   23  C   UNL     1      -4.221  -2.325 -33.246  1.00  0.00     0.117 A 
HETATM   24  F   UNL     1      -3.133  -2.662 -32.541  1.00  0.00    -0.206 F 
HETATM   25  C   UNL     1      -4.581  -3.083 -34.351  1.00  0.00     0.042 A 
HETATM   26  C   UNL     1      -5.709  -2.726 -35.080  1.00  0.00     0.004 A 
HETATM   27  C   UNL     1      -6.464  -1.612 -34.700  1.00  0.00     0.008 A 
ENDBRANCH  18  21
ENDBRANCH   1  18
TORSDOF 5
ENDMDL
MODEL 4
REMARK VINA RESULT:      -8.1      3.650      9.182
REMARK  5 active torsions:
REMARK  status: ('A' for Active; 'I' for Inactive)
REMARK    1  A    between atoms: C_2  and  C_3 
REMARK    2  A    between atoms: C_2  and  C_19 
REMARK       I    between atoms: C_3  and  N_4 
REMARK    3  A    between atoms: N_4  and  C_5 
REMARK    4  A    between atoms: C_8  and  O_9 
REMARK    5  A    between atoms: O_9  and  C_10 
ROOT
HETATM    1  C   UNL     1      -2.351   5.064 -32.708  1.00  0.00     0.234 C 
HETATM    2  N   UNL     1      -3.340   4.628 -31.835  1.00  0.00    -0.325 N 
HETATM    3  O   UNL     1      -1.933   4.419 -33.667  1.00  0.00    -0.272 OA
HETATM    4  H   UNL     1      -3.669   5.299 -31.152  1.00  0.00     0.169 HD
ENDROOT
BRANCH   2   5
HETATM    5  C   UNL     1      -3.990   3.378 -31.847  1.00  0.00     0.052 A 
HETATM    6  C   UNL     1      -5.237   3.124 -32.412  1.00  0.00     0.149 A 
HETATM    7  N   UNL     1      -5.831   1.902 -32.426  1.00  0.00    -0.235 NA
HETATM    8  C   UNL     1      -5.155   0.885 -31.855  1.00  0.00     0.169 A 
HETATM    9  C   UNL     1      -3.916   1.036 -31.253  1.00  0.00     0.060 A 
HETATM   10  C   UNL     1      -3.326   2.299 -31.257  1.00  0.00     0.035 A 
BRANCH   8  11
HETATM   11  O   UNL     1      -5.717  -0.384 -31.798  1.00  0.00    -0.291 OA
BRANCH  11  12
HETATM   12  C   UNL     1      -5.606  -1.176 -32.911  1.00  0.00     0.095 A 
HETATM   13  C   UNL     1      -4.443  -1.852 -33.261  1.00  0.00     0.153 A 
HETATM   14  N   UNL     1      -4.353  -2.703 -34.314  1.00  0.00    -0.270 NA
HETATM   15  C   UNL     1      -5.474  -2.875 -35.047  1.00  0.00     0.116 A 
HETATM   16  C   UNL     1      -6.683  -2.254 -34.767  1.00  0.00     0.022 A 
HETATM   17  C   UNL     1      -6.749  -1.399 -33.670  1.00  0.00     0.040 A 
ENDBRANCH  11  12
ENDBRANCH   8  11
ENDBRANCH   2   5
BRANCH   1  18
HETATM   18  C   UNL     1      -1.769   6.460 -32.343  1.00  0.00     0.061 C 
HETATM   19  C   UNL     1      -0.998   6.956 -33.587  1.00  0.00     0.030 C 
HETATM   20  C   UNL     1      -2.924   7.457 -32.099  1.00  0.00     0.030 C 
BRANCH  18  21
HETATM   21  C   UNL     1      -0.917   6.375 -31.062  1.00  0.00    -0.038 A 
HETATM   22  C   UNL     1      -0.824   7.429 -30.139  1.00  0.00     0.050 A 
HETATM   23  C   UNL     1      -0.031   7.304 -28.999  1.00  0.00     0.117 A 
HETATM   24  F   UNL     1       0.045   8.329 -28.140  1.00  0.00    -0.206 F 
HETATM   25  C   UNL     1       0.681   6.141 -28.740  1.00  0.00     0.042 A 
HETATM   26  C   UNL     1       0.600   5.082 -29.638  1.00  0.00     0.004 A 
HETATM   27  C   UNL     1      -0.190   5.198 -30.786  1.00  0.00     0.008 A 
ENDBRANCH  18  21
ENDBRANCH   1  18
TORSDOF 5
ENDMDL
MODEL 5
REMARK VINA RESULT:      -8.1      6.096      8.955
REMARK  5 active torsions:
REMARK  status: ('A' for Active; 'I' for Inactive)
REMARK    1  A    between atoms: C_2  and  C_3 
REMARK    2  A    between atoms: C_2  and  C_19 
REMARK       I    between atoms: C_3  and  N_4 
REMARK    3  A    between atoms: N_4  and  C_5 
REMARK    4  A    between atoms: C_8  and  O_9 
REMARK    5  A    between atoms: O_9  and  C_10 
ROOT
HETATM    1  C   UNL     1     -10.483   2.986 -33.838  1.00  0.00     0.234 C 
HETATM    2  N   UNL     1      -9.997   1.912 -34.570  1.00  0.00    -0.325 N 
HETATM    3  O   UNL     1      -9.965   3.425 -32.814  1.00  0.00    -0.272 OA
HETATM    4  H   UNL     1     -10.455   1.720 -35.453  1.00  0.00     0.169 HD
ENDROOT
BRANCH   2   5
HETATM    5  C   UNL     1      -8.883   1.107 -34.257  1.00  0.00     0.052 A 
HETATM    6  C   UNL     1      -8.821   0.191 -33.210  1.00  0.00     0.149 A 
HETATM    7  N   UNL     1      -7.740  -0.588 -32.943  1.00  0.00    -0.235 NA
HETATM    8  C   UNL     1      -6.672  -0.452 -33.755  1.00  0.00     0.169 A 
HETATM    9  C   UNL     1      -6.628   0.439 -34.814  1.00  0.00     0.060 A 
HETATM   10  C   UNL     1      -7.752   1.223 -35.069  1.00  0.00     0.035 A 
BRANCH   8  11
HETATM   11  O   UNL     1      -5.517  -1.188 -33.520  1.00  0.00    -0.291 OA
BRANCH  11  12
HETATM   12  C   UNL     1      -5.460  -2.458 -34.032  1.00  0.00     0.095 A 
HETATM   13  C   UNL     1      -4.354  -3.289 -33.907  1.00  0.00     0.153 A 
HETATM   14  N   UNL     1      -4.323  -4.575 -34.339  1.00  0.00    -0.270 NA
HETATM   15  C   UNL     1      -5.448  -5.040 -34.925  1.00  0.00     0.116 A 
HETATM   16  C   UNL     1      -6.604  -4.290 -35.083  1.00  0.00     0.022 A 
HETATM   17  C   UNL     1      -6.610  -2.979 -34.615  1.00  0.00     0.040 A 
ENDBRANCH  11  12
ENDBRANCH   8  11
ENDBRANCH   2   5
BRANCH   1  18
HETATM   18  C   UNL     1     -11.800   3.586 -34.412  1.00  0.00     0.061 C 
HETATM   19  C   UNL     1     -11.754   5.104 -34.126  1.00  0.00     0.030 C 
HETATM   20  C   UNL     1     -11.822   3.414 -35.947  1.00  0.00     0.030 C 
BRANCH  18  21
HETATM   21  C   UNL     1     -13.027   2.868 -33.820  1.00  0.00    -0.038 A 
HETATM   22  C   UNL     1     -13.690   1.822 -34.484  1.00  0.00     0.050 A 
HETATM   23  C   UNL     1     -14.803   1.211 -33.907  1.00  0.00     0.117 A 
HETATM   24  F   UNL     1     -15.421   0.222 -34.566  1.00  0.00    -0.206 F 
HETATM   25  C   UNL     1     -15.283   1.610 -32.667  1.00  0.00     0.042 A 
HETATM   26  C   UNL     1     -14.639   2.638 -31.989  1.00  0.00     0.004 A 
HETATM   27  C   UNL     1     -13.524   3.261 -32.559  1.00  0.00     0.008 A 
ENDBRANCH  18  21
ENDBRANCH   1  18
TORSDOF 5
ENDMDL
MODEL 6
REMARK VINA RESULT:      -7.9      4.783      7.650
REMARK  5 active torsions:
REMARK  status: ('A' for Active; 'I' for Inactive)
REMARK    1  A    between atoms: C_2  and  C_3 
REMARK    2  A    between atoms: C_2  and  C_19 
REMARK       I    between atoms: C_3  and  N_4 
REMARK    3  A    between atoms: N_4  and  C_5 
REMARK    4  A    between atoms: C_8  and  O_9 
REMARK    5  A    between atoms: O_9  and  C_10 
ROOT
HETATM    1  C   UNL     1      -6.781   0.516 -33.452  1.00  0.00     0.234 C 
HETATM    2  N   UNL     1      -7.877   0.552 -32.600  1.00  0.00    -0.325 N 
HETATM    3  O   UNL     1      -6.731   1.067 -34.550  1.00  0.00    -0.272 OA
HETATM    4  H   UNL     1      -7.749   0.149 -31.680  1.00  0.00     0.169 HD
ENDROOT
BRANCH   2   5
HETATM    5  C   UNL     1      -9.124   1.159 -32.849  1.00  0.00     0.052 A 
HETATM    6  C   UNL     1      -9.400   2.517 -32.722  1.00  0.00     0.149 A 
HETATM    7  N   UNL     1     -10.608   3.078 -32.988  1.00  0.00    -0.235 NA
HETATM    8  C   UNL     1     -11.589   2.251 -33.403  1.00  0.00     0.169 A 
HETATM    9  C   UNL     1     -11.422   0.884 -33.548  1.00  0.00     0.060 A 
HETATM   10  C   UNL     1     -10.171   0.334 -33.272  1.00  0.00     0.035 A 
BRANCH   8  11
HETATM   11  O   UNL     1     -12.861   2.748 -33.657  1.00  0.00    -0.291 OA
BRANCH  11  12
HETATM   12  C   UNL     1     -12.970   4.075 -33.981  1.00  0.00     0.095 A 
HETATM   13  C   UNL     1     -13.247   5.073 -33.054  1.00  0.00     0.153 A 
HETATM   14  N   UNL     1     -13.273   6.396 -33.354  1.00  0.00    -0.270 NA
HETATM   15  C   UNL     1     -13.017   6.726 -34.639  1.00  0.00     0.116 A 
HETATM   16  C   UNL     1     -12.719   5.803 -35.630  1.00  0.00     0.022 A 
HETATM   17  C   UNL     1     -12.683   4.454 -35.288  1.00  0.00     0.040 A 
ENDBRANCH  11  12
ENDBRANCH   8  11
ENDBRANCH   2   5
BRANCH   1  18
HETATM   18  C   UNL     1      -5.597  -0.335 -32.908  1.00  0.00     0.061 C 
HETATM   19  C   UNL     1      -4.317   0.507 -33.114  1.00  0.00     0.030 C 
HETATM   20  C   UNL     1      -5.763  -0.543 -31.387  1.00  0.00     0.030 C 
BRANCH  18  21
HETATM   21  C   UNL     1      -5.562  -1.716 -33.591  1.00  0.00    -0.038 A 
HETATM   22  C   UNL     1      -4.396  -2.495 -33.672  1.00  0.00     0.050 A 
HETATM   23  C   UNL     1      -4.417  -3.735 -34.309  1.00  0.00     0.117 A 
HETATM   24  F   UNL     1      -3.288  -4.452 -34.380  1.00  0.00    -0.206 F 
HETATM   25  C   UNL     1      -5.582  -4.237 -34.872  1.00  0.00     0.042 A 
HETATM   26  C   UNL     1      -6.750  -3.487 -34.797  1.00  0.00     0.004 A 
HETATM   27  C   UNL     1      -6.740  -2.240 -34.164  1.00  0.00     0.008 A 
ENDBRANCH  18  21
ENDBRANCH   1  18
TORSDOF 5
ENDMDL
MODEL 7
REMARK VINA RESULT:      -7.8      3.976      8.210
REMARK  5 active torsions:
REMARK  status: ('A' for Active; 'I' for Inactive)
REMARK    1  A    between atoms: C_2  and  C_3 
REMARK    2  A    between atoms: C_2  and  C_19 
REMARK       I    between atoms: C_3  and  N_4 
REMARK    3  A    between atoms: N_4  and  C_5 
REMARK    4  A    between atoms: C_8  and  O_9 
REMARK    5  A    between atoms: O_9  and  C_10 
ROOT
HETATM    1  C   UNL     1      -5.856   1.373 -32.533  1.00  0.00     0.234 C 
HETATM    2  N   UNL     1      -7.148   1.047 -32.143  1.00  0.00    -0.325 N 
HETATM    3  O   UNL     1      -5.575   2.195 -33.401  1.00  0.00    -0.272 OA
HETATM    4  H   UNL     1      -7.239   0.433 -31.342  1.00  0.00     0.169 HD
ENDROOT
BRANCH   2   5
HETATM    5  C   UNL     1      -8.349   1.538 -32.693  1.00  0.00     0.052 A 
HETATM    6  C   UNL     1      -8.939   1.088 -33.871  1.00  0.00     0.149 A 
HETATM    7  N   UNL     1     -10.109   1.568 -34.367  1.00  0.00    -0.235 NA
HETATM    8  C   UNL     1     -10.724   2.537 -33.660  1.00  0.00     0.169 A 
HETATM    9  C   UNL     1     -10.213   3.063 -32.485  1.00  0.00     0.060 A 
HETATM   10  C   UNL     1      -9.012   2.551 -31.994  1.00  0.00     0.035 A 
BRANCH   8  11
HETATM   11  O   UNL     1     -11.904   3.101 -34.126  1.00  0.00    -0.291 OA
BRANCH  11  12
HETATM   12  C   UNL     1     -13.082   2.524 -33.728  1.00  0.00     0.095 A 
HETATM   13  C   UNL     1     -13.823   2.960 -32.636  1.00  0.00     0.153 A 
HETATM   14  N   UNL     1     -15.030   2.447 -32.289  1.00  0.00    -0.270 NA
HETATM   15  C   UNL     1     -15.507   1.451 -33.068  1.00  0.00     0.116 A 
HETATM   16  C   UNL     1     -14.846   0.958 -34.184  1.00  0.00     0.022 A 
HETATM   17  C   UNL     1     -13.616   1.517 -34.524  1.00  0.00     0.040 A 
ENDBRANCH  11  12
ENDBRANCH   8  11
ENDBRANCH   2   5
BRANCH   1  18
HETATM   18  C   UNL     1      -4.757   0.561 -31.788  1.00  0.00     0.061 C 
HETATM   19  C   UNL     1      -3.508   1.469 -31.718  1.00  0.00     0.030 C 
HETATM   20  C   UNL     1      -5.205   0.294 -30.333  1.00  0.00     0.030 C 
BRANCH  18  21
HETATM   21  C   UNL     1      -4.516  -0.793 -32.482  1.00  0.00    -0.038 A 
HETATM   22  C   UNL     1      -5.130  -1.146 -33.695  1.00  0.00     0.050 A 
HETATM   23  C   UNL     1      -4.884  -2.388 -34.277  1.00  0.00     0.117 A 
HETATM   24  F   UNL     1      -5.490  -2.702 -35.430  1.00  0.00    -0.206 F 
HETATM   25  C   UNL     1      -4.028  -3.306 -33.685  1.00  0.00     0.042 A 
HETATM   26  C   UNL     1      -3.404  -2.976 -32.487  1.00  0.00     0.004 A 
HETATM   27  C   UNL     1      -3.646  -1.734 -31.892  1.00  0.00     0.008 A 
ENDBRANCH  18  21
ENDBRANCH   1  18
TORSDOF 5
ENDMDL
MODEL 8
REMARK VINA RESULT:      -7.6      3.256      9.040
REMARK  5 active torsions:
REMARK  status: ('A' for Active; 'I' for Inactive)
REMARK    1  A    between atoms: C_2  and  C_3 
REMARK    2  A    between atoms: C_2  and  C_19 
REMARK       I    between atoms: C_3  and  N_4 
REMARK    3  A    between atoms: N_4  and  C_5 
REMARK    4  A    between atoms: C_8  and  O_9 
REMARK    5  A    between atoms: O_9  and  C_10 
ROOT
HETATM    1  C   UNL     1      -2.882   6.151 -31.922  1.00  0.00     0.234 C 
HETATM    2  N   UNL     1      -2.813   4.972 -31.191  1.00  0.00    -0.325 N 
HETATM    3  O   UNL     1      -3.782   6.432 -32.710  1.00  0.00    -0.272 OA
HETATM    4  H   UNL     1      -2.077   4.911 -30.497  1.00  0.00     0.169 HD
ENDROOT
BRANCH   2   5
HETATM    5  C   UNL     1      -3.702   3.881 -31.256  1.00  0.00     0.052 A 
HETATM    6  C   UNL     1      -4.954   3.825 -30.650  1.00  0.00     0.149 A 
HETATM    7  N   UNL     1      -5.800   2.767 -30.745  1.00  0.00    -0.235 NA
HETATM    8  C   UNL     1      -5.385   1.716 -31.480  1.00  0.00     0.169 A 
HETATM    9  C   UNL     1      -4.153   1.665 -32.111  1.00  0.00     0.060 A 
HETATM   10  C   UNL     1      -3.305   2.767 -32.001  1.00  0.00     0.035 A 
BRANCH   8  11
HETATM   11  O   UNL     1      -6.181   0.583 -31.592  1.00  0.00    -0.291 OA
BRANCH  11  12
HETATM   12  C   UNL     1      -6.762   0.334 -32.808  1.00  0.00     0.095 A 
HETATM   13  C   UNL     1      -7.614   1.224 -33.451  1.00  0.00     0.153 A 
HETATM   14  N   UNL     1      -8.124   1.019 -34.691  1.00  0.00    -0.270 NA
HETATM   15  C   UNL     1      -7.769  -0.131 -35.305  1.00  0.00     0.116 A 
HETATM   16  C   UNL     1      -6.915  -1.073 -34.749  1.00  0.00     0.022 A 
HETATM   17  C   UNL     1      -6.395  -0.826 -33.482  1.00  0.00     0.040 A 
ENDBRANCH  11  12
ENDBRANCH   8  11
ENDBRANCH   2   5
BRANCH   1  18
HETATM   18  C   UNL     1      -1.672   7.101 -31.686  1.00  0.00     0.061 C 
HETATM   19  C   UNL     1      -0.773   6.990 -32.938  1.00  0.00     0.030 C 
HETATM   20  C   UNL     1      -2.167   8.563 -31.613  1.00  0.00     0.030 C 
BRANCH  18  21
HETATM   21  C   UNL     1      -0.961   6.758 -30.364  1.00  0.00    -0.038 A 
HETATM   22  C   UNL     1       0.043   5.779 -30.272  1.00  0.00     0.050 A 
HETATM   23  C   UNL     1       0.649   5.501 -29.048  1.00  0.00     0.117 A 
HETATM   24  F   UNL     1       1.597   4.556 -28.987  1.00  0.00    -0.206 F 
HETATM   25  C   UNL     1       0.288   6.181 -27.893  1.00  0.00     0.042 A 
HETATM   26  C   UNL     1      -0.698   7.159 -27.961  1.00  0.00     0.004 A 
HETATM   27  C   UNL     1      -1.316   7.444 -29.183  1.00  0.00     0.008 A 
ENDBRANCH  18  21
ENDBRANCH   1  18
TORSDOF 5
ENDMDL
MODEL 9
REMARK VINA RESULT:      -7.4      4.247      9.325
REMARK  5 active torsions:
REMARK  status: ('A' for Active; 'I' for Inactive)
REMARK    1  A    between atoms: C_2  and  C_3 
REMARK    2  A    between atoms: C_2  and  C_19 
REMARK       I    between atoms: C_3  and  N_4 
REMARK    3  A    between atoms: N_4  and  C_5 
REMARK    4  A    between atoms: C_8  and  O_9 
REMARK    5  A    between atoms: O_9  and  C_10 
ROOT
HETATM    1  C   UNL     1      -3.172   5.532 -31.594  1.00  0.00     0.234 C 
HETATM    2  N   UNL     1      -3.198   4.145 -31.657  1.00  0.00    -0.325 N 
HETATM    3  O   UNL     1      -4.139   6.236 -31.314  1.00  0.00    -0.272 OA
HETATM    4  H   UNL     1      -2.308   3.680 -31.792  1.00  0.00     0.169 HD
ENDROOT
BRANCH   2   5
HETATM    5  C   UNL     1      -4.318   3.309 -31.476  1.00  0.00     0.052 A 
HETATM    6  C   UNL     1      -5.039   3.172 -30.293  1.00  0.00     0.149 A 
HETATM    7  N   UNL     1      -6.128   2.373 -30.152  1.00  0.00    -0.235 NA
HETATM    8  C   UNL     1      -6.523   1.679 -31.239  1.00  0.00     0.169 A 
HETATM    9  C   UNL     1      -5.866   1.734 -32.458  1.00  0.00     0.060 A 
HETATM   10  C   UNL     1      -4.754   2.566 -32.576  1.00  0.00     0.035 A 
BRANCH   8  11
HETATM   11  O   UNL     1      -7.606   0.813 -31.161  1.00  0.00    -0.291 OA
BRANCH  11  12
HETATM   12  C   UNL     1      -8.763   1.187 -31.792  1.00  0.00     0.095 A 
HETATM   13  C   UNL     1      -9.322   2.455 -31.688  1.00  0.00     0.153 A 
HETATM   14  N   UNL     1     -10.420   2.855 -32.377  1.00  0.00    -0.270 NA
HETATM   15  C   UNL     1     -10.982   1.940 -33.198  1.00  0.00     0.116 A 
HETATM   16  C   UNL     1     -10.489   0.656 -33.376  1.00  0.00     0.022 A 
HETATM   17  C   UNL     1      -9.351   0.280 -32.667  1.00  0.00     0.040 A 
ENDBRANCH  11  12
ENDBRANCH   8  11
ENDBRANCH   2   5
BRANCH   1  18
HETATM   18  C   UNL     1      -1.788   6.145 -31.954  1.00  0.00     0.061 C 
HETATM   19  C   UNL     1      -1.123   5.177 -32.959  1.00  0.00     0.030 C 
HETATM   20  C   UNL     1      -1.991   7.490 -32.687  1.00  0.00     0.030 C 
BRANCH  18  21
HETATM   21  C   UNL     1      -0.959   6.401 -30.681  1.00  0.00    -0.038 A 
HETATM   22  C   UNL     1      -0.970   7.630 -30.000  1.00  0.00     0.050 A 
HETATM   23  C   UNL     1      -0.194   7.811 -28.856  1.00  0.00     0.117 A 
HETATM   24  F   UNL     1      -0.216   8.997 -28.232  1.00  0.00    -0.206 F 
HETATM   25  C   UNL     1       0.602   6.791 -28.355  1.00  0.00     0.042 A 
HETATM   26  C   UNL     1       0.624   5.564 -29.008  1.00  0.00     0.004 A 
HETATM   27  C   UNL     1      -0.148   5.372 -30.159  1.00  0.00     0.008 A 
ENDBRANCH  18  21
ENDBRANCH   1  18
TORSDOF 5
ENDMDL
MODEL 10
REMARK VINA RESULT:      -7.2      4.859      7.221
REMARK  5 active torsions:
REMARK  status: ('A' for Active; 'I' for Inactive)
REMARK    1  A    between atoms: C_2  and  C_3 
REMARK    2  A    between atoms: C_2  and  C_19 
REMARK       I    between atoms: C_3  and  N_4 
REMARK    3  A    between atoms: N_4  and  C_5 
REMARK    4  A    between atoms: C_8  and  O_9 
REMARK    5  A    between atoms: O_9  and  C_10 
ROOT
HETATM    1  C   UNL     1      -5.916  -0.044 -33.475  1.00  0.00     0.234 C 
HETATM    2  N   UNL     1      -6.909   0.036 -32.507  1.00  0.00    -0.325 N 
HETATM    3  O   UNL     1      -5.991   0.455 -34.595  1.00  0.00    -0.272 OA
HETATM    4  H   UNL     1      -6.678  -0.326 -31.590  1.00  0.00     0.169 HD
ENDROOT
BRANCH   2   5
HETATM    5  C   UNL     1      -8.177   0.636 -32.641  1.00  0.00     0.052 A 
HETATM    6  C   UNL     1      -9.243   0.113 -33.366  1.00  0.00     0.149 A 
HETATM    7  N   UNL     1     -10.463   0.705 -33.461  1.00  0.00    -0.235 NA
HETATM    8  C   UNL     1     -10.632   1.869 -32.803  1.00  0.00     0.169 A 
HETATM    9  C   UNL     1      -9.631   2.480 -32.066  1.00  0.00     0.060 A 
HETATM   10  C   UNL     1      -8.390   1.849 -31.980  1.00  0.00     0.035 A 
BRANCH   8  11
HETATM   11  O   UNL     1     -11.839   2.550 -32.885  1.00  0.00    -0.291 OA
BRANCH  11  12
HETATM   12  C   UNL     1     -11.885   3.665 -33.681  1.00  0.00     0.095 A 
HETATM   13  C   UNL     1     -11.208   3.776 -34.890  1.00  0.00     0.153 A 
HETATM   14  N   UNL     1     -11.317   4.843 -35.721  1.00  0.00    -0.270 NA
HETATM   15  C   UNL     1     -12.133   5.840 -35.316  1.00  0.00     0.116 A 
HETATM   16  C   UNL     1     -12.858   5.814 -34.133  1.00  0.00     0.022 A 
HETATM   17  C   UNL     1     -12.738   4.698 -33.309  1.00  0.00     0.040 A 
ENDBRANCH  11  12
ENDBRANCH   8  11
ENDBRANCH   2   5
BRANCH   1  18
HETATM   18  C   UNL     1      -4.678  -0.876 -33.030  1.00  0.00     0.061 C 
HETATM   19  C   UNL     1      -3.430  -0.079 -33.471  1.00  0.00     0.030 C 
HETATM   20  C   UNL     1      -4.638  -0.964 -31.488  1.00  0.00     0.030 C 
BRANCH  18  21
HETATM   21  C   UNL     1      -4.750  -2.305 -33.600  1.00  0.00    -0.038 A 
HETATM   22  C   UNL     1      -5.787  -2.736 -34.444  1.00  0.00     0.050 A 
HETATM   23  C   UNL     1      -5.809  -4.044 -34.926  1.00  0.00     0.117 A 
HETATM   24  F   UNL     1      -6.815  -4.431 -35.722  1.00  0.00    -0.206 F 
HETATM   25  C   UNL     1      -4.812  -4.952 -34.596  1.00  0.00     0.042 A 
HETATM   26  C   UNL     1      -3.772  -4.545 -33.768  1.00  0.00     0.004 A 
HETATM   27  C   UNL     1      -3.741  -3.237 -33.275  1.00  0.00     0.008 A 
ENDBRANCH  18  21
ENDBRANCH   1  18
TORSDOF 5
ENDMDL
