MODEL 1
REMARK VINA RESULT:      -9.3      0.000      0.000
REMARK  5 active torsions:
REMARK  status: ('A' for Active; 'I' for Inactive)
REMARK    1  A    between atoms: C_2  and  N_3 
REMARK    2  A    between atoms: C_2  and  C_16 
REMARK    3  A    between atoms: N_3  and  C_6 
REMARK    4  A    between atoms: C_6  and  C_7 
REMARK    5  A    between atoms: C_19  and  C_20 
ROOT
HETATM    1  C   UNL     1      -4.947   2.034 -31.022  1.00  0.00     0.049 C 
HETATM    2  C   UNL     1      -5.486   2.395 -32.403  1.00  0.00     0.260 C 
ENDROOT
BRANCH   2   3
HETATM    3  N   UNL     1      -4.523   3.374 -33.024  1.00  0.00    -0.060 N 
HETATM    4  H   UNL     1      -4.466   3.201 -34.039  1.00  0.00     0.278 HD
HETATM    5  H   UNL     1      -4.874   4.336 -32.919  1.00  0.00     0.278 HD
BRANCH   3   6
HETATM    6  C   UNL     1      -3.122   3.321 -32.506  1.00  0.00     0.274 C 
BRANCH   6   7
HETATM    7  C   UNL     1      -2.384   4.586 -32.811  1.00  0.00     0.004 A 
HETATM    8  C   UNL     1      -1.353   5.030 -31.995  1.00  0.00     0.113 A 
HETATM    9  C   UNL     1      -0.667   6.196 -32.241  1.00  0.00     0.105 A 
HETATM   10  O   UNL     1      -0.878   4.372 -30.897  1.00  0.00    -0.322 OA
HETATM   11  O   UNL     1       0.304   6.430 -31.323  1.00  0.00    -0.323 OA
HETATM   12  C   UNL     1      -0.965   6.993 -33.322  1.00  0.00     0.040 A 
HETATM   13  C   UNL     1       0.121   5.321 -30.428  1.00  0.00     0.352 A 
HETATM   14  C   UNL     1      -2.001   6.584 -34.166  1.00  0.00     0.003 A 
HETATM   15  C   UNL     1      -2.708   5.393 -33.913  1.00  0.00     0.012 A 
ENDBRANCH   6   7
ENDBRANCH   3   6
ENDBRANCH   2   3
BRANCH   2  16
HETATM   16  C   UNL     1      -5.728   1.167 -33.215  1.00  0.00     0.203 A 
HETATM   17  O   UNL     1      -6.477   1.315 -34.342  1.00  0.00    -0.194 OA
HETATM   18  N   UNL     1      -6.610   0.050 -34.894  1.00  0.00    -0.106 NA
HETATM   19  C   UNL     1      -5.910  -0.748 -34.069  1.00  0.00     0.189 A 
HETATM   20  N   UNL     1      -5.377  -0.074 -32.984  1.00  0.00    -0.202 NA
BRANCH  19  21
HETATM   21  C   UNL     1      -5.720  -2.179 -34.270  1.00  0.00     0.017 A 
HETATM   22  C   UNL     1      -4.468  -2.762 -34.032  1.00  0.00     0.057 A 
HETATM   23  C   UNL     1      -4.285  -4.125 -34.238  1.00  0.00     0.117 A 
HETATM   24  F   UNL     1      -3.080  -4.665 -34.012  1.00  0.00    -0.206 F 
HETATM   25  C   UNL     1      -5.326  -4.933 -34.678  1.00  0.00     0.042 A 
HETATM   26  C   UNL     1      -6.576  -4.367 -34.916  1.00  0.00     0.004 A 
HETATM   27  C   UNL     1      -6.772  -2.997 -34.714  1.00  0.00     0.016 A 
ENDBRANCH  19  21
ENDBRANCH   2  16
TORSDOF 5
ENDMDL
MODEL 2
REMARK VINA RESULT:      -9.1      1.392      1.513
REMARK  5 active torsions:
REMARK  status: ('A' for Active; 'I' for Inactive)
REMARK    1  A    between atoms: C_2  and  N_3 
REMARK    2  A    between atoms: C_2  and  C_16 
REMARK    3  A    between atoms: N_3  and  C_6 
REMARK    4  A    between atoms: C_6  and  C_7 
REMARK    5  A    between atoms: C_19  and  C_20 
ROOT
HETATM    1  C   UNL     1      -5.581   1.980 -30.596  1.00  0.00     0.049 C 
HETATM    2  C   UNL     1      -5.341   2.347 -32.057  1.00  0.00     0.260 C 
ENDROOT
BRANCH   2   3
HETATM    3  N   UNL     1      -3.945   2.907 -32.160  1.00  0.00    -0.060 N 
HETATM    4  H   UNL     1      -3.296   2.313 -31.622  1.00  0.00     0.278 HD
HETATM    5  H   UNL     1      -3.617   2.874 -33.135  1.00  0.00     0.278 HD
BRANCH   3   6
HETATM    6  C   UNL     1      -3.767   4.300 -31.648  1.00  0.00     0.274 C 
BRANCH   6   7
HETATM    7  C   UNL     1      -2.875   5.098 -32.546  1.00  0.00     0.004 A 
HETATM    8  C   UNL     1      -2.623   6.440 -32.300  1.00  0.00     0.113 A 
HETATM    9  C   UNL     1      -1.821   7.203 -33.116  1.00  0.00     0.105 A 
HETATM   10  O   UNL     1      -3.095   7.148 -31.232  1.00  0.00    -0.322 OA
HETATM   11  O   UNL     1      -1.706   8.483 -32.682  1.00  0.00    -0.323 OA
HETATM   12  C   UNL     1      -1.215   6.670 -34.231  1.00  0.00     0.040 A 
HETATM   13  C   UNL     1      -2.574   8.472 -31.536  1.00  0.00     0.352 A 
HETATM   14  C   UNL     1      -1.448   5.323 -34.518  1.00  0.00     0.003 A 
HETATM   15  C   UNL     1      -2.273   4.542 -33.686  1.00  0.00     0.012 A 
ENDBRANCH   6   7
ENDBRANCH   3   6
ENDBRANCH   2   3
BRANCH   2  16
HETATM   16  C   UNL     1      -5.605   1.181 -32.948  1.00  0.00     0.203 A 
HETATM   17  O   UNL     1      -6.289   1.430 -34.098  1.00  0.00    -0.194 OA
HETATM   18  N   UNL     1      -6.459   0.205 -34.727  1.00  0.00    -0.106 NA
HETATM   19  C   UNL     1      -5.843  -0.672 -33.917  1.00  0.00     0.189 A 
HETATM   20  N   UNL     1      -5.330  -0.088 -32.771  1.00  0.00    -0.202 NA
BRANCH  19  21
HETATM   21  C   UNL     1      -5.718  -2.099 -34.190  1.00  0.00     0.017 A 
HETATM   22  C   UNL     1      -4.491  -2.746 -33.994  1.00  0.00     0.057 A 
HETATM   23  C   UNL     1      -4.368  -4.104 -34.269  1.00  0.00     0.117 A 
HETATM   24  F   UNL     1      -3.187  -4.706 -34.082  1.00  0.00    -0.206 F 
HETATM   25  C   UNL     1      -5.448  -4.844 -34.736  1.00  0.00     0.042 A 
HETATM   26  C   UNL     1      -6.674  -4.214 -34.933  1.00  0.00     0.004 A 
HETATM   27  C   UNL     1      -6.808  -2.848 -34.662  1.00  0.00     0.016 A 
ENDBRANCH  19  21
ENDBRANCH   2  16
TORSDOF 5
ENDMDL
MODEL 3
REMARK VINA RESULT:      -9.0      1.309      1.716
REMARK  5 active torsions:
REMARK  status: ('A' for Active; 'I' for Inactive)
REMARK    1  A    between atoms: C_2  and  N_3 
REMARK    2  A    between atoms: C_2  and  C_16 
REMARK    3  A    between atoms: N_3  and  C_6 
REMARK    4  A    between atoms: C_6  and  C_7 
REMARK    5  A    between atoms: C_19  and  C_20 
ROOT
HETATM    1  C   UNL     1      -5.457   2.233 -30.990  1.00  0.00     0.049 C 
HETATM    2  C   UNL     1      -5.457   2.531 -32.487  1.00  0.00     0.260 C 
ENDROOT
BRANCH   2   3
HETATM    3  N   UNL     1      -4.156   3.219 -32.813  1.00  0.00    -0.060 N 
HETATM    4  H   UNL     1      -3.556   2.578 -33.353  1.00  0.00     0.278 HD
HETATM    5  H   UNL     1      -4.324   4.032 -33.421  1.00  0.00     0.278 HD
BRANCH   3   6
HETATM    6  C   UNL     1      -3.348   3.666 -31.637  1.00  0.00     0.274 C 
BRANCH   6   7
HETATM    7  C   UNL     1      -2.839   5.060 -31.828  1.00  0.00     0.004 A 
HETATM    8  C   UNL     1      -2.156   5.424 -32.980  1.00  0.00     0.113 A 
HETATM    9  C   UNL     1      -1.663   6.692 -33.176  1.00  0.00     0.105 A 
HETATM   10  O   UNL     1      -1.922   4.607 -34.048  1.00  0.00    -0.322 OA
HETATM   11  O   UNL     1      -1.039   6.828 -34.373  1.00  0.00    -0.323 OA
HETATM   12  C   UNL     1      -1.824   7.681 -32.232  1.00  0.00     0.040 A 
HETATM   13  C   UNL     1      -1.132   5.491 -34.893  1.00  0.00     0.352 A 
HETATM   14  C   UNL     1      -2.501   7.354 -31.055  1.00  0.00     0.003 A 
HETATM   15  C   UNL     1      -3.002   6.054 -30.851  1.00  0.00     0.012 A 
ENDBRANCH   6   7
ENDBRANCH   3   6
ENDBRANCH   2   3
BRANCH   2  16
HETATM   16  C   UNL     1      -5.713   1.291 -33.274  1.00  0.00     0.203 A 
HETATM   17  O   UNL     1      -6.487   1.419 -34.387  1.00  0.00    -0.194 OA
HETATM   18  N   UNL     1      -6.629   0.145 -34.916  1.00  0.00    -0.106 NA
HETATM   19  C   UNL     1      -5.909  -0.638 -34.094  1.00  0.00     0.189 A 
HETATM   20  N   UNL     1      -5.354   0.054 -33.031  1.00  0.00    -0.202 NA
BRANCH  19  21
HETATM   21  C   UNL     1      -5.720  -2.072 -34.276  1.00  0.00     0.017 A 
HETATM   22  C   UNL     1      -4.482  -2.660 -33.985  1.00  0.00     0.057 A 
HETATM   23  C   UNL     1      -4.298  -4.026 -34.173  1.00  0.00     0.117 A 
HETATM   24  F   UNL     1      -3.107  -4.571 -33.896  1.00  0.00    -0.206 F 
HETATM   25  C   UNL     1      -5.327  -4.831 -34.647  1.00  0.00     0.042 A 
HETATM   26  C   UNL     1      -6.563  -4.260 -34.939  1.00  0.00     0.004 A 
HETATM   27  C   UNL     1      -6.759  -2.887 -34.755  1.00  0.00     0.016 A 
ENDBRANCH  19  21
ENDBRANCH   2  16
TORSDOF 5
ENDMDL
MODEL 4
REMARK VINA RESULT:      -9.0      1.699      2.180
REMARK  5 active torsions:
REMARK  status: ('A' for Active; 'I' for Inactive)
REMARK    1  A    between atoms: C_2  and  N_3 
REMARK    2  A    between atoms: C_2  and  C_16 
REMARK    3  A    between atoms: N_3  and  C_6 
REMARK    4  A    between atoms: C_6  and  C_7 
REMARK    5  A    between atoms: C_19  and  C_20 
ROOT
HETATM    1  C   UNL     1      -5.200   2.337 -30.451  1.00  0.00     0.049 C 
HETATM    2  C   UNL     1      -4.384   2.207 -31.733  1.00  0.00     0.260 C 
ENDROOT
BRANCH   2   3
HETATM    3  N   UNL     1      -3.222   3.162 -31.630  1.00  0.00    -0.060 N 
HETATM    4  H   UNL     1      -3.524   4.016 -31.138  1.00  0.00     0.278 HD
HETATM    5  H   UNL     1      -2.473   2.753 -31.056  1.00  0.00     0.278 HD
BRANCH   3   6
HETATM    6  C   UNL     1      -2.633   3.607 -32.929  1.00  0.00     0.274 C 
BRANCH   6   7
HETATM    7  C   UNL     1      -2.053   4.982 -32.819  1.00  0.00     0.004 A 
HETATM    8  C   UNL     1      -1.132   5.296 -31.830  1.00  0.00     0.113 A 
HETATM    9  C   UNL     1      -0.595   6.554 -31.695  1.00  0.00     0.105 A 
HETATM   10  O   UNL     1      -0.630   4.418 -30.913  1.00  0.00    -0.322 OA
HETATM   11  O   UNL     1       0.289   6.634 -30.669  1.00  0.00    -0.323 OA
HETATM   12  C   UNL     1      -0.941   7.581 -32.544  1.00  0.00     0.040 A 
HETATM   13  C   UNL     1       0.209   5.306 -30.124  1.00  0.00     0.352 A 
HETATM   14  C   UNL     1      -1.870   7.307 -33.551  1.00  0.00     0.003 A 
HETATM   15  C   UNL     1      -2.426   6.020 -33.687  1.00  0.00     0.012 A 
ENDBRANCH   6   7
ENDBRANCH   3   6
ENDBRANCH   2   3
BRANCH   2  16
HETATM   16  C   UNL     1      -3.996   0.787 -31.973  1.00  0.00     0.203 A 
HETATM   17  O   UNL     1      -2.819   0.372 -31.429  1.00  0.00    -0.194 OA
HETATM   18  N   UNL     1      -2.646  -0.946 -31.824  1.00  0.00    -0.106 NA
HETATM   19  C   UNL     1      -3.743  -1.221 -32.551  1.00  0.00     0.189 A 
HETATM   20  N   UNL     1      -4.589  -0.135 -32.691  1.00  0.00    -0.202 NA
BRANCH  19  21
HETATM   21  C   UNL     1      -4.033  -2.520 -33.146  1.00  0.00     0.017 A 
HETATM   22  C   UNL     1      -4.998  -2.629 -34.157  1.00  0.00     0.057 A 
HETATM   23  C   UNL     1      -5.284  -3.871 -34.714  1.00  0.00     0.117 A 
HETATM   24  F   UNL     1      -6.214  -3.959 -35.674  1.00  0.00    -0.206 F 
HETATM   25  C   UNL     1      -4.627  -5.019 -34.290  1.00  0.00     0.042 A 
HETATM   26  C   UNL     1      -3.664  -4.924 -33.288  1.00  0.00     0.004 A 
HETATM   27  C   UNL     1      -3.369  -3.681 -32.718  1.00  0.00     0.016 A 
ENDBRANCH  19  21
ENDBRANCH   2  16
TORSDOF 5
ENDMDL
MODEL 5
REMARK VINA RESULT:      -8.7      3.157      8.707
REMARK  5 active torsions:
REMARK  status: ('A' for Active; 'I' for Inactive)
REMARK    1  A    between atoms: C_2  and  N_3 
REMARK    2  A    between atoms: C_2  and  C_16 
REMARK    3  A    between atoms: N_3  and  C_6 
REMARK    4  A    between atoms: C_6  and  C_7 
REMARK    5  A    between atoms: C_19  and  C_20 
ROOT
HETATM    1  C   UNL     1      -7.362   1.627 -32.888  1.00  0.00     0.049 C 
HETATM    2  C   UNL     1      -6.330   0.959 -31.986  1.00  0.00     0.260 C 
ENDROOT
BRANCH   2   3
HETATM    3  N   UNL     1      -6.215  -0.481 -32.417  1.00  0.00    -0.060 N 
HETATM    4  H   UNL     1      -5.863  -1.048 -31.631  1.00  0.00     0.278 HD
HETATM    5  H   UNL     1      -7.143  -0.861 -32.647  1.00  0.00     0.278 HD
BRANCH   3   6
HETATM    6  C   UNL     1      -5.299  -0.741 -33.569  1.00  0.00     0.274 C 
BRANCH   6   7
HETATM    7  C   UNL     1      -4.740  -2.128 -33.516  1.00  0.00     0.004 A 
HETATM    8  C   UNL     1      -5.315  -3.162 -34.240  1.00  0.00     0.113 A 
HETATM    9  C   UNL     1      -4.833  -4.449 -34.199  1.00  0.00     0.105 A 
HETATM   10  O   UNL     1      -6.378  -3.035 -35.088  1.00  0.00    -0.322 OA
HETATM   11  O   UNL     1      -5.540  -5.295 -34.990  1.00  0.00    -0.323 OA
HETATM   12  C   UNL     1      -3.741  -4.785 -33.432  1.00  0.00     0.040 A 
HETATM   13  C   UNL     1      -6.566  -4.421 -35.491  1.00  0.00     0.352 A 
HETATM   14  C   UNL     1      -3.136  -3.773 -32.682  1.00  0.00     0.003 A 
HETATM   15  C   UNL     1      -3.632  -2.455 -32.720  1.00  0.00     0.012 A 
ENDBRANCH   6   7
ENDBRANCH   3   6
ENDBRANCH   2   3
BRANCH   2  16
HETATM   16  C   UNL     1      -5.043   1.712 -32.004  1.00  0.00     0.203 A 
HETATM   17  O   UNL     1      -4.056   1.261 -31.181  1.00  0.00    -0.194 OA
HETATM   18  N   UNL     1      -2.991   2.137 -31.328  1.00  0.00    -0.106 NA
HETATM   19  C   UNL     1      -3.415   3.025 -32.244  1.00  0.00     0.189 A 
HETATM   20  N   UNL     1      -4.717   2.800 -32.657  1.00  0.00    -0.202 NA
BRANCH  19  21
HETATM   21  C   UNL     1      -2.609   4.123 -32.762  1.00  0.00     0.017 A 
HETATM   22  C   UNL     1      -1.749   4.826 -31.908  1.00  0.00     0.057 A 
HETATM   23  C   UNL     1      -0.991   5.884 -32.400  1.00  0.00     0.117 A 
HETATM   24  F   UNL     1      -0.179   6.550 -31.570  1.00  0.00    -0.206 F 
HETATM   25  C   UNL     1      -1.066   6.262 -33.735  1.00  0.00     0.042 A 
HETATM   26  C   UNL     1      -1.914   5.571 -34.596  1.00  0.00     0.004 A 
HETATM   27  C   UNL     1      -2.683   4.507 -34.111  1.00  0.00     0.016 A 
ENDBRANCH  19  21
ENDBRANCH   2  16
TORSDOF 5
ENDMDL
MODEL 6
REMARK VINA RESULT:      -8.7      1.759      2.317
REMARK  5 active torsions:
REMARK  status: ('A' for Active; 'I' for Inactive)
REMARK    1  A    between atoms: C_2  and  N_3 
REMARK    2  A    between atoms: C_2  and  C_16 
REMARK    3  A    between atoms: N_3  and  C_6 
REMARK    4  A    between atoms: C_6  and  C_7 
REMARK    5  A    between atoms: C_19  and  C_20 
ROOT
HETATM    1  C   UNL     1      -5.971   1.118 -29.812  1.00  0.00     0.049 C 
HETATM    2  C   UNL     1      -5.533   1.624 -31.183  1.00  0.00     0.260 C 
ENDROOT
BRANCH   2   3
HETATM    3  N   UNL     1      -4.584   2.774 -30.960  1.00  0.00    -0.060 N 
HETATM    4  H   UNL     1      -4.425   2.896 -29.948  1.00  0.00     0.278 HD
HETATM    5  H   UNL     1      -3.664   2.563 -31.368  1.00  0.00     0.278 HD
BRANCH   3   6
HETATM    6  C   UNL     1      -5.040   4.099 -31.480  1.00  0.00     0.274 C 
BRANCH   6   7
HETATM    7  C   UNL     1      -4.254   4.508 -32.686  1.00  0.00     0.004 A 
HETATM    8  C   UNL     1      -2.898   4.789 -32.598  1.00  0.00     0.113 A 
HETATM    9  C   UNL     1      -2.154   5.181 -33.686  1.00  0.00     0.105 A 
HETATM   10  O   UNL     1      -2.143   4.682 -31.466  1.00  0.00    -0.322 OA
HETATM   11  O   UNL     1      -0.851   5.394 -33.374  1.00  0.00    -0.323 OA
HETATM   12  C   UNL     1      -2.718   5.315 -34.934  1.00  0.00     0.040 A 
HETATM   13  C   UNL     1      -0.857   5.156 -31.957  1.00  0.00     0.352 A 
HETATM   14  C   UNL     1      -4.083   5.047 -35.063  1.00  0.00     0.003 A 
HETATM   15  C   UNL     1      -4.848   4.650 -33.950  1.00  0.00     0.012 A 
ENDBRANCH   6   7
ENDBRANCH   3   6
ENDBRANCH   2   3
BRANCH   2  16
HETATM   16  C   UNL     1      -4.972   0.512 -32.004  1.00  0.00     0.203 A 
HETATM   17  O   UNL     1      -3.779   0.744 -32.618  1.00  0.00    -0.194 OA
HETATM   18  N   UNL     1      -3.489  -0.394 -33.355  1.00  0.00    -0.106 NA
HETATM   19  C   UNL     1      -4.516  -1.224 -33.103  1.00  0.00     0.189 A 
HETATM   20  N   UNL     1      -5.481  -0.662 -32.286  1.00  0.00    -0.202 NA
BRANCH  19  21
HETATM   21  C   UNL     1      -4.630  -2.578 -33.629  1.00  0.00     0.017 A 
HETATM   22  C   UNL     1      -5.691  -2.915 -34.479  1.00  0.00     0.057 A 
HETATM   23  C   UNL     1      -5.807  -4.212 -34.969  1.00  0.00     0.117 A 
HETATM   24  F   UNL     1      -6.831  -4.519 -35.775  1.00  0.00    -0.206 F 
HETATM   25  C   UNL     1      -4.882  -5.193 -34.633  1.00  0.00     0.042 A 
HETATM   26  C   UNL     1      -3.820  -4.872 -33.791  1.00  0.00     0.004 A 
HETATM   27  C   UNL     1      -3.695  -3.571 -33.290  1.00  0.00     0.016 A 
ENDBRANCH  19  21
ENDBRANCH   2  16
TORSDOF 5
ENDMDL
MODEL 7
REMARK VINA RESULT:      -8.7      5.360      8.516
REMARK  5 active torsions:
REMARK  status: ('A' for Active; 'I' for Inactive)
REMARK    1  A    between atoms: C_2  and  N_3 
REMARK    2  A    between atoms: C_2  and  C_16 
REMARK    3  A    between atoms: N_3  and  C_6 
REMARK    4  A    between atoms: C_6  and  C_7 
REMARK    5  A    between atoms: C_19  and  C_20 
ROOT
HETATM    1  C   UNL     1      -8.865   3.470 -32.829  1.00  0.00     0.049 C 
HETATM    2  C   UNL     1      -8.943   2.026 -32.344  1.00  0.00     0.260 C 
ENDROOT
BRANCH   2   3
HETATM    3  N   UNL     1     -10.394   1.617 -32.367  1.00  0.00    -0.060 N 
HETATM    4  H   UNL     1     -10.496   0.687 -31.934  1.00  0.00     0.278 HD
HETATM    5  H   UNL     1     -10.957   2.260 -31.794  1.00  0.00     0.278 HD
BRANCH   3   6
HETATM    6  C   UNL     1     -11.018   1.523 -33.723  1.00  0.00     0.274 C 
BRANCH   6   7
HETATM    7  C   UNL     1     -12.511   1.502 -33.632  1.00  0.00     0.004 A 
HETATM    8  C   UNL     1     -13.196   2.418 -32.845  1.00  0.00     0.113 A 
HETATM    9  C   UNL     1     -14.566   2.414 -32.731  1.00  0.00     0.105 A 
HETATM   10  O   UNL     1     -12.620   3.430 -32.133  1.00  0.00    -0.322 OA
HETATM   11  O   UNL     1     -15.022   3.400 -31.919  1.00  0.00    -0.323 OA
HETATM   12  C   UNL     1     -15.342   1.495 -33.400  1.00  0.00     0.040 A 
HETATM   13  C   UNL     1     -13.790   3.994 -31.477  1.00  0.00     0.352 A 
HETATM   14  C   UNL     1     -14.690   0.552 -34.199  1.00  0.00     0.003 A 
HETATM   15  C   UNL     1     -13.287   0.551 -34.313  1.00  0.00     0.012 A 
ENDBRANCH   6   7
ENDBRANCH   3   6
ENDBRANCH   2   3
BRANCH   2  16
HETATM   16  C   UNL     1      -8.042   1.148 -33.144  1.00  0.00     0.203 A 
HETATM   17  O   UNL     1      -7.556   1.665 -34.306  1.00  0.00    -0.194 OA
HETATM   18  N   UNL     1      -6.798   0.663 -34.895  1.00  0.00    -0.106 NA
HETATM   19  C   UNL     1      -6.870  -0.361 -34.027  1.00  0.00     0.189 A 
HETATM   20  N   UNL     1      -7.679  -0.094 -32.936  1.00  0.00    -0.202 NA
BRANCH  19  21
HETATM   21  C   UNL     1      -6.183  -1.635 -34.197  1.00  0.00     0.017 A 
HETATM   22  C   UNL     1      -6.845  -2.716 -34.796  1.00  0.00     0.057 A 
HETATM   23  C   UNL     1      -6.193  -3.936 -34.944  1.00  0.00     0.117 A 
HETATM   24  F   UNL     1      -6.842  -4.960 -35.512  1.00  0.00    -0.206 F 
HETATM   25  C   UNL     1      -4.885  -4.110 -34.510  1.00  0.00     0.042 A 
HETATM   26  C   UNL     1      -4.214  -3.044 -33.916  1.00  0.00     0.004 A 
HETATM   27  C   UNL     1      -4.860  -1.813 -33.759  1.00  0.00     0.016 A 
ENDBRANCH  19  21
ENDBRANCH   2  16
TORSDOF 5
ENDMDL
MODEL 8
REMARK VINA RESULT:      -8.5      2.995      8.114
REMARK  5 active torsions:
REMARK  status: ('A' for Active; 'I' for Inactive)
REMARK    1  A    between atoms: C_2  and  N_3 
REMARK    2  A    between atoms: C_2  and  C_16 
REMARK    3  A    between atoms: N_3  and  C_6 
REMARK    4  A    between atoms: C_6  and  C_7 
REMARK    5  A    between atoms: C_19  and  C_20 
ROOT
HETATM    1  C   UNL     1      -7.528   2.308 -31.801  1.00  0.00     0.049 C 
HETATM    2  C   UNL     1      -6.407   1.469 -31.196  1.00  0.00     0.260 C 
ENDROOT
BRANCH   2   3
HETATM    3  N   UNL     1      -6.522   0.078 -31.768  1.00  0.00    -0.060 N 
HETATM    4  H   UNL     1      -5.748  -0.503 -31.413  1.00  0.00     0.278 HD
HETATM    5  H   UNL     1      -7.388  -0.372 -31.441  1.00  0.00     0.278 HD
BRANCH   3   6
HETATM    6  C   UNL     1      -6.473  -0.014 -33.259  1.00  0.00     0.274 C 
BRANCH   6   7
HETATM    7  C   UNL     1      -5.979  -1.355 -33.703  1.00  0.00     0.004 A 
HETATM    8  C   UNL     1      -4.860  -1.936 -33.124  1.00  0.00     0.113 A 
HETATM    9  C   UNL     1      -4.375  -3.160 -33.522  1.00  0.00     0.105 A 
HETATM   10  O   UNL     1      -4.139  -1.403 -32.095  1.00  0.00    -0.322 OA
HETATM   11  O   UNL     1      -3.280  -3.538 -32.815  1.00  0.00    -0.323 OA
HETATM   12  C   UNL     1      -4.979  -3.883 -34.524  1.00  0.00     0.040 A 
HETATM   13  C   UNL     1      -3.082  -2.395 -31.967  1.00  0.00     0.352 A 
HETATM   14  C   UNL     1      -6.107  -3.331 -35.136  1.00  0.00     0.003 A 
HETATM   15  C   UNL     1      -6.603  -2.076 -34.733  1.00  0.00     0.012 A 
ENDBRANCH   6   7
ENDBRANCH   3   6
ENDBRANCH   2   3
BRANCH   2  16
HETATM   16  C   UNL     1      -5.082   2.118 -31.415  1.00  0.00     0.203 A 
HETATM   17  O   UNL     1      -3.988   1.451 -30.952  1.00  0.00    -0.194 OA
HETATM   18  N   UNL     1      -2.894   2.260 -31.218  1.00  0.00    -0.106 NA
HETATM   19  C   UNL     1      -3.416   3.331 -31.839  1.00  0.00     0.189 A 
HETATM   20  N   UNL     1      -4.795   3.283 -31.941  1.00  0.00    -0.202 NA
BRANCH  19  21
HETATM   21  C   UNL     1      -2.633   4.446 -32.358  1.00  0.00     0.017 A 
HETATM   22  C   UNL     1      -2.137   4.407 -33.668  1.00  0.00     0.057 A 
HETATM   23  C   UNL     1      -1.377   5.465 -34.157  1.00  0.00     0.117 A 
HETATM   24  F   UNL     1      -0.906   5.409 -35.408  1.00  0.00    -0.206 F 
HETATM   25  C   UNL     1      -1.097   6.574 -33.368  1.00  0.00     0.042 A 
HETATM   26  C   UNL     1      -1.586   6.628 -32.065  1.00  0.00     0.004 A 
HETATM   27  C   UNL     1      -2.349   5.568 -31.562  1.00  0.00     0.016 A 
ENDBRANCH  19  21
ENDBRANCH   2  16
TORSDOF 5
ENDMDL
MODEL 9
REMARK VINA RESULT:      -8.5      2.013      2.554
REMARK  5 active torsions:
REMARK  status: ('A' for Active; 'I' for Inactive)
REMARK    1  A    between atoms: C_2  and  N_3 
REMARK    2  A    between atoms: C_2  and  C_16 
REMARK    3  A    between atoms: N_3  and  C_6 
REMARK    4  A    between atoms: C_6  and  C_7 
REMARK    5  A    between atoms: C_19  and  C_20 
ROOT
HETATM    1  C   UNL     1      -5.446   2.891 -30.263  1.00  0.00     0.049 C 
HETATM    2  C   UNL     1      -4.475   2.879 -31.439  1.00  0.00     0.260 C 
ENDROOT
BRANCH   2   3
HETATM    3  N   UNL     1      -3.208   3.562 -30.988  1.00  0.00    -0.060 N 
HETATM    4  H   UNL     1      -3.412   4.157 -30.172  1.00  0.00     0.278 HD
HETATM    5  H   UNL     1      -2.522   2.865 -30.668  1.00  0.00     0.278 HD
BRANCH   3   6
HETATM    6  C   UNL     1      -2.552   4.443 -32.002  1.00  0.00     0.274 C 
BRANCH   6   7
HETATM    7  C   UNL     1      -1.586   5.386 -31.356  1.00  0.00     0.004 A 
HETATM    8  C   UNL     1      -2.007   6.305 -30.406  1.00  0.00     0.113 A 
HETATM    9  C   UNL     1      -1.145   7.194 -29.807  1.00  0.00     0.105 A 
HETATM   10  O   UNL     1      -3.282   6.420 -29.931  1.00  0.00    -0.322 OA
HETATM   11  O   UNL     1      -1.768   7.993 -28.904  1.00  0.00    -0.323 OA
HETATM   12  C   UNL     1       0.195   7.219 -30.119  1.00  0.00     0.040 A 
HETATM   13  C   UNL     1      -3.132   7.560 -29.038  1.00  0.00     0.352 A 
HETATM   14  C   UNL     1       0.658   6.313 -31.075  1.00  0.00     0.003 A 
HETATM   15  C   UNL     1      -0.224   5.405 -31.693  1.00  0.00     0.012 A 
ENDBRANCH   6   7
ENDBRANCH   3   6
ENDBRANCH   2   3
BRANCH   2  16
HETATM   16  C   UNL     1      -4.280   1.493 -31.953  1.00  0.00     0.203 A 
HETATM   17  O   UNL     1      -3.051   0.938 -31.767  1.00  0.00    -0.194 OA
HETATM   18  N   UNL     1      -3.090  -0.313 -32.365  1.00  0.00    -0.106 NA
HETATM   19  C   UNL     1      -4.345  -0.416 -32.836  1.00  0.00     0.189 A 
HETATM   20  N   UNL     1      -5.102   0.723 -32.623  1.00  0.00    -0.202 NA
BRANCH  19  21
HETATM   21  C   UNL     1      -4.878  -1.593 -33.512  1.00  0.00     0.017 A 
HETATM   22  C   UNL     1      -4.095  -2.748 -33.631  1.00  0.00     0.057 A 
HETATM   23  C   UNL     1      -4.598  -3.866 -34.289  1.00  0.00     0.117 A 
HETATM   24  F   UNL     1      -3.834  -4.960 -34.401  1.00  0.00    -0.206 F 
HETATM   25  C   UNL     1      -5.876  -3.864 -34.835  1.00  0.00     0.042 A 
HETATM   26  C   UNL     1      -6.667  -2.723 -34.722  1.00  0.00     0.004 A 
HETATM   27  C   UNL     1      -6.170  -1.592 -34.064  1.00  0.00     0.016 A 
ENDBRANCH  19  21
ENDBRANCH   2  16
TORSDOF 5
ENDMDL
MODEL 10
REMARK VINA RESULT:      -8.4      3.404      6.808
REMARK  5 active torsions:
REMARK  status: ('A' for Active; 'I' for Inactive)
REMARK    1  A    between atoms: C_2  and  N_3 
REMARK    2  A    between atoms: C_2  and  C_16 
REMARK    3  A    between atoms: N_3  and  C_6 
REMARK    4  A    between atoms: C_6  and  C_7 
REMARK    5  A    between atoms: C_19  and  C_20 
ROOT
HETATM    1  C   UNL     1      -5.129   3.255 -33.025  1.00  0.00     0.049 C 
HETATM    2  C   UNL     1      -5.497   2.116 -32.079  1.00  0.00     0.260 C 
ENDROOT
BRANCH   2   3
HETATM    3  N   UNL     1      -6.998   2.110 -31.938  1.00  0.00    -0.060 N 
HETATM    4  H   UNL     1      -7.329   1.140 -31.829  1.00  0.00     0.278 HD
HETATM    5  H   UNL     1      -7.278   2.604 -31.079  1.00  0.00     0.278 HD
BRANCH   3   6
HETATM    6  C   UNL     1      -7.758   2.690 -33.087  1.00  0.00     0.274 C 
BRANCH   6   7
HETATM    7  C   UNL     1      -9.043   1.958 -33.311  1.00  0.00     0.004 A 
HETATM    8  C   UNL     1     -10.051   2.500 -34.096  1.00  0.00     0.113 A 
HETATM    9  C   UNL     1     -11.248   1.857 -34.308  1.00  0.00     0.105 A 
HETATM   10  O   UNL     1      -9.976   3.686 -34.767  1.00  0.00    -0.322 OA
HETATM   11  O   UNL     1     -12.081   2.563 -35.113  1.00  0.00    -0.323 OA
HETATM   12  C   UNL     1     -11.514   0.627 -33.750  1.00  0.00     0.040 A 
HETATM   13  C   UNL     1     -11.311   3.755 -35.340  1.00  0.00     0.352 A 
HETATM   14  C   UNL     1     -10.527   0.049 -32.948  1.00  0.00     0.003 A 
HETATM   15  C   UNL     1      -9.302   0.709 -32.726  1.00  0.00     0.012 A 
ENDBRANCH   6   7
ENDBRANCH   3   6
ENDBRANCH   2   3
BRANCH   2  16
HETATM   16  C   UNL     1      -4.917   0.826 -32.551  1.00  0.00     0.203 A 
HETATM   17  O   UNL     1      -3.562   0.768 -32.664  1.00  0.00    -0.194 OA
HETATM   18  N   UNL     1      -3.263  -0.491 -33.164  1.00  0.00    -0.106 NA
HETATM   19  C   UNL     1      -4.459  -1.093 -33.285  1.00  0.00     0.189 A 
HETATM   20  N   UNL     1      -5.518  -0.271 -32.942  1.00  0.00    -0.202 NA
BRANCH  19  21
HETATM   21  C   UNL     1      -4.649  -2.466 -33.735  1.00  0.00     0.017 A 
HETATM   22  C   UNL     1      -5.751  -2.796 -34.536  1.00  0.00     0.057 A 
HETATM   23  C   UNL     1      -5.940  -4.110 -34.952  1.00  0.00     0.117 A 
HETATM   24  F   UNL     1      -7.001  -4.410 -35.712  1.00  0.00    -0.206 F 
HETATM   25  C   UNL     1      -5.050  -5.114 -34.591  1.00  0.00     0.042 A 
HETATM   26  C   UNL     1      -3.949  -4.800 -33.798  1.00  0.00     0.004 A 
HETATM   27  C   UNL     1      -3.750  -3.482 -33.371  1.00  0.00     0.016 A 
ENDBRANCH  19  21
ENDBRANCH   2  16
TORSDOF 5
ENDMDL
