MODEL 1
REMARK VINA RESULT:      -8.7      0.000      0.000
REMARK  5 active torsions:
REMARK  status: ('A' for Active; 'I' for Inactive)
REMARK    1  A    between atoms: C_7  and  C_8 
REMARK    2  A    between atoms: N_9  and  C_10 
REMARK    3  A    between atoms: C_10  and  C_11 
REMARK       I    between atoms: C_11  and  N_12 
REMARK    4  A    between atoms: N_12  and  C_13 
REMARK    5  A    between atoms: C_13  and  C_14 
ROOT
HETATM    1  C   UNL     1      -6.188   3.485 -33.219  1.00  0.00     0.158 A 
HETATM    2  N   UNL     1      -5.356   4.670 -33.326  1.00  0.00    -0.326 N 
HETATM    3  C   UNL     1      -5.513   5.530 -32.257  1.00  0.00     0.255 A 
HETATM    4  O   UNL     1      -4.975   6.605 -32.075  1.00  0.00    -0.267 OA
HETATM    5  C   UNL     1      -6.530   4.942 -31.380  1.00  0.00     0.040 A 
HETATM    6  C   UNL     1      -6.949   3.737 -31.946  1.00  0.00    -0.015 A 
HETATM    7  C   UNL     1      -7.064   5.450 -30.212  1.00  0.00     0.017 A 
HETATM    8  C   UNL     1      -8.062   4.703 -29.587  1.00  0.00     0.001 A 
HETATM    9  C   UNL     1      -8.501   3.486 -30.142  1.00  0.00     0.001 A 
HETATM   10  C   UNL     1      -7.947   2.997 -31.331  1.00  0.00     0.011 A 
ENDROOT
BRANCH   1  11
HETATM   11  C   UNL     1      -5.408   2.216 -32.989  1.00  0.00     0.004 A 
HETATM   12  C   UNL     1      -4.310   1.967 -32.160  1.00  0.00     0.017 A 
HETATM   13  C   UNL     1      -3.526   2.888 -31.281  1.00  0.00     0.069 C 
HETATM   14  N   UNL     1      -4.041   0.613 -32.216  1.00  0.00    -0.354 N 
HETATM   15  C   UNL     1      -3.044  -0.080 -31.422  1.00  0.00     0.156 C 
HETATM   16  C   UNL     1      -4.871  -0.011 -33.123  1.00  0.00     0.045 A 
HETATM   17  C   UNL     1      -5.737   0.963 -33.620  1.00  0.00     0.001 A 
HETATM   18  C   UNL     1      -4.944  -1.354 -33.535  1.00  0.00     0.030 A 
HETATM   19  C   UNL     1      -6.721   0.572 -34.557  1.00  0.00     0.014 A 
HETATM   20  C   UNL     1      -6.805  -0.762 -34.968  1.00  0.00     0.001 A 
HETATM   21  C   UNL     1      -5.926  -1.711 -34.463  1.00  0.00     0.002 A 
ENDBRANCH   1  11
BRANCH   2  22
HETATM   22  C   UNL     1      -4.518   4.947 -34.485  1.00  0.00     0.229 C 
BRANCH  22  23
HETATM   23  C   UNL     1      -3.026   5.168 -34.187  1.00  0.00     0.235 C 
HETATM   24  N   UNL     1      -2.641   6.474 -34.012  1.00  0.00    -0.357 N 
HETATM   25  H   UNL     1      -3.330   7.201 -34.133  1.00  0.00     0.162 HD
HETATM   26  O   UNL     1      -2.255   4.222 -34.032  1.00  0.00    -0.272 OA
BRANCH  24  27
HETATM   27  C   UNL     1      -1.341   6.871 -33.502  1.00  0.00     0.154 C 
BRANCH  27  28
HETATM   28  C   UNL     1      -1.153   6.622 -32.004  1.00  0.00     0.139 C 
HETATM   29  O   UNL     1      -2.010   7.477 -31.214  1.00  0.00    -0.384 OA
HETATM   30  C   UNL     1      -1.276   7.879 -30.047  1.00  0.00     0.168 C 
HETATM   31  C   UNL     1      -0.013   7.044 -30.008  1.00  0.00     0.029 C 
HETATM   32  C   UNL     1       0.256   6.826 -31.477  1.00  0.00     0.035 C 
ENDBRANCH  27  28
ENDBRANCH  24  27
ENDBRANCH  22  23
ENDBRANCH   2  22
TORSDOF 5
ENDMDL
MODEL 2
REMARK VINA RESULT:      -8.4      2.451      6.344
REMARK  5 active torsions:
REMARK  status: ('A' for Active; 'I' for Inactive)
REMARK    1  A    between atoms: C_7  and  C_8 
REMARK    2  A    between atoms: N_9  and  C_10 
REMARK    3  A    between atoms: C_10  and  C_11 
REMARK       I    between atoms: C_11  and  N_12 
REMARK    4  A    between atoms: N_12  and  C_13 
REMARK    5  A    between atoms: C_13  and  C_14 
ROOT
HETATM    1  C   UNL     1      -4.206   3.377 -31.422  1.00  0.00     0.158 A 
HETATM    2  N   UNL     1      -5.161   4.311 -30.852  1.00  0.00    -0.326 N 
HETATM    3  C   UNL     1      -5.045   5.582 -31.380  1.00  0.00     0.255 A 
HETATM    4  O   UNL     1      -5.682   6.575 -31.089  1.00  0.00    -0.267 OA
HETATM    5  C   UNL     1      -3.933   5.549 -32.335  1.00  0.00     0.040 A 
HETATM    6  C   UNL     1      -3.418   4.251 -32.358  1.00  0.00    -0.015 A 
HETATM    7  C   UNL     1      -3.401   6.583 -33.081  1.00  0.00     0.017 A 
HETATM    8  C   UNL     1      -2.303   6.290 -33.888  1.00  0.00     0.001 A 
HETATM    9  C   UNL     1      -1.766   4.989 -33.925  1.00  0.00     0.001 A 
HETATM   10  C   UNL     1      -2.321   3.960 -33.154  1.00  0.00     0.011 A 
ENDROOT
BRANCH   1  11
HETATM   11  C   UNL     1      -4.838   2.315 -32.283  1.00  0.00     0.004 A 
HETATM   12  C   UNL     1      -5.836   2.416 -33.258  1.00  0.00     0.017 A 
HETATM   13  C   UNL     1      -6.631   3.596 -33.718  1.00  0.00     0.069 C 
HETATM   14  N   UNL     1      -5.977   1.173 -33.845  1.00  0.00    -0.354 N 
HETATM   15  C   UNL     1      -6.834   0.869 -34.974  1.00  0.00     0.156 C 
HETATM   16  C   UNL     1      -5.167   0.246 -33.222  1.00  0.00     0.045 A 
HETATM   17  C   UNL     1      -4.443   0.930 -32.246  1.00  0.00     0.001 A 
HETATM   18  C   UNL     1      -4.999  -1.131 -33.448  1.00  0.00     0.030 A 
HETATM   19  C   UNL     1      -3.505   0.205 -31.474  1.00  0.00     0.014 A 
HETATM   20  C   UNL     1      -3.327  -1.165 -31.696  1.00  0.00     0.001 A 
HETATM   21  C   UNL     1      -4.066  -1.822 -32.670  1.00  0.00     0.002 A 
ENDBRANCH   1  11
BRANCH   2  22
HETATM   22  C   UNL     1      -6.076   3.951 -29.777  1.00  0.00     0.229 C 
BRANCH  22  23
HETATM   23  C   UNL     1      -7.554   3.831 -30.177  1.00  0.00     0.235 C 
HETATM   24  N   UNL     1      -7.957   2.590 -30.606  1.00  0.00    -0.357 N 
HETATM   25  H   UNL     1      -7.266   1.858 -30.681  1.00  0.00     0.162 HD
HETATM   26  O   UNL     1      -8.337   4.769 -30.034  1.00  0.00    -0.272 OA
BRANCH  24  27
HETATM   27  C   UNL     1      -9.344   2.215 -30.807  1.00  0.00     0.154 C 
BRANCH  27  28
HETATM   28  C   UNL     1      -9.800   2.259 -32.266  1.00  0.00     0.139 C 
HETATM   29  O   UNL     1     -11.035   2.994 -32.413  1.00  0.00    -0.384 OA
HETATM   30  C   UNL     1     -11.828   2.329 -33.409  1.00  0.00     0.168 C 
HETATM   31  C   UNL     1     -10.941   1.290 -34.062  1.00  0.00     0.029 C 
HETATM   32  C   UNL     1     -10.027   0.908 -32.924  1.00  0.00     0.035 C 
ENDBRANCH  27  28
ENDBRANCH  24  27
ENDBRANCH  22  23
ENDBRANCH   2  22
TORSDOF 5
ENDMDL
MODEL 3
REMARK VINA RESULT:      -8.3      3.873      6.710
REMARK  5 active torsions:
REMARK  status: ('A' for Active; 'I' for Inactive)
REMARK    1  A    between atoms: C_7  and  C_8 
REMARK    2  A    between atoms: N_9  and  C_10 
REMARK    3  A    between atoms: C_10  and  C_11 
REMARK       I    between atoms: C_11  and  N_12 
REMARK    4  A    between atoms: N_12  and  C_13 
REMARK    5  A    between atoms: C_13  and  C_14 
ROOT
HETATM    1  C   UNL     1      -6.925  -0.397 -31.905  1.00  0.00     0.158 A 
HETATM    2  N   UNL     1      -5.826  -0.060 -31.019  1.00  0.00    -0.326 N 
HETATM    3  C   UNL     1      -4.602  -0.482 -31.502  1.00  0.00     0.255 A 
HETATM    4  O   UNL     1      -3.511  -0.369 -30.979  1.00  0.00    -0.267 OA
HETATM    5  C   UNL     1      -4.859  -1.183 -32.763  1.00  0.00     0.040 A 
HETATM    6  C   UNL     1      -6.234  -1.152 -33.006  1.00  0.00    -0.015 A 
HETATM    7  C   UNL     1      -3.962  -1.825 -33.595  1.00  0.00     0.017 A 
HETATM    8  C   UNL     1      -4.479  -2.459 -34.725  1.00  0.00     0.001 A 
HETATM    9  C   UNL     1      -5.861  -2.442 -34.987  1.00  0.00     0.001 A 
HETATM   10  C   UNL     1      -6.750  -1.789 -34.124  1.00  0.00     0.011 A 
ENDROOT
BRANCH   1  11
HETATM   11  C   UNL     1      -7.562   0.799 -32.562  1.00  0.00     0.004 A 
HETATM   12  C   UNL     1      -6.996   2.003 -32.994  1.00  0.00     0.017 A 
HETATM   13  C   UNL     1      -5.593   2.509 -32.893  1.00  0.00     0.069 C 
HETATM   14  N   UNL     1      -7.982   2.722 -33.641  1.00  0.00    -0.354 N 
HETATM   15  C   UNL     1      -7.788   3.983 -34.331  1.00  0.00     0.156 C 
HETATM   16  C   UNL     1      -9.193   2.065 -33.566  1.00  0.00     0.045 A 
HETATM   17  C   UNL     1      -8.962   0.862 -32.901  1.00  0.00     0.001 A 
HETATM   18  C   UNL     1     -10.467   2.421 -34.042  1.00  0.00     0.030 A 
HETATM   19  C   UNL     1     -10.049  -0.024 -32.716  1.00  0.00     0.014 A 
HETATM   20  C   UNL     1     -11.319   0.319 -33.192  1.00  0.00     0.001 A 
HETATM   21  C   UNL     1     -11.523   1.528 -33.846  1.00  0.00     0.002 A 
ENDBRANCH   1  11
BRANCH   2  22
HETATM   22  C   UNL     1      -6.019   0.578 -29.724  1.00  0.00     0.229 C 
BRANCH  22  23
HETATM   23  C   UNL     1      -6.143   2.110 -29.750  1.00  0.00     0.235 C 
HETATM   24  N   UNL     1      -7.420   2.606 -29.665  1.00  0.00    -0.357 N 
HETATM   25  H   UNL     1      -8.191   1.953 -29.640  1.00  0.00     0.162 HD
HETATM   26  O   UNL     1      -5.149   2.835 -29.759  1.00  0.00    -0.272 OA
BRANCH  24  27
HETATM   27  C   UNL     1      -7.731   4.006 -29.444  1.00  0.00     0.154 C 
BRANCH  27  28
HETATM   28  C   UNL     1      -8.733   4.590 -30.441  1.00  0.00     0.139 C 
HETATM   29  O   UNL     1      -9.049   5.965 -30.129  1.00  0.00    -0.384 OA
HETATM   30  C   UNL     1     -10.445   6.169 -30.398  1.00  0.00     0.168 C 
HETATM   31  C   UNL     1     -10.940   4.937 -31.127  1.00  0.00     0.029 C 
HETATM   32  C   UNL     1     -10.061   3.860 -30.542  1.00  0.00     0.035 C 
ENDBRANCH  27  28
ENDBRANCH  24  27
ENDBRANCH  22  23
ENDBRANCH   2  22
TORSDOF 5
ENDMDL
MODEL 4
REMARK VINA RESULT:      -8.3      2.645      6.976
REMARK  5 active torsions:
REMARK  status: ('A' for Active; 'I' for Inactive)
REMARK    1  A    between atoms: C_7  and  C_8 
REMARK    2  A    between atoms: N_9  and  C_10 
REMARK    3  A    between atoms: C_10  and  C_11 
REMARK       I    between atoms: C_11  and  N_12 
REMARK    4  A    between atoms: N_12  and  C_13 
REMARK    5  A    between atoms: C_13  and  C_14 
ROOT
HETATM    1  C   UNL     1      -4.819   3.062 -30.645  1.00  0.00     0.158 A 
HETATM    2  N   UNL     1      -5.219   1.679 -30.830  1.00  0.00    -0.326 N 
HETATM    3  C   UNL     1      -6.590   1.511 -30.797  1.00  0.00     0.255 A 
HETATM    4  O   UNL     1      -7.221   0.477 -30.896  1.00  0.00    -0.267 OA
HETATM    5  C   UNL     1      -7.176   2.830 -30.536  1.00  0.00     0.040 A 
HETATM    6  C   UNL     1      -6.136   3.755 -30.431  1.00  0.00    -0.015 A 
HETATM    7  C   UNL     1      -8.505   3.168 -30.367  1.00  0.00     0.017 A 
HETATM    8  C   UNL     1      -8.794   4.502 -30.083  1.00  0.00     0.001 A 
HETATM    9  C   UNL     1      -7.760   5.451 -29.970  1.00  0.00     0.001 A 
HETATM   10  C   UNL     1      -6.421   5.080 -30.140  1.00  0.00     0.011 A 
ENDROOT
BRANCH   1  11
HETATM   11  C   UNL     1      -4.220   3.689 -31.878  1.00  0.00     0.004 A 
HETATM   12  C   UNL     1      -4.733   3.807 -33.174  1.00  0.00     0.017 A 
HETATM   13  C   UNL     1      -6.012   3.304 -33.763  1.00  0.00     0.069 C 
HETATM   14  N   UNL     1      -3.846   4.572 -33.907  1.00  0.00    -0.354 N 
HETATM   15  C   UNL     1      -4.052   5.020 -35.271  1.00  0.00     0.156 C 
HETATM   16  C   UNL     1      -2.731   4.878 -33.157  1.00  0.00     0.045 A 
HETATM   17  C   UNL     1      -2.936   4.343 -31.886  1.00  0.00     0.001 A 
HETATM   18  C   UNL     1      -1.567   5.596 -33.485  1.00  0.00     0.030 A 
HETATM   19  C   UNL     1      -1.940   4.546 -30.903  1.00  0.00     0.014 A 
HETATM   20  C   UNL     1      -0.781   5.264 -31.218  1.00  0.00     0.001 A 
HETATM   21  C   UNL     1      -0.599   5.780 -32.494  1.00  0.00     0.002 A 
ENDBRANCH   1  11
BRANCH   2  22
HETATM   22  C   UNL     1      -4.263   0.586 -30.949  1.00  0.00     0.229 C 
BRANCH  22  23
HETATM   23  C   UNL     1      -4.139  -0.037 -32.348  1.00  0.00     0.235 C 
HETATM   24  N   UNL     1      -5.082  -0.984 -32.664  1.00  0.00    -0.357 N 
HETATM   25  H   UNL     1      -5.756  -1.247 -31.961  1.00  0.00     0.162 HD
HETATM   26  O   UNL     1      -3.299   0.358 -33.156  1.00  0.00    -0.272 OA
BRANCH  24  27
HETATM   27  C   UNL     1      -5.275  -1.517 -34.000  1.00  0.00     0.154 C 
BRANCH  27  28
HETATM   28  C   UNL     1      -4.450  -2.769 -34.301  1.00  0.00     0.139 C 
HETATM   29  O   UNL     1      -5.265  -3.816 -34.872  1.00  0.00    -0.384 OA
HETATM   30  C   UNL     1      -4.809  -5.070 -34.339  1.00  0.00     0.168 C 
HETATM   31  C   UNL     1      -3.514  -4.794 -33.603  1.00  0.00     0.029 C 
HETATM   32  C   UNL     1      -3.735  -3.385 -33.110  1.00  0.00     0.035 C 
ENDBRANCH  27  28
ENDBRANCH  24  27
ENDBRANCH  22  23
ENDBRANCH   2  22
TORSDOF 5
ENDMDL
MODEL 5
REMARK VINA RESULT:      -8.3      1.888      2.101
REMARK  5 active torsions:
REMARK  status: ('A' for Active; 'I' for Inactive)
REMARK    1  A    between atoms: C_7  and  C_8 
REMARK    2  A    between atoms: N_9  and  C_10 
REMARK    3  A    between atoms: C_10  and  C_11 
REMARK       I    between atoms: C_11  and  N_12 
REMARK    4  A    between atoms: N_12  and  C_13 
REMARK    5  A    between atoms: C_13  and  C_14 
ROOT
HETATM    1  C   UNL     1      -7.310   3.643 -33.867  1.00  0.00     0.158 A 
HETATM    2  N   UNL     1      -6.511   4.836 -33.652  1.00  0.00    -0.326 N 
HETATM    3  C   UNL     1      -7.182   5.804 -32.930  1.00  0.00     0.255 A 
HETATM    4  O   UNL     1      -6.789   6.911 -32.615  1.00  0.00    -0.267 OA
HETATM    5  C   UNL     1      -8.526   5.283 -32.661  1.00  0.00     0.040 A 
HETATM    6  C   UNL     1      -8.619   4.009 -33.224  1.00  0.00    -0.015 A 
HETATM    7  C   UNL     1      -9.580   5.899 -32.015  1.00  0.00     0.017 A 
HETATM    8  C   UNL     1     -10.779   5.193 -31.931  1.00  0.00     0.001 A 
HETATM    9  C   UNL     1     -10.895   3.908 -32.493  1.00  0.00     0.001 A 
HETATM   10  C   UNL     1      -9.813   3.308 -33.148  1.00  0.00     0.011 A 
ENDROOT
BRANCH   1  11
HETATM   11  C   UNL     1      -6.806   2.435 -33.120  1.00  0.00     0.004 A 
HETATM   12  C   UNL     1      -6.353   2.309 -31.804  1.00  0.00     0.017 A 
HETATM   13  C   UNL     1      -6.171   3.339 -30.735  1.00  0.00     0.069 C 
HETATM   14  N   UNL     1      -6.119   0.968 -31.567  1.00  0.00    -0.354 N 
HETATM   15  C   UNL     1      -5.737   0.394 -30.291  1.00  0.00     0.156 C 
HETATM   16  C   UNL     1      -6.319   0.229 -32.714  1.00  0.00     0.045 A 
HETATM   17  C   UNL     1      -6.751   1.116 -33.699  1.00  0.00     0.001 A 
HETATM   18  C   UNL     1      -6.173  -1.147 -32.961  1.00  0.00     0.030 A 
HETATM   19  C   UNL     1      -7.059   0.600 -34.979  1.00  0.00     0.014 A 
HETATM   20  C   UNL     1      -6.923  -0.769 -35.233  1.00  0.00     0.001 A 
HETATM   21  C   UNL     1      -6.484  -1.629 -34.235  1.00  0.00     0.002 A 
ENDBRANCH   1  11
BRANCH   2  22
HETATM   22  C   UNL     1      -5.180   5.012 -34.218  1.00  0.00     0.229 C 
BRANCH  22  23
HETATM   23  C   UNL     1      -4.013   4.829 -33.236  1.00  0.00     0.235 C 
HETATM   24  N   UNL     1      -3.770   5.886 -32.395  1.00  0.00    -0.357 N 
HETATM   25  H   UNL     1      -4.326   6.722 -32.498  1.00  0.00     0.162 HD
HETATM   26  O   UNL     1      -3.399   3.765 -33.159  1.00  0.00    -0.272 OA
BRANCH  24  27
HETATM   27  C   UNL     1      -2.874   5.823 -31.255  1.00  0.00     0.154 C 
BRANCH  27  28
HETATM   28  C   UNL     1      -1.398   6.013 -31.608  1.00  0.00     0.139 C 
HETATM   29  O   UNL     1      -0.635   4.811 -31.359  1.00  0.00    -0.384 OA
HETATM   30  C   UNL     1       0.648   5.202 -30.844  1.00  0.00     0.168 C 
HETATM   31  C   UNL     1       0.755   6.703 -31.013  1.00  0.00     0.029 C 
HETATM   32  C   UNL     1      -0.685   7.131 -30.868  1.00  0.00     0.035 C 
ENDBRANCH  27  28
ENDBRANCH  24  27
ENDBRANCH  22  23
ENDBRANCH   2  22
TORSDOF 5
ENDMDL
MODEL 6
REMARK VINA RESULT:      -8.3     17.847     19.462
REMARK  5 active torsions:
REMARK  status: ('A' for Active; 'I' for Inactive)
REMARK    1  A    between atoms: C_7  and  C_8 
REMARK    2  A    between atoms: N_9  and  C_10 
REMARK    3  A    between atoms: C_10  and  C_11 
REMARK       I    between atoms: C_11  and  N_12 
REMARK    4  A    between atoms: N_12  and  C_13 
REMARK    5  A    between atoms: C_13  and  C_14 
ROOT
HETATM    1  C   UNL     1      -6.711 -12.835 -38.034  1.00  0.00     0.158 A 
HETATM    2  N   UNL     1      -5.364 -12.711 -38.562  1.00  0.00    -0.326 N 
HETATM    3  C   UNL     1      -4.398 -13.112 -37.659  1.00  0.00     0.255 A 
HETATM    4  O   UNL     1      -3.191 -13.101 -37.801  1.00  0.00    -0.267 OA
HETATM    5  C   UNL     1      -5.096 -13.495 -36.428  1.00  0.00     0.040 A 
HETATM    6  C   UNL     1      -6.466 -13.322 -36.633  1.00  0.00    -0.015 A 
HETATM    7  C   UNL     1      -4.562 -13.917 -35.226  1.00  0.00     0.017 A 
HETATM    8  C   UNL     1      -5.454 -14.180 -34.187  1.00  0.00     0.001 A 
HETATM    9  C   UNL     1      -6.839 -14.010 -34.371  1.00  0.00     0.001 A 
HETATM   10  C   UNL     1      -7.354 -13.575 -35.598  1.00  0.00     0.011 A 
ENDROOT
BRANCH   1  11
HETATM   11  C   UNL     1      -7.529 -13.907 -38.706  1.00  0.00     0.004 A 
HETATM   12  C   UNL     1      -7.304 -15.283 -38.814  1.00  0.00     0.017 A 
HETATM   13  C   UNL     1      -6.157 -16.121 -38.345  1.00  0.00     0.069 C 
HETATM   14  N   UNL     1      -8.411 -15.843 -39.422  1.00  0.00    -0.354 N 
HETATM   15  C   UNL     1      -8.629 -17.262 -39.629  1.00  0.00     0.156 C 
HETATM   16  C   UNL     1      -9.308 -14.864 -39.795  1.00  0.00     0.045 A 
HETATM   17  C   UNL     1      -8.787 -13.647 -39.360  1.00  0.00     0.001 A 
HETATM   18  C   UNL     1     -10.542 -14.951 -40.463  1.00  0.00     0.030 A 
HETATM   19  C   UNL     1      -9.538 -12.472 -39.594  1.00  0.00     0.014 A 
HETATM   20  C   UNL     1     -10.770 -12.549 -40.253  1.00  0.00     0.001 A 
HETATM   21  C   UNL     1     -11.264 -13.774 -40.682  1.00  0.00     0.002 A 
ENDBRANCH   1  11
BRANCH   2  22
HETATM   22  C   UNL     1      -5.076 -12.143 -39.872  1.00  0.00     0.229 C 
BRANCH  22  23
HETATM   23  C   UNL     1      -4.663 -13.150 -40.956  1.00  0.00     0.235 C 
HETATM   24  N   UNL     1      -3.325 -13.456 -41.007  1.00  0.00    -0.357 N 
HETATM   25  H   UNL     1      -2.697 -12.978 -40.378  1.00  0.00     0.162 HD
HETATM   26  O   UNL     1      -5.498 -13.706 -41.669  1.00  0.00    -0.272 OA
BRANCH  24  27
HETATM   27  C   UNL     1      -2.774 -14.543 -41.795  1.00  0.00     0.154 C 
BRANCH  27  28
HETATM   28  C   UNL     1      -1.469 -15.118 -41.241  1.00  0.00     0.139 C 
HETATM   29  O   UNL     1      -1.719 -16.111 -40.222  1.00  0.00    -0.384 OA
HETATM   30  C   UNL     1      -0.715 -15.961 -39.205  1.00  0.00     0.168 C 
HETATM   31  C   UNL     1       0.323 -14.999 -39.746  1.00  0.00     0.029 C 
HETATM   32  C   UNL     1      -0.514 -14.108 -40.629  1.00  0.00     0.035 C 
ENDBRANCH  27  28
ENDBRANCH  24  27
ENDBRANCH  22  23
ENDBRANCH   2  22
TORSDOF 5
ENDMDL
MODEL 7
REMARK VINA RESULT:      -8.1      2.982      4.282
REMARK  5 active torsions:
REMARK  status: ('A' for Active; 'I' for Inactive)
REMARK    1  A    between atoms: C_7  and  C_8 
REMARK    2  A    between atoms: N_9  and  C_10 
REMARK    3  A    between atoms: C_10  and  C_11 
REMARK       I    between atoms: C_11  and  N_12 
REMARK    4  A    between atoms: N_12  and  C_13 
REMARK    5  A    between atoms: C_13  and  C_14 
ROOT
HETATM    1  C   UNL     1      -9.307   2.731 -34.063  1.00  0.00     0.158 A 
HETATM    2  N   UNL     1      -9.302   4.139 -33.706  1.00  0.00    -0.326 N 
HETATM    3  C   UNL     1     -10.493   4.550 -33.139  1.00  0.00     0.255 A 
HETATM    4  O   UNL     1     -10.797   5.665 -32.763  1.00  0.00    -0.267 OA
HETATM    5  C   UNL     1     -11.388   3.390 -33.136  1.00  0.00     0.040 A 
HETATM    6  C   UNL     1     -10.702   2.309 -33.694  1.00  0.00    -0.015 A 
HETATM    7  C   UNL     1     -12.702   3.311 -32.717  1.00  0.00     0.017 A 
HETATM    8  C   UNL     1     -13.349   2.085 -32.864  1.00  0.00     0.001 A 
HETATM    9  C   UNL     1     -12.677   0.983 -33.426  1.00  0.00     0.001 A 
HETATM   10  C   UNL     1     -11.346   1.091 -33.849  1.00  0.00     0.011 A 
ENDROOT
BRANCH   1  11
HETATM   11  C   UNL     1      -8.385   1.889 -33.220  1.00  0.00     0.004 A 
HETATM   12  C   UNL     1      -8.116   1.937 -31.849  1.00  0.00     0.017 A 
HETATM   13  C   UNL     1      -8.615   2.870 -30.792  1.00  0.00     0.069 C 
HETATM   14  N   UNL     1      -7.290   0.872 -31.546  1.00  0.00    -0.354 N 
HETATM   15  C   UNL     1      -6.857   0.496 -30.213  1.00  0.00     0.156 C 
HETATM   16  C   UNL     1      -6.939   0.187 -32.691  1.00  0.00     0.045 A 
HETATM   17  C   UNL     1      -7.609   0.797 -33.750  1.00  0.00     0.001 A 
HETATM   18  C   UNL     1      -6.103  -0.927 -32.878  1.00  0.00     0.030 A 
HETATM   19  C   UNL     1      -7.443   0.260 -35.048  1.00  0.00     0.014 A 
HETATM   20  C   UNL     1      -6.617  -0.853 -35.244  1.00  0.00     0.001 A 
HETATM   21  C   UNL     1      -5.956  -1.437 -34.171  1.00  0.00     0.002 A 
ENDBRANCH   1  11
BRANCH   2  22
HETATM   22  C   UNL     1      -8.184   5.026 -33.999  1.00  0.00     0.229 C 
BRANCH  22  23
HETATM   23  C   UNL     1      -7.247   5.326 -32.819  1.00  0.00     0.235 C 
HETATM   24  N   UNL     1      -6.058   4.639 -32.813  1.00  0.00    -0.357 N 
HETATM   25  H   UNL     1      -5.892   3.957 -33.539  1.00  0.00     0.162 HD
HETATM   26  O   UNL     1      -7.517   6.192 -31.988  1.00  0.00    -0.272 OA
BRANCH  24  27
HETATM   27  C   UNL     1      -4.953   4.945 -31.925  1.00  0.00     0.154 C 
BRANCH  27  28
HETATM   28  C   UNL     1      -3.675   5.382 -32.642  1.00  0.00     0.139 C 
HETATM   29  O   UNL     1      -3.963   5.939 -33.944  1.00  0.00    -0.384 OA
HETATM   30  C   UNL     1      -2.927   5.515 -34.844  1.00  0.00     0.168 C 
HETATM   31  C   UNL     1      -1.842   4.877 -34.002  1.00  0.00     0.029 C 
HETATM   32  C   UNL     1      -2.641   4.291 -32.864  1.00  0.00     0.035 C 
ENDBRANCH  27  28
ENDBRANCH  24  27
ENDBRANCH  22  23
ENDBRANCH   2  22
TORSDOF 5
ENDMDL
MODEL 8
REMARK VINA RESULT:      -8.1      3.380      6.291
REMARK  5 active torsions:
REMARK  status: ('A' for Active; 'I' for Inactive)
REMARK    1  A    between atoms: C_7  and  C_8 
REMARK    2  A    between atoms: N_9  and  C_10 
REMARK    3  A    between atoms: C_10  and  C_11 
REMARK       I    between atoms: C_11  and  N_12 
REMARK    4  A    between atoms: N_12  and  C_13 
REMARK    5  A    between atoms: C_13  and  C_14 
ROOT
HETATM    1  C   UNL     1      -7.026  -0.351 -31.915  1.00  0.00     0.158 A 
HETATM    2  N   UNL     1      -5.954   0.019 -31.008  1.00  0.00    -0.326 N 
HETATM    3  C   UNL     1      -4.712  -0.391 -31.454  1.00  0.00     0.255 A 
HETATM    4  O   UNL     1      -3.636  -0.251 -30.906  1.00  0.00    -0.267 OA
HETATM    5  C   UNL     1      -4.926  -1.117 -32.709  1.00  0.00     0.040 A 
HETATM    6  C   UNL     1      -6.295  -1.112 -32.987  1.00  0.00    -0.015 A 
HETATM    7  C   UNL     1      -3.999  -1.757 -33.508  1.00  0.00     0.017 A 
HETATM    8  C   UNL     1      -4.477  -2.418 -34.639  1.00  0.00     0.001 A 
HETATM    9  C   UNL     1      -5.852  -2.427 -34.936  1.00  0.00     0.001 A 
HETATM   10  C   UNL     1      -6.772  -1.776 -34.106  1.00  0.00     0.011 A 
ENDROOT
BRANCH   1  11
HETATM   11  C   UNL     1      -7.665   0.824 -32.608  1.00  0.00     0.004 A 
HETATM   12  C   UNL     1      -9.004   1.066 -32.932  1.00  0.00     0.017 A 
HETATM   13  C   UNL     1     -10.219   0.214 -32.744  1.00  0.00     0.069 C 
HETATM   14  N   UNL     1      -9.086   2.343 -33.452  1.00  0.00    -0.354 N 
HETATM   15  C   UNL     1     -10.313   3.024 -33.818  1.00  0.00     0.156 C 
HETATM   16  C   UNL     1      -7.832   2.906 -33.561  1.00  0.00     0.045 A 
HETATM   17  C   UNL     1      -6.925   1.983 -33.040  1.00  0.00     0.001 A 
HETATM   18  C   UNL     1      -7.422   4.155 -34.058  1.00  0.00     0.030 A 
HETATM   19  C   UNL     1      -5.556   2.333 -33.006  1.00  0.00     0.014 A 
HETATM   20  C   UNL     1      -5.139   3.577 -33.493  1.00  0.00     0.001 A 
HETATM   21  C   UNL     1      -6.063   4.475 -34.013  1.00  0.00     0.002 A 
ENDBRANCH   1  11
BRANCH   2  22
HETATM   22  C   UNL     1      -6.190   0.675 -29.729  1.00  0.00     0.229 C 
BRANCH  22  23
HETATM   23  C   UNL     1      -6.126   2.210 -29.749  1.00  0.00     0.235 C 
HETATM   24  N   UNL     1      -7.322   2.858 -29.565  1.00  0.00    -0.357 N 
HETATM   25  H   UNL     1      -8.163   2.305 -29.479  1.00  0.00     0.162 HD
HETATM   26  O   UNL     1      -5.054   2.808 -29.836  1.00  0.00    -0.272 OA
BRANCH  24  27
HETATM   27  C   UNL     1      -7.440   4.284 -29.323  1.00  0.00     0.154 C 
BRANCH  27  28
HETATM   28  C   UNL     1      -7.440   5.137 -30.593  1.00  0.00     0.139 C 
HETATM   29  O   UNL     1      -6.189   5.842 -30.757  1.00  0.00    -0.384 OA
HETATM   30  C   UNL     1      -6.483   7.143 -31.289  1.00  0.00     0.168 C 
HETATM   31  C   UNL     1      -7.944   7.140 -31.688  1.00  0.00     0.029 C 
HETATM   32  C   UNL     1      -8.535   6.186 -30.679  1.00  0.00     0.035 C 
ENDBRANCH  27  28
ENDBRANCH  24  27
ENDBRANCH  22  23
ENDBRANCH   2  22
TORSDOF 5
ENDMDL
MODEL 9
REMARK VINA RESULT:      -8.0     17.610     19.987
REMARK  5 active torsions:
REMARK  status: ('A' for Active; 'I' for Inactive)
REMARK    1  A    between atoms: C_7  and  C_8 
REMARK    2  A    between atoms: N_9  and  C_10 
REMARK    3  A    between atoms: C_10  and  C_11 
REMARK       I    between atoms: C_11  and  N_12 
REMARK    4  A    between atoms: N_12  and  C_13 
REMARK    5  A    between atoms: C_13  and  C_14 
ROOT
HETATM    1  C   UNL     1      -7.402 -14.738 -38.046  1.00  0.00     0.158 A 
HETATM    2  N   UNL     1      -7.981 -16.069 -38.094  1.00  0.00    -0.326 N 
HETATM    3  C   UNL     1      -9.155 -16.114 -38.820  1.00  0.00     0.255 A 
HETATM    4  O   UNL     1      -9.878 -17.072 -39.017  1.00  0.00    -0.267 OA
HETATM    5  C   UNL     1      -9.434 -14.747 -39.269  1.00  0.00     0.040 A 
HETATM    6  C   UNL     1      -8.410 -13.919 -38.805  1.00  0.00    -0.015 A 
HETATM    7  C   UNL     1     -10.517 -14.274 -39.985  1.00  0.00     0.017 A 
HETATM    8  C   UNL     1     -10.562 -12.906 -40.247  1.00  0.00     0.001 A 
HETATM    9  C   UNL     1      -9.541 -12.053 -39.787  1.00  0.00     0.001 A 
HETATM   10  C   UNL     1      -8.458 -12.557 -39.057  1.00  0.00     0.011 A 
ENDROOT
BRANCH   1  11
HETATM   11  C   UNL     1      -6.110 -14.613 -38.811  1.00  0.00     0.004 A 
HETATM   12  C   UNL     1      -5.791 -14.994 -40.118  1.00  0.00     0.017 A 
HETATM   13  C   UNL     1      -6.611 -15.693 -41.155  1.00  0.00     0.069 C 
HETATM   14  N   UNL     1      -4.510 -14.551 -40.384  1.00  0.00    -0.354 N 
HETATM   15  C   UNL     1      -3.835 -14.648 -41.664  1.00  0.00     0.156 C 
HETATM   16  C   UNL     1      -3.952 -13.975 -39.262  1.00  0.00     0.045 A 
HETATM   17  C   UNL     1      -4.927 -13.997 -38.265  1.00  0.00     0.001 A 
HETATM   18  C   UNL     1      -2.678 -13.421 -39.046  1.00  0.00     0.030 A 
HETATM   19  C   UNL     1      -4.615 -13.431 -37.008  1.00  0.00     0.014 A 
HETATM   20  C   UNL     1      -3.352 -12.872 -36.786  1.00  0.00     0.001 A 
HETATM   21  C   UNL     1      -2.396 -12.869 -37.794  1.00  0.00     0.002 A 
ENDBRANCH   1  11
BRANCH   2  22
HETATM   22  C   UNL     1      -7.419 -17.204 -37.374  1.00  0.00     0.229 C 
BRANCH  22  23
HETATM   23  C   UNL     1      -7.747 -17.268 -35.875  1.00  0.00     0.235 C 
HETATM   24  N   UNL     1      -6.830 -16.681 -35.038  1.00  0.00    -0.357 N 
HETATM   25  H   UNL     1      -5.989 -16.294 -35.440  1.00  0.00     0.162 HD
HETATM   26  O   UNL     1      -8.809 -17.739 -35.469  1.00  0.00    -0.272 OA
BRANCH  24  27
HETATM   27  C   UNL     1      -7.064 -16.434 -33.627  1.00  0.00     0.154 C 
BRANCH  27  28
HETATM   28  C   UNL     1      -6.790 -14.995 -33.189  1.00  0.00     0.139 C 
HETATM   29  O   UNL     1      -7.675 -14.063 -33.851  1.00  0.00    -0.384 OA
HETATM   30  C   UNL     1      -6.923 -12.876 -34.147  1.00  0.00     0.168 C 
HETATM   31  C   UNL     1      -5.597 -12.998 -33.424  1.00  0.00     0.029 C 
HETATM   32  C   UNL     1      -5.379 -14.491 -33.436  1.00  0.00     0.035 C 
ENDBRANCH  27  28
ENDBRANCH  24  27
ENDBRANCH  22  23
ENDBRANCH   2  22
TORSDOF 5
ENDMDL
MODEL 10
REMARK VINA RESULT:      -7.9      3.339      7.569
REMARK  5 active torsions:
REMARK  status: ('A' for Active; 'I' for Inactive)
REMARK    1  A    between atoms: C_7  and  C_8 
REMARK    2  A    between atoms: N_9  and  C_10 
REMARK    3  A    between atoms: C_10  and  C_11 
REMARK       I    between atoms: C_11  and  N_12 
REMARK    4  A    between atoms: N_12  and  C_13 
REMARK    5  A    between atoms: C_13  and  C_14 
ROOT
HETATM    1  C   UNL     1      -5.362   3.668 -32.648  1.00  0.00     0.158 A 
HETATM    2  N   UNL     1      -6.716   3.731 -32.127  1.00  0.00    -0.326 N 
HETATM    3  C   UNL     1      -7.024   2.660 -31.311  1.00  0.00     0.255 A 
HETATM    4  O   UNL     1      -8.077   2.422 -30.753  1.00  0.00    -0.267 OA
HETATM    5  C   UNL     1      -5.847   1.785 -31.292  1.00  0.00     0.040 A 
HETATM    6  C   UNL     1      -4.860   2.365 -32.091  1.00  0.00    -0.015 A 
HETATM    7  C   UNL     1      -5.684   0.569 -30.658  1.00  0.00     0.017 A 
HETATM    8  C   UNL     1      -4.467  -0.088 -30.837  1.00  0.00     0.001 A 
HETATM    9  C   UNL     1      -3.459   0.478 -31.641  1.00  0.00     0.001 A 
HETATM   10  C   UNL     1      -3.653   1.710 -32.278  1.00  0.00     0.011 A 
ENDROOT
BRANCH   1  11
HETATM   11  C   UNL     1      -4.450   4.732 -32.093  1.00  0.00     0.004 A 
HETATM   12  C   UNL     1      -4.446   5.359 -30.843  1.00  0.00     0.017 A 
HETATM   13  C   UNL     1      -5.375   5.215 -29.680  1.00  0.00     0.069 C 
HETATM   14  N   UNL     1      -3.332   6.173 -30.786  1.00  0.00    -0.354 N 
HETATM   15  C   UNL     1      -2.897   6.923 -29.622  1.00  0.00     0.156 C 
HETATM   16  C   UNL     1      -2.660   6.165 -31.991  1.00  0.00     0.045 A 
HETATM   17  C   UNL     1      -3.333   5.273 -32.825  1.00  0.00     0.001 A 
HETATM   18  C   UNL     1      -1.509   6.855 -32.409  1.00  0.00     0.030 A 
HETATM   19  C   UNL     1      -2.823   5.057 -34.126  1.00  0.00     0.014 A 
HETATM   20  C   UNL     1      -1.674   5.734 -34.550  1.00  0.00     0.001 A 
HETATM   21  C   UNL     1      -1.028   6.622 -33.700  1.00  0.00     0.002 A 
ENDBRANCH   1  11
BRANCH   2  22
HETATM   22  C   UNL     1      -7.662   4.773 -32.504  1.00  0.00     0.229 C 
BRANCH  22  23
HETATM   23  C   UNL     1      -8.512   4.478 -33.749  1.00  0.00     0.235 C 
HETATM   24  N   UNL     1      -9.195   3.287 -33.737  1.00  0.00    -0.357 N 
HETATM   25  H   UNL     1      -9.066   2.665 -32.952  1.00  0.00     0.162 HD
HETATM   26  O   UNL     1      -8.633   5.303 -34.654  1.00  0.00    -0.272 OA
BRANCH  24  27
HETATM   27  C   UNL     1     -10.220   2.933 -34.701  1.00  0.00     0.154 C 
BRANCH  27  28
HETATM   28  C   UNL     1     -11.507   2.392 -34.077  1.00  0.00     0.139 C 
HETATM   29  O   UNL     1     -11.280   1.135 -33.403  1.00  0.00    -0.384 OA
HETATM   30  C   UNL     1     -12.427   0.300 -33.630  1.00  0.00     0.168 C 
HETATM   31  C   UNL     1     -13.491   1.171 -34.264  1.00  0.00     0.029 C 
HETATM   32  C   UNL     1     -12.656   2.158 -35.042  1.00  0.00     0.035 C 
ENDBRANCH  27  28
ENDBRANCH  24  27
ENDBRANCH  22  23
ENDBRANCH   2  22
TORSDOF 5
ENDMDL
