MODEL 1
REMARK VINA RESULT:      -9.4      0.000      0.000
REMARK  3 active torsions:
REMARK  status: ('A' for Active; 'I' for Inactive)
REMARK    1  A    between atoms: O_2  and  C_3 
REMARK    2  A    between atoms: C_4  and  N_5 
REMARK       I    between atoms: N_5  and  C_6 
REMARK       I    between atoms: C_6  and  N_7 
REMARK    3  A    between atoms: C_10  and  C_11 
ROOT
HETATM    1  N   UNL     1     -11.633   2.283 -32.524  1.00  0.00    -0.306 N 
HETATM    2  C   UNL     1     -10.836   2.331 -33.641  1.00  0.00     0.323 C 
HETATM    3  N   UNL     1      -9.677   1.550 -33.580  1.00  0.00    -0.330 N 
HETATM    4  C   UNL     1      -9.062   1.283 -34.877  1.00  0.00     0.155 C 
HETATM    5  C   UNL     1      -7.845   0.416 -34.816  1.00  0.00     0.001 C 
HETATM    6  C   UNL     1      -7.229   0.020 -33.689  1.00  0.00    -0.046 C 
HETATM    7  C   UNL     1      -7.780   0.458 -32.364  1.00  0.00     0.059 C 
HETATM    8  C   UNL     1      -9.286   0.712 -32.443  1.00  0.00     0.132 C 
HETATM    9  O   UNL     1     -11.104   2.979 -34.651  1.00  0.00    -0.247 OA
HETATM   10  H   UNL     1     -11.468   1.549 -31.852  1.00  0.00     0.171 HD
ENDROOT
BRANCH   1  11
HETATM   11  C   UNL     1     -12.844   2.976 -32.282  1.00  0.00     0.072 A 
HETATM   12  C   UNL     1     -14.039   2.307 -32.640  1.00  0.00     0.095 A 
HETATM   13  C   UNL     1     -15.275   2.930 -32.437  1.00  0.00     0.042 A 
HETATM   14  C   UNL     1     -15.327   4.209 -31.884  1.00  0.00     0.045 A 
HETATM   15  C   UNL     1     -14.147   4.855 -31.532  1.00  0.00     0.118 A 
HETATM   16  C   UNL     1     -12.909   4.252 -31.721  1.00  0.00     0.074 A 
HETATM   17  F   UNL     1     -14.210   6.082 -30.997  1.00  0.00    -0.206 F 
BRANCH  12  18
HETATM   18  O   UNL     1     -13.871   1.052 -33.181  1.00  0.00    -0.354 OA
HETATM   19  C   UNL     1     -14.821   0.637 -34.156  1.00  0.00     0.210 C 
ENDBRANCH  12  18
ENDBRANCH   1  11
BRANCH   6  20
HETATM   20  C   UNL     1      -6.103  -0.868 -33.654  1.00  0.00    -0.002 A 
HETATM   21  C   UNL     1      -6.004  -2.233 -34.078  1.00  0.00     0.003 A 
HETATM   22  C   UNL     1      -4.681  -2.634 -33.861  1.00  0.00     0.043 A 
HETATM   23  C   UNL     1      -6.899  -3.182 -34.620  1.00  0.00     0.014 A 
HETATM   24  C   UNL     1      -4.211  -3.916 -34.172  1.00  0.00     0.030 A 
HETATM   25  N   UNL     1      -4.015  -1.564 -33.312  1.00  0.00    -0.364 N 
HETATM   26  C   UNL     1      -5.118  -4.827 -34.720  1.00  0.00     0.002 A 
HETATM   27  C   UNL     1      -6.444  -4.469 -34.939  1.00  0.00     0.001 A 
HETATM   28  H   UNL     1      -3.041  -1.572 -33.047  1.00  0.00     0.165 HD
HETATM   29  C   UNL     1      -4.859  -0.496 -33.183  1.00  0.00     0.101 A 
ENDBRANCH   6  20
TORSDOF 3
ENDMDL
MODEL 2
REMARK VINA RESULT:      -9.2      1.246      1.986
REMARK  3 active torsions:
REMARK  status: ('A' for Active; 'I' for Inactive)
REMARK    1  A    between atoms: O_2  and  C_3 
REMARK    2  A    between atoms: C_4  and  N_5 
REMARK       I    between atoms: N_5  and  C_6 
REMARK       I    between atoms: C_6  and  N_7 
REMARK    3  A    between atoms: C_10  and  C_11 
ROOT
HETATM    1  N   UNL     1     -11.774   2.005 -32.701  1.00  0.00    -0.306 N 
HETATM    2  C   UNL     1     -10.963   2.090 -33.806  1.00  0.00     0.323 C 
HETATM    3  N   UNL     1      -9.777   1.352 -33.733  1.00  0.00    -0.330 N 
HETATM    4  C   UNL     1      -9.133   1.117 -35.022  1.00  0.00     0.155 C 
HETATM    5  C   UNL     1      -7.886   0.295 -34.947  1.00  0.00     0.001 C 
HETATM    6  C   UNL     1      -7.272  -0.084 -33.814  1.00  0.00    -0.046 C 
HETATM    7  C   UNL     1      -7.857   0.325 -32.494  1.00  0.00     0.059 C 
HETATM    8  C   UNL     1      -9.371   0.523 -32.594  1.00  0.00     0.132 C 
HETATM    9  O   UNL     1     -11.241   2.733 -34.817  1.00  0.00    -0.247 OA
HETATM   10  H   UNL     1     -11.591   1.274 -32.031  1.00  0.00     0.171 HD
ENDROOT
BRANCH   1  11
HETATM   11  C   UNL     1     -13.013   2.650 -32.474  1.00  0.00     0.072 A 
HETATM   12  C   UNL     1     -12.957   3.980 -31.993  1.00  0.00     0.095 A 
HETATM   13  C   UNL     1     -14.141   4.682 -31.739  1.00  0.00     0.042 A 
HETATM   14  C   UNL     1     -15.374   4.067 -31.958  1.00  0.00     0.045 A 
HETATM   15  C   UNL     1     -15.417   2.762 -32.434  1.00  0.00     0.118 A 
HETATM   16  C   UNL     1     -14.253   2.050 -32.697  1.00  0.00     0.074 A 
HETATM   17  F   UNL     1     -16.608   2.184 -32.645  1.00  0.00    -0.206 F 
BRANCH  12  18
HETATM   18  O   UNL     1     -11.689   4.486 -31.808  1.00  0.00    -0.354 OA
HETATM   19  C   UNL     1     -11.344   5.650 -32.551  1.00  0.00     0.210 C 
ENDBRANCH  12  18
ENDBRANCH   1  11
BRANCH   6  20
HETATM   20  C   UNL     1      -6.113  -0.928 -33.767  1.00  0.00    -0.002 A 
HETATM   21  C   UNL     1      -5.973  -2.307 -34.136  1.00  0.00     0.003 A 
HETATM   22  C   UNL     1      -4.633  -2.651 -33.932  1.00  0.00     0.043 A 
HETATM   23  C   UNL     1      -6.844  -3.308 -34.618  1.00  0.00     0.014 A 
HETATM   24  C   UNL     1      -4.122  -3.927 -34.201  1.00  0.00     0.030 A 
HETATM   25  N   UNL     1      -3.995  -1.535 -33.443  1.00  0.00    -0.364 N 
HETATM   26  C   UNL     1      -5.007  -4.892 -34.690  1.00  0.00     0.002 A 
HETATM   27  C   UNL     1      -6.350  -4.590 -34.894  1.00  0.00     0.001 A 
HETATM   28  H   UNL     1      -3.015  -1.498 -33.199  1.00  0.00     0.165 HD
HETATM   29  C   UNL     1      -4.874  -0.493 -33.340  1.00  0.00     0.101 A 
ENDBRANCH   6  20
TORSDOF 3
ENDMDL
MODEL 3
REMARK VINA RESULT:      -8.8      5.853      9.709
REMARK  3 active torsions:
REMARK  status: ('A' for Active; 'I' for Inactive)
REMARK    1  A    between atoms: O_2  and  C_3 
REMARK    2  A    between atoms: C_4  and  N_5 
REMARK       I    between atoms: N_5  and  C_6 
REMARK       I    between atoms: C_6  and  N_7 
REMARK    3  A    between atoms: C_10  and  C_11 
ROOT
HETATM    1  N   UNL     1      -4.870  -1.098 -33.425  1.00  0.00    -0.306 N 
HETATM    2  C   UNL     1      -5.805  -0.277 -32.846  1.00  0.00     0.323 C 
HETATM    3  N   UNL     1      -5.337   0.987 -32.468  1.00  0.00    -0.330 N 
HETATM    4  C   UNL     1      -6.388   1.975 -32.240  1.00  0.00     0.155 C 
HETATM    5  C   UNL     1      -5.886   3.335 -31.874  1.00  0.00     0.001 C 
HETATM    6  C   UNL     1      -4.607   3.645 -31.604  1.00  0.00    -0.046 C 
HETATM    7  C   UNL     1      -3.566   2.566 -31.670  1.00  0.00     0.059 C 
HETATM    8  C   UNL     1      -3.965   1.466 -32.655  1.00  0.00     0.132 C 
HETATM    9  O   UNL     1      -6.985  -0.584 -32.683  1.00  0.00    -0.247 OA
HETATM   10  H   UNL     1      -4.004  -0.686 -33.740  1.00  0.00     0.171 HD
ENDROOT
BRANCH   1  11
HETATM   11  C   UNL     1      -5.035  -2.426 -33.884  1.00  0.00     0.072 A 
HETATM   12  C   UNL     1      -4.096  -3.379 -33.422  1.00  0.00     0.095 A 
HETATM   13  C   UNL     1      -4.191  -4.712 -33.837  1.00  0.00     0.042 A 
HETATM   14  C   UNL     1      -5.211  -5.098 -34.706  1.00  0.00     0.045 A 
HETATM   15  C   UNL     1      -6.130  -4.155 -35.151  1.00  0.00     0.118 A 
HETATM   16  C   UNL     1      -6.056  -2.827 -34.747  1.00  0.00     0.074 A 
HETATM   17  F   UNL     1      -7.109  -4.539 -35.982  1.00  0.00    -0.206 F 
BRANCH  12  18
HETATM   18  O   UNL     1      -3.130  -2.888 -32.572  1.00  0.00    -0.354 OA
HETATM   19  C   UNL     1      -2.727  -3.730 -31.497  1.00  0.00     0.210 C 
ENDBRANCH  12  18
ENDBRANCH   1  11
BRANCH   6  20
HETATM   20  C   UNL     1      -4.139   4.971 -31.321  1.00  0.00    -0.002 A 
HETATM   21  C   UNL     1      -3.220   5.790 -32.054  1.00  0.00     0.003 A 
HETATM   22  C   UNL     1      -3.126   7.009 -31.375  1.00  0.00     0.043 A 
HETATM   23  C   UNL     1      -2.446   5.627 -33.225  1.00  0.00     0.014 A 
HETATM   24  C   UNL     1      -2.320   8.068 -31.813  1.00  0.00     0.030 A 
HETATM   25  N   UNL     1      -3.938   6.924 -30.269  1.00  0.00    -0.364 N 
HETATM   26  C   UNL     1      -1.578   7.880 -32.982  1.00  0.00     0.002 A 
HETATM   27  C   UNL     1      -1.636   6.677 -33.679  1.00  0.00     0.001 A 
HETATM   28  H   UNL     1      -4.060   7.662 -29.591  1.00  0.00     0.165 HD
HETATM   29  C   UNL     1      -4.553   5.703 -30.226  1.00  0.00     0.101 A 
ENDBRANCH   6  20
TORSDOF 3
ENDMDL
MODEL 4
REMARK VINA RESULT:      -8.8      2.303      2.969
REMARK  3 active torsions:
REMARK  status: ('A' for Active; 'I' for Inactive)
REMARK    1  A    between atoms: O_2  and  C_3 
REMARK    2  A    between atoms: C_4  and  N_5 
REMARK       I    between atoms: N_5  and  C_6 
REMARK       I    between atoms: C_6  and  N_7 
REMARK    3  A    between atoms: C_10  and  C_11 
ROOT
HETATM    1  N   UNL     1     -10.496   3.827 -34.228  1.00  0.00    -0.306 N 
HETATM    2  C   UNL     1     -10.718   2.515 -33.891  1.00  0.00     0.323 C 
HETATM    3  N   UNL     1      -9.586   1.693 -33.915  1.00  0.00    -0.330 N 
HETATM    4  C   UNL     1      -9.737   0.438 -33.183  1.00  0.00     0.155 C 
HETATM    5  C   UNL     1      -8.514  -0.423 -33.177  1.00  0.00     0.001 C 
HETATM    6  C   UNL     1      -7.402  -0.197 -33.895  1.00  0.00    -0.046 C 
HETATM    7  C   UNL     1      -7.339   1.011 -34.784  1.00  0.00     0.059 C 
HETATM    8  C   UNL     1      -8.232   2.136 -34.258  1.00  0.00     0.132 C 
HETATM    9  O   UNL     1     -11.814   2.066 -33.557  1.00  0.00    -0.247 OA
HETATM   10  H   UNL     1      -9.543   4.158 -34.247  1.00  0.00     0.171 HD
ENDROOT
BRANCH   1  11
HETATM   11  C   UNL     1     -11.437   4.880 -34.314  1.00  0.00     0.072 A 
HETATM   12  C   UNL     1     -11.505   5.762 -33.209  1.00  0.00     0.095 A 
HETATM   13  C   UNL     1     -12.416   6.825 -33.219  1.00  0.00     0.042 A 
HETATM   14  C   UNL     1     -13.256   7.011 -34.318  1.00  0.00     0.045 A 
HETATM   15  C   UNL     1     -13.177   6.141 -35.399  1.00  0.00     0.118 A 
HETATM   16  C   UNL     1     -12.276   5.082 -35.411  1.00  0.00     0.074 A 
HETATM   17  F   UNL     1     -13.986   6.333 -36.450  1.00  0.00    -0.206 F 
BRANCH  12  18
HETATM   18  O   UNL     1     -10.636   5.483 -32.179  1.00  0.00    -0.354 OA
HETATM   19  C   UNL     1     -11.210   5.154 -30.919  1.00  0.00     0.210 C 
ENDBRANCH  12  18
ENDBRANCH   1  11
BRANCH   6  20
HETATM   20  C   UNL     1      -6.216  -1.001 -33.822  1.00  0.00    -0.002 A 
HETATM   21  C   UNL     1      -6.018  -2.371 -34.193  1.00  0.00     0.003 A 
HETATM   22  C   UNL     1      -4.673  -2.669 -33.957  1.00  0.00     0.043 A 
HETATM   23  C   UNL     1      -6.841  -3.400 -34.702  1.00  0.00     0.014 A 
HETATM   24  C   UNL     1      -4.111  -3.926 -34.217  1.00  0.00     0.030 A 
HETATM   25  N   UNL     1      -4.086  -1.535 -33.447  1.00  0.00    -0.364 N 
HETATM   26  C   UNL     1      -4.949  -4.918 -34.733  1.00  0.00     0.002 A 
HETATM   27  C   UNL     1      -6.296  -4.663 -34.970  1.00  0.00     0.001 A 
HETATM   28  H   UNL     1      -3.115  -1.464 -33.178  1.00  0.00     0.165 HD
HETATM   29  C   UNL     1      -5.004  -0.525 -33.361  1.00  0.00     0.101 A 
ENDBRANCH   6  20
TORSDOF 3
ENDMDL
MODEL 5
REMARK VINA RESULT:      -8.5      6.750      9.251
REMARK  3 active torsions:
REMARK  status: ('A' for Active; 'I' for Inactive)
REMARK    1  A    between atoms: O_2  and  C_3 
REMARK    2  A    between atoms: C_4  and  N_5 
REMARK       I    between atoms: N_5  and  C_6 
REMARK       I    between atoms: C_6  and  N_7 
REMARK    3  A    between atoms: C_10  and  C_11 
ROOT
HETATM    1  N   UNL     1      -2.633   5.345 -30.513  1.00  0.00    -0.306 N 
HETATM    2  C   UNL     1      -3.158   5.342 -31.781  1.00  0.00     0.323 C 
HETATM    3  N   UNL     1      -3.886   4.197 -32.122  1.00  0.00    -0.330 N 
HETATM    4  C   UNL     1      -4.762   4.362 -33.279  1.00  0.00     0.155 C 
HETATM    5  C   UNL     1      -5.569   3.149 -33.619  1.00  0.00     0.001 C 
HETATM    6  C   UNL     1      -5.427   1.938 -33.055  1.00  0.00    -0.046 C 
HETATM    7  C   UNL     1      -4.390   1.747 -31.988  1.00  0.00     0.059 C 
HETATM    8  C   UNL     1      -4.116   3.052 -31.237  1.00  0.00     0.132 C 
HETATM    9  O   UNL     1      -3.043   6.273 -32.577  1.00  0.00    -0.247 OA
HETATM   10  H   UNL     1      -2.976   4.663 -29.854  1.00  0.00     0.171 HD
ENDROOT
BRANCH   1  11
HETATM   11  C   UNL     1      -1.840   6.343 -29.897  1.00  0.00     0.072 A 
HETATM   12  C   UNL     1      -0.466   6.046 -29.731  1.00  0.00     0.095 A 
HETATM   13  C   UNL     1       0.382   6.981 -29.124  1.00  0.00     0.042 A 
HETATM   14  C   UNL     1      -0.131   8.201 -28.683  1.00  0.00     0.045 A 
HETATM   15  C   UNL     1      -1.481   8.483 -28.856  1.00  0.00     0.118 A 
HETATM   16  C   UNL     1      -2.338   7.570 -29.460  1.00  0.00     0.074 A 
HETATM   17  F   UNL     1      -1.961   9.660 -28.432  1.00  0.00    -0.206 F 
BRANCH  12  18
HETATM   18  O   UNL     1      -0.069   4.814 -30.197  1.00  0.00    -0.354 OA
HETATM   19  C   UNL     1       1.238   4.724 -30.755  1.00  0.00     0.210 C 
ENDBRANCH  12  18
ENDBRANCH   1  11
BRANCH   6  20
HETATM   20  C   UNL     1      -6.258   0.807 -33.351  1.00  0.00    -0.002 A 
HETATM   21  C   UNL     1      -5.886  -0.516 -33.759  1.00  0.00     0.003 A 
HETATM   22  C   UNL     1      -7.068  -1.253 -33.886  1.00  0.00     0.043 A 
HETATM   23  C   UNL     1      -4.667  -1.172 -34.042  1.00  0.00     0.014 A 
HETATM   24  C   UNL     1      -7.091  -2.602 -34.261  1.00  0.00     0.030 A 
HETATM   25  N   UNL     1      -8.110  -0.407 -33.587  1.00  0.00    -0.364 N 
HETATM   26  C   UNL     1      -5.868  -3.226 -34.521  1.00  0.00     0.002 A 
HETATM   27  C   UNL     1      -4.671  -2.523 -34.416  1.00  0.00     0.001 A 
HETATM   28  H   UNL     1      -9.084  -0.672 -33.604  1.00  0.00     0.165 HD
HETATM   29  C   UNL     1      -7.635   0.834 -33.264  1.00  0.00     0.101 A 
ENDBRANCH   6  20
TORSDOF 3
ENDMDL
MODEL 6
REMARK VINA RESULT:      -8.4      6.171      9.577
REMARK  3 active torsions:
REMARK  status: ('A' for Active; 'I' for Inactive)
REMARK    1  A    between atoms: O_2  and  C_3 
REMARK    2  A    between atoms: C_4  and  N_5 
REMARK       I    between atoms: N_5  and  C_6 
REMARK       I    between atoms: C_6  and  N_7 
REMARK    3  A    between atoms: C_10  and  C_11 
ROOT
HETATM    1  N   UNL     1      -4.944  -0.646 -33.350  1.00  0.00    -0.306 N 
HETATM    2  C   UNL     1      -5.216  -0.118 -32.112  1.00  0.00     0.323 C 
HETATM    3  N   UNL     1      -4.739   1.180 -31.900  1.00  0.00    -0.330 N 
HETATM    4  C   UNL     1      -5.362   1.875 -30.777  1.00  0.00     0.155 C 
HETATM    5  C   UNL     1      -4.879   3.275 -30.574  1.00  0.00     0.001 C 
HETATM    6  C   UNL     1      -3.852   3.845 -31.226  1.00  0.00    -0.046 C 
HETATM    7  C   UNL     1      -3.107   3.046 -32.255  1.00  0.00     0.059 C 
HETATM    8  C   UNL     1      -4.001   1.977 -32.884  1.00  0.00     0.132 C 
HETATM    9  O   UNL     1      -5.856  -0.702 -31.240  1.00  0.00    -0.247 OA
HETATM   10  H   UNL     1      -4.635  -0.020 -34.077  1.00  0.00     0.171 HD
ENDROOT
BRANCH   1  11
HETATM   11  C   UNL     1      -5.274  -1.930 -33.845  1.00  0.00     0.072 A 
HETATM   12  C   UNL     1      -6.607  -2.117 -34.283  1.00  0.00     0.095 A 
HETATM   13  C   UNL     1      -7.010  -3.361 -34.781  1.00  0.00     0.042 A 
HETATM   14  C   UNL     1      -6.097  -4.415 -34.842  1.00  0.00     0.045 A 
HETATM   15  C   UNL     1      -4.790  -4.219 -34.413  1.00  0.00     0.118 A 
HETATM   16  C   UNL     1      -4.368  -2.989 -33.920  1.00  0.00     0.074 A 
HETATM   17  F   UNL     1      -3.922  -5.237 -34.481  1.00  0.00    -0.206 F 
BRANCH  12  18
HETATM   18  O   UNL     1      -7.422  -1.013 -34.174  1.00  0.00    -0.354 OA
HETATM   19  C   UNL     1      -7.576  -0.207 -35.337  1.00  0.00     0.210 C 
ENDBRANCH  12  18
ENDBRANCH   1  11
BRANCH   6  20
HETATM   20  C   UNL     1      -3.450   5.213 -31.062  1.00  0.00    -0.002 A 
HETATM   21  C   UNL     1      -2.144   5.758 -30.835  1.00  0.00     0.003 A 
HETATM   22  C   UNL     1      -2.285   7.148 -30.781  1.00  0.00     0.043 A 
HETATM   23  C   UNL     1      -0.849   5.221 -30.662  1.00  0.00     0.014 A 
HETATM   24  C   UNL     1      -1.205   8.019 -30.582  1.00  0.00     0.030 A 
HETATM   25  N   UNL     1      -3.620   7.430 -30.949  1.00  0.00    -0.364 N 
HETATM   26  C   UNL     1       0.064   7.456 -30.428  1.00  0.00     0.002 A 
HETATM   27  C   UNL     1       0.243   6.077 -30.465  1.00  0.00     0.001 A 
HETATM   28  H   UNL     1      -4.013   8.361 -30.947  1.00  0.00     0.165 HD
HETATM   29  C   UNL     1      -4.331   6.274 -31.119  1.00  0.00     0.101 A 
ENDBRANCH   6  20
TORSDOF 3
ENDMDL
MODEL 7
REMARK VINA RESULT:      -8.3      5.904      7.659
REMARK  3 active torsions:
REMARK  status: ('A' for Active; 'I' for Inactive)
REMARK    1  A    between atoms: O_2  and  C_3 
REMARK    2  A    between atoms: C_4  and  N_5 
REMARK       I    between atoms: N_5  and  C_6 
REMARK       I    between atoms: C_6  and  N_7 
REMARK    3  A    between atoms: C_10  and  C_11 
ROOT
HETATM    1  N   UNL     1      -3.771   4.742 -30.892  1.00  0.00    -0.306 N 
HETATM    2  C   UNL     1      -4.898   3.999 -31.144  1.00  0.00     0.323 C 
HETATM    3  N   UNL     1      -4.666   2.671 -31.515  1.00  0.00    -0.330 N 
HETATM    4  C   UNL     1      -5.828   1.797 -31.386  1.00  0.00     0.155 C 
HETATM    5  C   UNL     1      -5.569   0.369 -31.746  1.00  0.00     0.001 C 
HETATM    6  C   UNL     1      -4.438  -0.100 -32.300  1.00  0.00    -0.046 C 
HETATM    7  C   UNL     1      -3.318   0.855 -32.592  1.00  0.00     0.059 C 
HETATM    8  C   UNL     1      -3.343   2.050 -31.638  1.00  0.00     0.132 C 
HETATM    9  O   UNL     1      -6.045   4.429 -31.032  1.00  0.00    -0.247 OA
HETATM   10  H   UNL     1      -2.897   4.254 -30.770  1.00  0.00     0.171 HD
ENDROOT
BRANCH   1  11
HETATM   11  C   UNL     1      -3.686   6.106 -30.523  1.00  0.00     0.072 A 
HETATM   12  C   UNL     1      -3.117   6.986 -31.475  1.00  0.00     0.095 A 
HETATM   13  C   UNL     1      -2.994   8.348 -31.181  1.00  0.00     0.042 A 
HETATM   14  C   UNL     1      -3.431   8.836 -29.949  1.00  0.00     0.045 A 
HETATM   15  C   UNL     1      -3.992   7.963 -29.024  1.00  0.00     0.118 A 
HETATM   16  C   UNL     1      -4.128   6.607 -29.298  1.00  0.00     0.074 A 
HETATM   17  F   UNL     1      -4.412   8.444 -27.845  1.00  0.00    -0.206 F 
BRANCH  12  18
HETATM   18  O   UNL     1      -2.717   6.398 -32.654  1.00  0.00    -0.354 OA
HETATM   19  C   UNL     1      -2.023   7.222 -33.584  1.00  0.00     0.210 C 
ENDBRANCH  12  18
ENDBRANCH   1  11
BRANCH   6  20
HETATM   20  C   UNL     1      -4.187  -1.485 -32.576  1.00  0.00    -0.002 A 
HETATM   21  C   UNL     1      -4.867  -2.375 -33.471  1.00  0.00     0.003 A 
HETATM   22  C   UNL     1      -4.213  -3.609 -33.396  1.00  0.00     0.043 A 
HETATM   23  C   UNL     1      -5.976  -2.270 -34.339  1.00  0.00     0.014 A 
HETATM   24  C   UNL     1      -4.599  -4.726 -34.149  1.00  0.00     0.030 A 
HETATM   25  N   UNL     1      -3.196  -3.477 -32.480  1.00  0.00    -0.364 N 
HETATM   26  C   UNL     1      -5.692  -4.584 -35.008  1.00  0.00     0.002 A 
HETATM   27  C   UNL     1      -6.374  -3.375 -35.102  1.00  0.00     0.001 A 
HETATM   28  H   UNL     1      -2.560  -4.218 -32.221  1.00  0.00     0.165 HD
HETATM   29  C   UNL     1      -3.170  -2.205 -31.981  1.00  0.00     0.101 A 
ENDBRANCH   6  20
TORSDOF 3
ENDMDL
MODEL 8
REMARK VINA RESULT:      -8.1      5.917      9.505
REMARK  3 active torsions:
REMARK  status: ('A' for Active; 'I' for Inactive)
REMARK    1  A    between atoms: O_2  and  C_3 
REMARK    2  A    between atoms: C_4  and  N_5 
REMARK       I    between atoms: N_5  and  C_6 
REMARK       I    between atoms: C_6  and  N_7 
REMARK    3  A    between atoms: C_10  and  C_11 
ROOT
HETATM    1  N   UNL     1      -3.532   4.805 -31.584  1.00  0.00    -0.306 N 
HETATM    2  C   UNL     1      -3.717   3.446 -31.521  1.00  0.00     0.323 C 
HETATM    3  N   UNL     1      -5.015   3.007 -31.805  1.00  0.00    -0.330 N 
HETATM    4  C   UNL     1      -5.112   1.587 -32.133  1.00  0.00     0.155 C 
HETATM    5  C   UNL     1      -6.494   1.127 -32.473  1.00  0.00     0.001 C 
HETATM    6  C   UNL     1      -7.611   1.863 -32.348  1.00  0.00    -0.046 C 
HETATM    7  C   UNL     1      -7.505   3.269 -31.835  1.00  0.00     0.059 C 
HETATM    8  C   UNL     1      -6.140   3.878 -32.157  1.00  0.00     0.132 C 
HETATM    9  O   UNL     1      -2.823   2.641 -31.268  1.00  0.00    -0.247 OA
HETATM   10  H   UNL     1      -4.244   5.362 -32.032  1.00  0.00     0.171 HD
ENDROOT
BRANCH   1  11
HETATM   11  C   UNL     1      -2.350   5.541 -31.329  1.00  0.00     0.072 A 
HETATM   12  C   UNL     1      -1.386   5.570 -32.366  1.00  0.00     0.095 A 
HETATM   13  C   UNL     1      -0.189   6.273 -32.186  1.00  0.00     0.042 A 
HETATM   14  C   UNL     1       0.052   6.940 -30.985  1.00  0.00     0.045 A 
HETATM   15  C   UNL     1      -0.903   6.907 -29.976  1.00  0.00     0.118 A 
HETATM   16  C   UNL     1      -2.101   6.220 -30.136  1.00  0.00     0.074 A 
HETATM   17  F   UNL     1      -0.662   7.556 -28.828  1.00  0.00    -0.206 F 
BRANCH  12  18
HETATM   18  O   UNL     1      -1.725   4.875 -33.505  1.00  0.00    -0.354 OA
HETATM   19  C   UNL     1      -1.327   5.440 -34.749  1.00  0.00     0.210 C 
ENDBRANCH  12  18
ENDBRANCH   1  11
BRANCH   6  20
HETATM   20  C   UNL     1      -8.917   1.422 -32.744  1.00  0.00    -0.002 A 
HETATM   21  C   UNL     1      -9.857   2.037 -33.635  1.00  0.00     0.003 A 
HETATM   22  C   UNL     1     -10.966   1.189 -33.709  1.00  0.00     0.043 A 
HETATM   23  C   UNL     1      -9.890   3.232 -34.388  1.00  0.00     0.014 A 
HETATM   24  C   UNL     1     -12.088   1.465 -34.502  1.00  0.00     0.030 A 
HETATM   25  N   UNL     1     -10.717   0.118 -32.884  1.00  0.00    -0.364 N 
HETATM   26  C   UNL     1     -12.083   2.649 -35.245  1.00  0.00     0.002 A 
HETATM   27  C   UNL     1     -11.002   3.523 -35.188  1.00  0.00     0.001 A 
HETATM   28  H   UNL     1     -11.355  -0.652 -32.738  1.00  0.00     0.165 HD
HETATM   29  C   UNL     1      -9.488   0.246 -32.298  1.00  0.00     0.101 A 
ENDBRANCH   6  20
TORSDOF 3
ENDMDL
MODEL 9
REMARK VINA RESULT:      -8.1      7.530      9.553
REMARK  3 active torsions:
REMARK  status: ('A' for Active; 'I' for Inactive)
REMARK    1  A    between atoms: O_2  and  C_3 
REMARK    2  A    between atoms: C_4  and  N_5 
REMARK       I    between atoms: N_5  and  C_6 
REMARK       I    between atoms: C_6  and  N_7 
REMARK    3  A    between atoms: C_10  and  C_11 
ROOT
HETATM    1  N   UNL     1      -2.612   6.194 -29.958  1.00  0.00    -0.306 N 
HETATM    2  C   UNL     1      -2.748   6.148 -31.324  1.00  0.00     0.323 C 
HETATM    3  N   UNL     1      -3.568   5.123 -31.807  1.00  0.00    -0.330 N 
HETATM    4  C   UNL     1      -4.031   5.317 -33.179  1.00  0.00     0.155 C 
HETATM    5  C   UNL     1      -4.938   4.240 -33.682  1.00  0.00     0.001 C 
HETATM    6  C   UNL     1      -5.210   3.091 -33.041  1.00  0.00    -0.046 C 
HETATM    7  C   UNL     1      -4.577   2.833 -31.705  1.00  0.00     0.059 C 
HETATM    8  C   UNL     1      -4.266   4.140 -30.974  1.00  0.00     0.132 C 
HETATM    9  O   UNL     1      -2.227   6.952 -32.095  1.00  0.00    -0.247 OA
HETATM   10  H   UNL     1      -3.258   5.659 -29.398  1.00  0.00     0.171 HD
ENDROOT
BRANCH   1  11
HETATM   11  C   UNL     1      -1.839   7.092 -29.185  1.00  0.00     0.072 A 
HETATM   12  C   UNL     1      -2.538   7.877 -28.237  1.00  0.00     0.095 A 
HETATM   13  C   UNL     1      -1.843   8.792 -27.439  1.00  0.00     0.042 A 
HETATM   14  C   UNL     1      -0.462   8.931 -27.582  1.00  0.00     0.045 A 
HETATM   15  C   UNL     1       0.215   8.152 -28.514  1.00  0.00     0.118 A 
HETATM   16  C   UNL     1      -0.456   7.234 -29.312  1.00  0.00     0.074 A 
HETATM   17  F   UNL     1       1.542   8.291 -28.638  1.00  0.00    -0.206 F 
BRANCH  12  18
HETATM   18  O   UNL     1      -3.897   7.662 -28.184  1.00  0.00    -0.354 OA
HETATM   19  C   UNL     1      -4.432   7.216 -26.942  1.00  0.00     0.210 C 
ENDBRANCH  12  18
ENDBRANCH   1  11
BRANCH   6  20
HETATM   20  C   UNL     1      -6.136   2.103 -33.513  1.00  0.00    -0.002 A 
HETATM   21  C   UNL     1      -5.953   0.692 -33.691  1.00  0.00     0.003 A 
HETATM   22  C   UNL     1      -7.171   0.175 -34.143  1.00  0.00     0.043 A 
HETATM   23  C   UNL     1      -4.877  -0.208 -33.522  1.00  0.00     0.014 A 
HETATM   24  C   UNL     1      -7.370  -1.185 -34.415  1.00  0.00     0.030 A 
HETATM   25  N   UNL     1      -8.047   1.229 -34.252  1.00  0.00    -0.364 N 
HETATM   26  C   UNL     1      -6.290  -2.051 -34.225  1.00  0.00     0.002 A 
HETATM   27  C   UNL     1      -5.059  -1.572 -33.788  1.00  0.00     0.001 A 
HETATM   28  H   UNL     1      -9.004   1.147 -34.564  1.00  0.00     0.165 HD
HETATM   29  C   UNL     1      -7.436   2.393 -33.876  1.00  0.00     0.101 A 
ENDBRANCH   6  20
TORSDOF 3
ENDMDL
MODEL 10
REMARK VINA RESULT:      -8.0      6.240      9.550
REMARK  3 active torsions:
REMARK  status: ('A' for Active; 'I' for Inactive)
REMARK    1  A    between atoms: O_2  and  C_3 
REMARK    2  A    between atoms: C_4  and  N_5 
REMARK       I    between atoms: N_5  and  C_6 
REMARK       I    between atoms: C_6  and  N_7 
REMARK    3  A    between atoms: C_10  and  C_11 
ROOT
HETATM    1  N   UNL     1      -3.243   4.668 -31.388  1.00  0.00    -0.306 N 
HETATM    2  C   UNL     1      -3.733   4.386 -32.639  1.00  0.00     0.323 C 
HETATM    3  N   UNL     1      -4.926   3.655 -32.660  1.00  0.00    -0.330 N 
HETATM    4  C   UNL     1      -5.643   3.709 -33.932  1.00  0.00     0.155 C 
HETATM    5  C   UNL     1      -6.937   2.960 -33.942  1.00  0.00     0.001 C 
HETATM    6  C   UNL     1      -7.377   2.156 -32.960  1.00  0.00    -0.046 C 
HETATM    7  C   UNL     1      -6.534   1.974 -31.732  1.00  0.00     0.059 C 
HETATM    8  C   UNL     1      -5.656   3.199 -31.473  1.00  0.00     0.132 C 
HETATM    9  O   UNL     1      -3.206   4.758 -33.685  1.00  0.00    -0.247 OA
HETATM   10  H   UNL     1      -3.855   4.541 -30.597  1.00  0.00     0.171 HD
ENDROOT
BRANCH   1  11
HETATM   11  C   UNL     1      -2.057   5.363 -31.049  1.00  0.00     0.072 A 
HETATM   12  C   UNL     1      -2.215   6.669 -30.528  1.00  0.00     0.095 A 
HETATM   13  C   UNL     1      -1.088   7.421 -30.175  1.00  0.00     0.042 A 
HETATM   14  C   UNL     1       0.187   6.881 -30.339  1.00  0.00     0.045 A 
HETATM   15  C   UNL     1       0.330   5.595 -30.848  1.00  0.00     0.118 A 
HETATM   16  C   UNL     1      -0.776   4.830 -31.200  1.00  0.00     0.074 A 
HETATM   17  F   UNL     1       1.561   5.085 -30.997  1.00  0.00    -0.206 F 
BRANCH  12  18
HETATM   18  O   UNL     1      -3.516   7.104 -30.413  1.00  0.00    -0.354 OA
HETATM   19  C   UNL     1      -3.903   8.209 -31.222  1.00  0.00     0.210 C 
ENDBRANCH  12  18
ENDBRANCH   1  11
BRANCH   6  20
HETATM   20  C   UNL     1      -8.653   1.501 -32.964  1.00  0.00    -0.002 A 
HETATM   21  C   UNL     1      -9.864   1.866 -33.638  1.00  0.00     0.003 A 
HETATM   22  C   UNL     1     -10.810   0.878 -33.344  1.00  0.00     0.043 A 
HETATM   23  C   UNL     1     -10.267   2.936 -34.467  1.00  0.00     0.014 A 
HETATM   24  C   UNL     1     -12.118   0.899 -33.846  1.00  0.00     0.030 A 
HETATM   25  N   UNL     1     -10.204  -0.033 -32.513  1.00  0.00    -0.364 N 
HETATM   26  C   UNL     1     -12.480   1.965 -34.674  1.00  0.00     0.002 A 
HETATM   27  C   UNL     1     -11.570   2.972 -34.980  1.00  0.00     0.001 A 
HETATM   28  H   UNL     1     -10.657  -0.853 -32.135  1.00  0.00     0.165 HD
HETATM   29  C   UNL     1      -8.906   0.330 -32.277  1.00  0.00     0.101 A 
ENDBRANCH   6  20
TORSDOF 3
ENDMDL
