MODEL 1
REMARK VINA RESULT:      -8.6      0.000      0.000
REMARK  5 active torsions:
REMARK  status: ('A' for Active; 'I' for Inactive)
REMARK    1  A    between atoms: O_2  and  C_3 
REMARK    2  A    between atoms: C_16  and  C_17 
REMARK    3  A    between atoms: C_19  and  O_20 
REMARK    4  A    between atoms: C_22  and  O_23 
REMARK    5  A    between atoms: O_23  and  C_24 
ROOT
HETATM    1  C   UNL     1      -0.144   7.373 -29.322  1.00  0.00     0.069 A 
HETATM    2  C   UNL     1      -0.206   7.027 -30.679  1.00  0.00     0.051 A 
HETATM    3  C   UNL     1      -1.446   6.724 -31.272  1.00  0.00     0.002 A 
HETATM    4  C   UNL     1      -2.596   6.785 -30.486  1.00  0.00     0.043 A 
HETATM    5  N   UNL     1      -3.668   6.442 -31.282  1.00  0.00    -0.356 N 
HETATM    6  H   UNL     1      -4.622   6.386 -30.945  1.00  0.00     0.166 HD
HETATM    7  C   UNL     1      -3.224   6.152 -32.547  1.00  0.00     0.052 A 
HETATM    8  C   UNL     1      -1.854   6.330 -32.573  1.00  0.00    -0.019 A 
HETATM    9  C   UNL     1      -1.046   6.106 -33.806  1.00  0.00     0.069 C 
HETATM   10  C   UNL     1      -1.836   5.263 -34.822  1.00  0.00     0.238 C 
HETATM   11  N   UNL     1      -3.261   5.750 -34.946  1.00  0.00    -0.061 N 
HETATM   12  H   UNL     1      -3.244   6.730 -35.247  1.00  0.00     0.278 HD
HETATM   13  H   UNL     1      -3.748   5.216 -35.674  1.00  0.00     0.278 HD
HETATM   14  C   UNL     1      -4.076   5.685 -33.677  1.00  0.00     0.269 C 
HETATM   15  C   UNL     1      -2.560   7.137 -29.132  1.00  0.00     0.033 A 
HETATM   16  C   UNL     1      -1.312   7.429 -28.564  1.00  0.00     0.039 A 
ENDROOT
BRANCH  14  17
HETATM   17  C   UNL     1      -4.685   4.307 -33.489  1.00  0.00    -0.019 A 
HETATM   18  C   UNL     1      -4.240   3.418 -32.492  1.00  0.00     0.049 A 
HETATM   19  C   UNL     1      -4.791   2.138 -32.363  1.00  0.00     0.102 A 
HETATM   20  C   UNL     1      -5.788   1.717 -33.260  1.00  0.00     0.102 A 
HETATM   21  C   UNL     1      -6.242   2.592 -34.247  1.00  0.00     0.040 A 
HETATM   22  C   UNL     1      -5.693   3.873 -34.365  1.00  0.00     0.012 A 
BRANCH  19  23
HETATM   23  O   UNL     1      -4.393   1.220 -31.426  1.00  0.00    -0.353 OA
HETATM   24  C   UNL     1      -3.150   0.560 -31.621  1.00  0.00     0.210 C 
ENDBRANCH  19  23
BRANCH  20  25
HETATM   25  O   UNL     1      -6.288   0.457 -33.059  1.00  0.00    -0.343 OA
BRANCH  25  26
HETATM   26  C   UNL     1      -6.145  -0.513 -34.090  1.00  0.00     0.129 C 
HETATM   27  C   UNL     1      -5.078  -1.559 -33.772  1.00  0.00     0.032 C 
HETATM   28  C   UNL     1      -5.538  -2.777 -34.548  1.00  0.00     0.002 C 
HETATM   29  C   UNL     1      -7.040  -2.791 -34.313  1.00  0.00     0.002 C 
HETATM   30  C   UNL     1      -7.447  -1.323 -34.191  1.00  0.00     0.032 C 
ENDBRANCH  25  26
ENDBRANCH  20  25
ENDBRANCH  14  17
BRANCH   1  31
HETATM   31  O   UNL     1       1.121   7.630 -28.867  1.00  0.00    -0.356 OA
HETATM   32  C   UNL     1       1.247   8.559 -27.798  1.00  0.00     0.210 C 
ENDBRANCH   1  31
TORSDOF 5
ENDMDL
MODEL 2
REMARK VINA RESULT:      -8.4      2.296      8.660
REMARK  5 active torsions:
REMARK  status: ('A' for Active; 'I' for Inactive)
REMARK    1  A    between atoms: O_2  and  C_3 
REMARK    2  A    between atoms: C_16  and  C_17 
REMARK    3  A    between atoms: C_19  and  O_20 
REMARK    4  A    between atoms: C_22  and  O_23 
REMARK    5  A    between atoms: O_23  and  C_24 
ROOT
HETATM    1  C   UNL     1      -7.289   0.999 -31.361  1.00  0.00     0.069 A 
HETATM    2  C   UNL     1      -6.873   1.991 -32.260  1.00  0.00     0.051 A 
HETATM    3  C   UNL     1      -5.521   2.381 -32.300  1.00  0.00     0.002 A 
HETATM    4  C   UNL     1      -4.619   1.757 -31.439  1.00  0.00     0.043 A 
HETATM    5  N   UNL     1      -3.375   2.311 -31.660  1.00  0.00    -0.356 N 
HETATM    6  H   UNL     1      -2.544   2.047 -31.144  1.00  0.00     0.166 HD
HETATM    7  C   UNL     1      -3.471   3.279 -32.627  1.00  0.00     0.052 A 
HETATM    8  C   UNL     1      -4.786   3.335 -33.050  1.00  0.00    -0.019 A 
HETATM    9  C   UNL     1      -5.240   4.283 -34.108  1.00  0.00     0.069 C 
HETATM   10  C   UNL     1      -4.213   5.412 -34.298  1.00  0.00     0.238 C 
HETATM   11  N   UNL     1      -2.804   4.867 -34.345  1.00  0.00    -0.061 N 
HETATM   12  H   UNL     1      -2.739   4.203 -35.124  1.00  0.00     0.278 HD
HETATM   13  H   UNL     1      -2.144   5.628 -34.537  1.00  0.00     0.278 HD
HETATM   14  C   UNL     1      -2.353   4.142 -33.100  1.00  0.00     0.269 C 
HETATM   15  C   UNL     1      -5.009   0.758 -30.541  1.00  0.00     0.033 A 
HETATM   16  C   UNL     1      -6.362   0.391 -30.517  1.00  0.00     0.039 A 
ENDROOT
BRANCH  14  17
HETATM   17  C   UNL     1      -1.818   5.116 -32.066  1.00  0.00    -0.019 A 
HETATM   18  C   UNL     1      -2.651   5.729 -31.109  1.00  0.00     0.049 A 
HETATM   19  C   UNL     1      -2.141   6.653 -30.190  1.00  0.00     0.102 A 
HETATM   20  C   UNL     1      -0.780   7.001 -30.236  1.00  0.00     0.102 A 
HETATM   21  C   UNL     1       0.056   6.394 -31.174  1.00  0.00     0.040 A 
HETATM   22  C   UNL     1      -0.458   5.465 -32.084  1.00  0.00     0.012 A 
BRANCH  19  23
HETATM   23  O   UNL     1      -2.898   7.296 -29.245  1.00  0.00    -0.353 OA
HETATM   24  C   UNL     1      -4.189   6.776 -28.954  1.00  0.00     0.210 C 
ENDBRANCH  19  23
BRANCH  20  25
HETATM   25  O   UNL     1      -0.354   7.900 -29.293  1.00  0.00    -0.343 OA
BRANCH  25  26
HETATM   26  C   UNL     1       0.704   7.528 -28.416  1.00  0.00     0.129 C 
HETATM   27  C   UNL     1       1.435   8.734 -27.829  1.00  0.00     0.032 C 
HETATM   28  C   UNL     1       1.970   8.212 -26.510  1.00  0.00     0.002 C 
HETATM   29  C   UNL     1       0.810   7.395 -25.965  1.00  0.00     0.002 C 
HETATM   30  C   UNL     1       0.104   6.818 -27.192  1.00  0.00     0.032 C 
ENDBRANCH  25  26
ENDBRANCH  20  25
ENDBRANCH  14  17
BRANCH   1  31
HETATM   31  O   UNL     1      -8.629   0.723 -31.414  1.00  0.00    -0.356 OA
HETATM   32  C   UNL     1      -9.158   0.327 -32.674  1.00  0.00     0.210 C 
ENDBRANCH   1  31
TORSDOF 5
ENDMDL
MODEL 3
REMARK VINA RESULT:      -8.3      1.409      2.347
REMARK  5 active torsions:
REMARK  status: ('A' for Active; 'I' for Inactive)
REMARK    1  A    between atoms: O_2  and  C_3 
REMARK    2  A    between atoms: C_16  and  C_17 
REMARK    3  A    between atoms: C_19  and  O_20 
REMARK    4  A    between atoms: C_22  and  O_23 
REMARK    5  A    between atoms: O_23  and  C_24 
ROOT
HETATM    1  C   UNL     1       0.591   7.621 -27.457  1.00  0.00     0.069 A 
HETATM    2  C   UNL     1       0.497   7.526 -28.852  1.00  0.00     0.051 A 
HETATM    3  C   UNL     1      -0.733   7.206 -29.455  1.00  0.00     0.002 A 
HETATM    4  C   UNL     1      -1.844   6.996 -28.637  1.00  0.00     0.043 A 
HETATM    5  N   UNL     1      -2.914   6.692 -29.452  1.00  0.00    -0.356 N 
HETATM    6  H   UNL     1      -3.840   6.473 -29.103  1.00  0.00     0.166 HD
HETATM    7  C   UNL     1      -2.506   6.688 -30.761  1.00  0.00     0.052 A 
HETATM    8  C   UNL     1      -1.163   7.015 -30.793  1.00  0.00    -0.019 A 
HETATM    9  C   UNL     1      -0.400   7.110 -32.070  1.00  0.00     0.069 C 
HETATM   10  C   UNL     1      -1.150   6.387 -33.203  1.00  0.00     0.238 C 
HETATM   11  N   UNL     1      -2.621   6.732 -33.191  1.00  0.00    -0.061 N 
HETATM   12  H   UNL     1      -2.717   7.747 -33.303  1.00  0.00     0.278 HD
HETATM   13  H   UNL     1      -3.087   6.292 -33.991  1.00  0.00     0.278 HD
HETATM   14  C   UNL     1      -3.361   6.348 -31.933  1.00  0.00     0.269 C 
HETATM   15  C   UNL     1      -1.777   7.096 -27.243  1.00  0.00     0.033 A 
HETATM   16  C   UNL     1      -0.538   7.411 -26.668  1.00  0.00     0.039 A 
ENDROOT
BRANCH  14  17
HETATM   17  C   UNL     1      -3.820   4.902 -31.989  1.00  0.00    -0.019 A 
HETATM   18  C   UNL     1      -5.156   4.547 -32.260  1.00  0.00     0.049 A 
HETATM   19  C   UNL     1      -5.563   3.208 -32.268  1.00  0.00     0.102 A 
HETATM   20  C   UNL     1      -4.631   2.196 -31.975  1.00  0.00     0.102 A 
HETATM   21  C   UNL     1      -3.304   2.536 -31.714  1.00  0.00     0.040 A 
HETATM   22  C   UNL     1      -2.902   3.876 -31.715  1.00  0.00     0.012 A 
BRANCH  19  23
HETATM   23  O   UNL     1      -6.848   2.796 -32.508  1.00  0.00    -0.353 OA
HETATM   24  C   UNL     1      -7.496   3.272 -33.680  1.00  0.00     0.210 C 
ENDBRANCH  19  23
BRANCH  20  25
HETATM   25  O   UNL     1      -5.103   0.911 -32.020  1.00  0.00    -0.343 OA
BRANCH  25  26
HETATM   26  C   UNL     1      -4.708   0.071 -33.099  1.00  0.00     0.129 C 
HETATM   27  C   UNL     1      -4.230  -1.304 -32.632  1.00  0.00     0.032 C 
HETATM   28  C   UNL     1      -4.526  -2.199 -33.820  1.00  0.00     0.002 C 
HETATM   29  C   UNL     1      -5.898  -1.729 -34.274  1.00  0.00     0.002 C 
HETATM   30  C   UNL     1      -5.941  -0.233 -33.965  1.00  0.00     0.032 C 
ENDBRANCH  25  26
ENDBRANCH  20  25
ENDBRANCH  14  17
BRANCH   1  31
HETATM   31  O   UNL     1       1.845   7.925 -27.000  1.00  0.00    -0.356 OA
HETATM   32  C   UNL     1       1.959   8.314 -25.636  1.00  0.00     0.210 C 
ENDBRANCH   1  31
TORSDOF 5
ENDMDL
MODEL 4
REMARK VINA RESULT:      -8.0      5.161      8.612
REMARK  5 active torsions:
REMARK  status: ('A' for Active; 'I' for Inactive)
REMARK    1  A    between atoms: O_2  and  C_3 
REMARK    2  A    between atoms: C_16  and  C_17 
REMARK    3  A    between atoms: C_19  and  O_20 
REMARK    4  A    between atoms: C_22  and  O_23 
REMARK    5  A    between atoms: O_23  and  C_24 
ROOT
HETATM    1  C   UNL     1     -13.905   2.199 -33.396  1.00  0.00     0.069 A 
HETATM    2  C   UNL     1     -12.814   2.734 -32.698  1.00  0.00     0.051 A 
HETATM    3  C   UNL     1     -11.527   2.692 -33.266  1.00  0.00     0.002 A 
HETATM    4  C   UNL     1     -11.371   2.118 -34.528  1.00  0.00     0.043 A 
HETATM    5  N   UNL     1     -10.034   2.188 -34.860  1.00  0.00    -0.356 N 
HETATM    6  H   UNL     1      -9.650   1.818 -35.721  1.00  0.00     0.166 HD
HETATM    7  C   UNL     1      -9.339   2.777 -33.835  1.00  0.00     0.052 A 
HETATM    8  C   UNL     1     -10.239   3.110 -32.840  1.00  0.00    -0.019 A 
HETATM    9  C   UNL     1      -9.816   3.779 -31.577  1.00  0.00     0.069 C 
HETATM   10  C   UNL     1      -8.300   3.623 -31.365  1.00  0.00     0.238 C 
HETATM   11  N   UNL     1      -7.539   3.898 -32.641  1.00  0.00    -0.061 N 
HETATM   12  H   UNL     1      -7.750   4.854 -32.946  1.00  0.00     0.278 HD
HETATM   13  H   UNL     1      -6.531   3.851 -32.461  1.00  0.00     0.278 HD
HETATM   14  C   UNL     1      -7.863   2.979 -33.794  1.00  0.00     0.269 C 
HETATM   15  C   UNL     1     -12.447   1.587 -35.247  1.00  0.00     0.033 A 
HETATM   16  C   UNL     1     -13.717   1.637 -34.657  1.00  0.00     0.039 A 
ENDROOT
BRANCH  14  17
HETATM   17  C   UNL     1      -7.047   1.700 -33.719  1.00  0.00    -0.019 A 
HETATM   18  C   UNL     1      -6.240   1.388 -32.607  1.00  0.00     0.049 A 
HETATM   19  C   UNL     1      -5.467   0.222 -32.577  1.00  0.00     0.102 A 
HETATM   20  C   UNL     1      -5.470  -0.643 -33.686  1.00  0.00     0.102 A 
HETATM   21  C   UNL     1      -6.272  -0.347 -34.789  1.00  0.00     0.040 A 
HETATM   22  C   UNL     1      -7.049   0.815 -34.809  1.00  0.00     0.012 A 
BRANCH  19  23
HETATM   23  O   UNL     1      -4.650  -0.132 -31.536  1.00  0.00    -0.353 OA
HETATM   24  C   UNL     1      -3.388   0.513 -31.425  1.00  0.00     0.210 C 
ENDBRANCH  19  23
BRANCH  20  25
HETATM   25  O   UNL     1      -4.700  -1.770 -33.574  1.00  0.00    -0.343 OA
BRANCH  25  26
HETATM   26  C   UNL     1      -4.840  -2.798 -34.548  1.00  0.00     0.129 C 
HETATM   27  C   UNL     1      -4.228  -4.125 -34.098  1.00  0.00     0.032 C 
HETATM   28  C   UNL     1      -5.035  -5.159 -34.859  1.00  0.00     0.002 C 
HETATM   29  C   UNL     1      -6.458  -4.636 -34.749  1.00  0.00     0.002 C 
HETATM   30  C   UNL     1      -6.334  -3.113 -34.724  1.00  0.00     0.032 C 
ENDBRANCH  25  26
ENDBRANCH  20  25
ENDBRANCH  14  17
BRANCH   1  31
HETATM   31  O   UNL     1     -15.096   2.292 -32.727  1.00  0.00    -0.356 OA
HETATM   32  C   UNL     1     -15.317   3.470 -31.960  1.00  0.00     0.210 C 
ENDBRANCH   1  31
TORSDOF 5
ENDMDL
MODEL 5
REMARK VINA RESULT:      -8.0      2.661      4.092
REMARK  5 active torsions:
REMARK  status: ('A' for Active; 'I' for Inactive)
REMARK    1  A    between atoms: O_2  and  C_3 
REMARK    2  A    between atoms: C_16  and  C_17 
REMARK    3  A    between atoms: C_19  and  O_20 
REMARK    4  A    between atoms: C_22  and  O_23 
REMARK    5  A    between atoms: O_23  and  C_24 
ROOT
HETATM    1  C   UNL     1      -2.279   7.209 -32.177  1.00  0.00     0.069 A 
HETATM    2  C   UNL     1      -3.518   6.880 -31.611  1.00  0.00     0.051 A 
HETATM    3  C   UNL     1      -3.802   5.544 -31.269  1.00  0.00     0.002 A 
HETATM    4  C   UNL     1      -2.828   4.573 -31.499  1.00  0.00     0.043 A 
HETATM    5  N   UNL     1      -3.341   3.359 -31.094  1.00  0.00    -0.356 N 
HETATM    6  H   UNL     1      -2.839   2.482 -31.176  1.00  0.00     0.166 HD
HETATM    7  C   UNL     1      -4.619   3.534 -30.629  1.00  0.00     0.052 A 
HETATM    8  C   UNL     1      -4.926   4.880 -30.714  1.00  0.00    -0.019 A 
HETATM    9  C   UNL     1      -6.245   5.422 -30.280  1.00  0.00     0.069 C 
HETATM   10  C   UNL     1      -7.287   4.294 -30.179  1.00  0.00     0.238 C 
HETATM   11  N   UNL     1      -6.715   3.084 -29.478  1.00  0.00    -0.061 N 
HETATM   12  H   UNL     1      -6.416   3.365 -28.538  1.00  0.00     0.278 HD
HETATM   13  H   UNL     1      -7.444   2.372 -29.365  1.00  0.00     0.278 HD
HETATM   14  C   UNL     1      -5.525   2.450 -30.156  1.00  0.00     0.269 C 
HETATM   15  C   UNL     1      -1.581   4.879 -32.054  1.00  0.00     0.033 A 
HETATM   16  C   UNL     1      -1.325   6.216 -32.390  1.00  0.00     0.039 A 
ENDROOT
BRANCH  14  17
HETATM   17  C   UNL     1      -5.966   1.473 -31.232  1.00  0.00    -0.019 A 
HETATM   18  C   UNL     1      -6.659   1.890 -32.386  1.00  0.00     0.049 A 
HETATM   19  C   UNL     1      -7.089   0.966 -33.346  1.00  0.00     0.102 A 
HETATM   20  C   UNL     1      -6.854  -0.405 -33.146  1.00  0.00     0.102 A 
HETATM   21  C   UNL     1      -6.161  -0.827 -32.011  1.00  0.00     0.040 A 
HETATM   22  C   UNL     1      -5.726   0.102 -31.060  1.00  0.00     0.012 A 
BRANCH  19  23
HETATM   23  O   UNL     1      -7.781   1.303 -34.481  1.00  0.00    -0.353 OA
HETATM   24  C   UNL     1      -9.167   1.592 -34.359  1.00  0.00     0.210 C 
ENDBRANCH  19  23
BRANCH  20  25
HETATM   25  O   UNL     1      -7.291  -1.243 -34.137  1.00  0.00    -0.343 OA
BRANCH  25  26
HETATM   26  C   UNL     1      -6.337  -2.028 -34.845  1.00  0.00     0.129 C 
HETATM   27  C   UNL     1      -4.962  -2.026 -34.179  1.00  0.00     0.032 C 
HETATM   28  C   UNL     1      -4.361  -3.350 -34.612  1.00  0.00     0.002 C 
HETATM   29  C   UNL     1      -5.526  -4.318 -34.478  1.00  0.00     0.002 C 
HETATM   30  C   UNL     1      -6.776  -3.500 -34.799  1.00  0.00     0.032 C 
ENDBRANCH  25  26
ENDBRANCH  20  25
ENDBRANCH  14  17
BRANCH   1  31
HETATM   31  O   UNL     1      -2.136   8.538 -32.475  1.00  0.00    -0.356 OA
HETATM   32  C   UNL     1      -2.233   9.456 -31.393  1.00  0.00     0.210 C 
ENDBRANCH   1  31
TORSDOF 5
ENDMDL
MODEL 6
REMARK VINA RESULT:      -7.9      3.780      5.537
REMARK  5 active torsions:
REMARK  status: ('A' for Active; 'I' for Inactive)
REMARK    1  A    between atoms: O_2  and  C_3 
REMARK    2  A    between atoms: C_16  and  C_17 
REMARK    3  A    between atoms: C_19  and  O_20 
REMARK    4  A    between atoms: C_22  and  O_23 
REMARK    5  A    between atoms: O_23  and  C_24 
ROOT
HETATM    1  C   UNL     1      -2.221   6.282 -32.558  1.00  0.00     0.069 A 
HETATM    2  C   UNL     1      -3.219   6.075 -31.595  1.00  0.00     0.051 A 
HETATM    3  C   UNL     1      -3.893   4.841 -31.533  1.00  0.00     0.002 A 
HETATM    4  C   UNL     1      -3.540   3.841 -32.439  1.00  0.00     0.043 A 
HETATM    5  N   UNL     1      -4.338   2.745 -32.186  1.00  0.00    -0.356 N 
HETATM    6  H   UNL     1      -4.298   1.886 -32.723  1.00  0.00     0.166 HD
HETATM    7  C   UNL     1      -5.195   3.031 -31.155  1.00  0.00     0.052 A 
HETATM    8  C   UNL     1      -4.933   4.318 -30.723  1.00  0.00    -0.019 A 
HETATM    9  C   UNL     1      -5.686   4.948 -29.601  1.00  0.00     0.069 C 
HETATM   10  C   UNL     1      -6.998   4.189 -29.337  1.00  0.00     0.238 C 
HETATM   11  N   UNL     1      -6.774   2.695 -29.334  1.00  0.00    -0.061 N 
HETATM   12  H   UNL     1      -6.090   2.471 -28.603  1.00  0.00     0.278 HD
HETATM   13  H   UNL     1      -7.647   2.214 -29.093  1.00  0.00     0.278 HD
HETATM   14  C   UNL     1      -6.250   2.120 -30.628  1.00  0.00     0.269 C 
HETATM   15  C   UNL     1      -2.541   4.020 -33.402  1.00  0.00     0.033 A 
HETATM   16  C   UNL     1      -1.889   5.260 -33.446  1.00  0.00     0.039 A 
ENDROOT
BRANCH  14  17
HETATM   17  C   UNL     1      -7.384   1.831 -31.596  1.00  0.00    -0.019 A 
HETATM   18  C   UNL     1      -7.813   2.771 -32.554  1.00  0.00     0.049 A 
HETATM   19  C   UNL     1      -8.886   2.497 -33.409  1.00  0.00     0.102 A 
HETATM   20  C   UNL     1      -9.570   1.273 -33.296  1.00  0.00     0.102 A 
HETATM   21  C   UNL     1      -9.148   0.332 -32.356  1.00  0.00     0.040 A 
HETATM   22  C   UNL     1      -8.070   0.610 -31.510  1.00  0.00     0.012 A 
BRANCH  19  23
HETATM   23  O   UNL     1      -9.362   3.372 -34.350  1.00  0.00    -0.353 OA
HETATM   24  C   UNL     1      -9.192   4.764 -34.118  1.00  0.00     0.210 C 
ENDBRANCH  19  23
BRANCH  20  25
HETATM   25  O   UNL     1     -10.597   1.073 -34.179  1.00  0.00    -0.343 OA
BRANCH  25  26
HETATM   26  C   UNL     1     -11.935   1.265 -33.733  1.00  0.00     0.129 C 
HETATM   27  C   UNL     1     -12.838   1.857 -34.814  1.00  0.00     0.032 C 
HETATM   28  C   UNL     1     -14.217   1.353 -34.434  1.00  0.00     0.002 C 
HETATM   29  C   UNL     1     -13.960  -0.093 -34.039  1.00  0.00     0.002 C 
HETATM   30  C   UNL     1     -12.558  -0.108 -33.432  1.00  0.00     0.032 C 
ENDBRANCH  25  26
ENDBRANCH  20  25
ENDBRANCH  14  17
BRANCH   1  31
HETATM   31  O   UNL     1      -1.655   7.528 -32.519  1.00  0.00    -0.356 OA
HETATM   32  C   UNL     1      -2.263   8.487 -31.662  1.00  0.00     0.210 C 
ENDBRANCH   1  31
TORSDOF 5
ENDMDL
MODEL 7
REMARK VINA RESULT:      -7.8      5.770      9.686
REMARK  5 active torsions:
REMARK  status: ('A' for Active; 'I' for Inactive)
REMARK    1  A    between atoms: O_2  and  C_3 
REMARK    2  A    between atoms: C_16  and  C_17 
REMARK    3  A    between atoms: C_19  and  O_20 
REMARK    4  A    between atoms: C_22  and  O_23 
REMARK    5  A    between atoms: O_23  and  C_24 
ROOT
HETATM    1  C   UNL     1     -15.602   2.006 -32.532  1.00  0.00     0.069 A 
HETATM    2  C   UNL     1     -14.707   2.902 -31.932  1.00  0.00     0.051 A 
HETATM    3  C   UNL     1     -13.411   3.061 -32.458  1.00  0.00     0.002 A 
HETATM    4  C   UNL     1     -13.051   2.319 -33.583  1.00  0.00     0.043 A 
HETATM    5  N   UNL     1     -11.747   2.640 -33.898  1.00  0.00    -0.356 N 
HETATM    6  H   UNL     1     -11.236   2.219 -34.664  1.00  0.00     0.166 HD
HETATM    7  C   UNL     1     -11.269   3.553 -32.993  1.00  0.00     0.052 A 
HETATM    8  C   UNL     1     -12.283   3.841 -32.097  1.00  0.00    -0.019 A 
HETATM    9  C   UNL     1     -12.103   4.810 -30.979  1.00  0.00     0.069 C 
HETATM   10  C   UNL     1     -10.607   5.057 -30.714  1.00  0.00     0.238 C 
HETATM   11  N   UNL     1      -9.850   5.265 -32.006  1.00  0.00    -0.061 N 
HETATM   12  H   UNL     1     -10.255   6.072 -32.492  1.00  0.00     0.278 HD
HETATM   13  H   UNL     1      -8.871   5.491 -31.801  1.00  0.00     0.278 HD
HETATM   14  C   UNL     1      -9.884   4.100 -32.965  1.00  0.00     0.269 C 
HETATM   15  C   UNL     1     -13.930   1.426 -34.205  1.00  0.00     0.033 A 
HETATM   16  C   UNL     1     -15.213   1.283 -33.658  1.00  0.00     0.039 A 
ENDROOT
BRANCH  14  17
HETATM   17  C   UNL     1      -8.804   3.086 -32.631  1.00  0.00    -0.019 A 
HETATM   18  C   UNL     1      -7.482   3.214 -33.100  1.00  0.00     0.049 A 
HETATM   19  C   UNL     1      -6.514   2.246 -32.810  1.00  0.00     0.102 A 
HETATM   20  C   UNL     1      -6.868   1.110 -32.061  1.00  0.00     0.102 A 
HETATM   21  C   UNL     1      -8.172   0.978 -31.585  1.00  0.00     0.040 A 
HETATM   22  C   UNL     1      -9.134   1.953 -31.871  1.00  0.00     0.012 A 
BRANCH  19  23
HETATM   23  O   UNL     1      -5.216   2.302 -33.248  1.00  0.00    -0.353 OA
HETATM   24  C   UNL     1      -4.379   3.328 -32.733  1.00  0.00     0.210 C 
ENDBRANCH  19  23
BRANCH  20  25
HETATM   25  O   UNL     1      -5.861   0.217 -31.806  1.00  0.00    -0.343 OA
BRANCH  25  26
HETATM   26  C   UNL     1      -5.912  -1.069 -32.413  1.00  0.00     0.129 C 
HETATM   27  C   UNL     1      -6.663  -1.065 -33.743  1.00  0.00     0.032 C 
HETATM   28  C   UNL     1      -6.042  -2.223 -34.500  1.00  0.00     0.002 C 
HETATM   29  C   UNL     1      -4.559  -2.077 -34.199  1.00  0.00     0.002 C 
HETATM   30  C   UNL     1      -4.484  -1.496 -32.788  1.00  0.00     0.032 C 
ENDBRANCH  25  26
ENDBRANCH  20  25
ENDBRANCH  14  17
BRANCH   1  31
HETATM   31  O   UNL     1     -16.822   1.937 -31.915  1.00  0.00    -0.356 OA
HETATM   32  C   UNL     1     -17.697   3.045 -32.087  1.00  0.00     0.210 C 
ENDBRANCH   1  31
TORSDOF 5
ENDMDL
MODEL 8
REMARK VINA RESULT:      -7.5      2.297      2.866
REMARK  5 active torsions:
REMARK  status: ('A' for Active; 'I' for Inactive)
REMARK    1  A    between atoms: O_2  and  C_3 
REMARK    2  A    between atoms: C_16  and  C_17 
REMARK    3  A    between atoms: C_19  and  O_20 
REMARK    4  A    between atoms: C_22  and  O_23 
REMARK    5  A    between atoms: O_23  and  C_24 
ROOT
HETATM    1  C   UNL     1      -4.013   7.109 -28.001  1.00  0.00     0.069 A 
HETATM    2  C   UNL     1      -3.840   6.971 -29.385  1.00  0.00     0.051 A 
HETATM    3  C   UNL     1      -4.723   6.165 -30.128  1.00  0.00     0.002 A 
HETATM    4  C   UNL     1      -5.766   5.523 -29.459  1.00  0.00     0.043 A 
HETATM    5  N   UNL     1      -6.478   4.797 -30.391  1.00  0.00    -0.356 N 
HETATM    6  H   UNL     1      -7.276   4.218 -30.159  1.00  0.00     0.166 HD
HETATM    7  C   UNL     1      -5.904   4.950 -31.627  1.00  0.00     0.052 A 
HETATM    8  C   UNL     1      -4.823   5.802 -31.496  1.00  0.00    -0.019 A 
HETATM    9  C   UNL     1      -3.974   6.191 -32.658  1.00  0.00     0.069 C 
HETATM   10  C   UNL     1      -4.178   5.213 -33.828  1.00  0.00     0.238 C 
HETATM   11  N   UNL     1      -5.644   4.920 -34.046  1.00  0.00    -0.061 N 
HETATM   12  H   UNL     1      -6.125   5.804 -34.244  1.00  0.00     0.278 HD
HETATM   13  H   UNL     1      -5.759   4.319 -34.868  1.00  0.00     0.278 HD
HETATM   14  C   UNL     1      -6.352   4.276 -32.878  1.00  0.00     0.269 C 
HETATM   15  C   UNL     1      -5.965   5.654 -28.081  1.00  0.00     0.033 A 
HETATM   16  C   UNL     1      -5.068   6.458 -27.364  1.00  0.00     0.039 A 
ENDROOT
BRANCH  14  17
HETATM   17  C   UNL     1      -6.167   2.769 -32.892  1.00  0.00    -0.019 A 
HETATM   18  C   UNL     1      -4.928   2.161 -32.612  1.00  0.00     0.049 A 
HETATM   19  C   UNL     1      -4.773   0.771 -32.668  1.00  0.00     0.102 A 
HETATM   20  C   UNL     1      -5.863  -0.035 -33.038  1.00  0.00     0.102 A 
HETATM   21  C   UNL     1      -7.097   0.556 -33.309  1.00  0.00     0.040 A 
HETATM   22  C   UNL     1      -7.248   1.945 -33.242  1.00  0.00     0.012 A 
BRANCH  19  23
HETATM   23  O   UNL     1      -3.592   0.119 -32.424  1.00  0.00    -0.353 OA
HETATM   24  C   UNL     1      -3.118   0.071 -31.084  1.00  0.00     0.210 C 
ENDBRANCH  19  23
BRANCH  20  25
HETATM   25  O   UNL     1      -5.636  -1.386 -33.054  1.00  0.00    -0.343 OA
BRANCH  25  26
HETATM   26  C   UNL     1      -5.690  -2.078 -34.297  1.00  0.00     0.129 C 
HETATM   27  C   UNL     1      -4.694  -3.235 -34.371  1.00  0.00     0.032 C 
HETATM   28  C   UNL     1      -5.341  -4.191 -35.354  1.00  0.00     0.002 C 
HETATM   29  C   UNL     1      -6.805  -4.169 -34.946  1.00  0.00     0.002 C 
HETATM   30  C   UNL     1      -7.063  -2.754 -34.428  1.00  0.00     0.032 C 
ENDBRANCH  25  26
ENDBRANCH  20  25
ENDBRANCH  14  17
BRANCH   1  31
HETATM   31  O   UNL     1      -3.080   7.907 -27.398  1.00  0.00    -0.356 OA
HETATM   32  C   UNL     1      -3.365   9.300 -27.333  1.00  0.00     0.210 C 
ENDBRANCH   1  31
TORSDOF 5
ENDMDL
MODEL 9
REMARK VINA RESULT:      -7.5      6.390      9.295
REMARK  5 active torsions:
REMARK  status: ('A' for Active; 'I' for Inactive)
REMARK    1  A    between atoms: O_2  and  C_3 
REMARK    2  A    between atoms: C_16  and  C_17 
REMARK    3  A    between atoms: C_19  and  O_20 
REMARK    4  A    between atoms: C_22  and  O_23 
REMARK    5  A    between atoms: O_23  and  C_24 
ROOT
HETATM    1  C   UNL     1     -14.218   6.826 -31.306  1.00  0.00     0.069 A 
HETATM    2  C   UNL     1     -13.841   6.358 -32.573  1.00  0.00     0.051 A 
HETATM    3  C   UNL     1     -13.438   5.020 -32.737  1.00  0.00     0.002 A 
HETATM    4  C   UNL     1     -13.432   4.181 -31.623  1.00  0.00     0.043 A 
HETATM    5  N   UNL     1     -12.997   2.939 -32.034  1.00  0.00    -0.356 N 
HETATM    6  H   UNL     1     -12.880   2.150 -31.409  1.00  0.00     0.166 HD
HETATM    7  C   UNL     1     -12.714   2.974 -33.375  1.00  0.00     0.052 A 
HETATM    8  C   UNL     1     -12.989   4.247 -33.839  1.00  0.00    -0.019 A 
HETATM    9  C   UNL     1     -12.799   4.630 -35.267  1.00  0.00     0.069 C 
HETATM   10  C   UNL     1     -11.880   3.622 -35.979  1.00  0.00     0.238 C 
HETATM   11  N   UNL     1     -12.261   2.200 -35.637  1.00  0.00    -0.061 N 
HETATM   12  H   UNL     1     -13.234   2.047 -35.924  1.00  0.00     0.278 HD
HETATM   13  H   UNL     1     -11.679   1.547 -36.172  1.00  0.00     0.278 HD
HETATM   14  C   UNL     1     -12.164   1.842 -34.174  1.00  0.00     0.269 C 
HETATM   15  C   UNL     1     -13.813   4.622 -30.351  1.00  0.00     0.033 A 
HETATM   16  C   UNL     1     -14.205   5.961 -30.213  1.00  0.00     0.039 A 
ENDROOT
BRANCH  14  17
HETATM   17  C   UNL     1     -10.750   1.429 -33.805  1.00  0.00    -0.019 A 
HETATM   18  C   UNL     1      -9.622   2.173 -34.205  1.00  0.00     0.049 A 
HETATM   19  C   UNL     1      -8.326   1.751 -33.887  1.00  0.00     0.102 A 
HETATM   20  C   UNL     1      -8.140   0.551 -33.179  1.00  0.00     0.102 A 
HETATM   21  C   UNL     1      -9.251  -0.188 -32.770  1.00  0.00     0.040 A 
HETATM   22  C   UNL     1     -10.543   0.243 -33.085  1.00  0.00     0.012 A 
BRANCH  19  23
HETATM   23  O   UNL     1      -7.188   2.418 -34.258  1.00  0.00    -0.353 OA
HETATM   24  C   UNL     1      -6.981   3.727 -33.746  1.00  0.00     0.210 C 
ENDBRANCH  19  23
BRANCH  20  25
HETATM   25  O   UNL     1      -6.843   0.215 -32.891  1.00  0.00    -0.343 OA
BRANCH  25  26
HETATM   26  C   UNL     1      -6.415  -1.124 -33.110  1.00  0.00     0.129 C 
HETATM   27  C   UNL     1      -6.498  -1.537 -34.579  1.00  0.00     0.032 C 
HETATM   28  C   UNL     1      -5.430  -2.606 -34.703  1.00  0.00     0.002 C 
HETATM   29  C   UNL     1      -4.273  -2.036 -33.898  1.00  0.00     0.002 C 
HETATM   30  C   UNL     1      -4.918  -1.226 -32.774  1.00  0.00     0.032 C 
ENDBRANCH  25  26
ENDBRANCH  20  25
ENDBRANCH  14  17
BRANCH   1  31
HETATM   31  O   UNL     1     -14.574   8.147 -31.281  1.00  0.00    -0.356 OA
HETATM   32  C   UNL     1     -15.599   8.557 -32.178  1.00  0.00     0.210 C 
ENDBRANCH   1  31
TORSDOF 5
ENDMDL
MODEL 10
REMARK VINA RESULT:      -7.5     18.040     19.558
REMARK  5 active torsions:
REMARK  status: ('A' for Active; 'I' for Inactive)
REMARK    1  A    between atoms: O_2  and  C_3 
REMARK    2  A    between atoms: C_16  and  C_17 
REMARK    3  A    between atoms: C_19  and  O_20 
REMARK    4  A    between atoms: C_22  and  O_23 
REMARK    5  A    between atoms: O_23  and  C_24 
ROOT
HETATM    1  C   UNL     1       0.706 -17.313 -35.388  1.00  0.00     0.069 A 
HETATM    2  C   UNL     1       0.520 -16.639 -36.603  1.00  0.00     0.051 A 
HETATM    3  C   UNL     1      -0.301 -15.497 -36.656  1.00  0.00     0.002 A 
HETATM    4  C   UNL     1      -0.910 -15.056 -35.481  1.00  0.00     0.043 A 
HETATM    5  N   UNL     1      -1.660 -13.940 -35.789  1.00  0.00    -0.356 N 
HETATM    6  H   UNL     1      -2.222 -13.439 -35.112  1.00  0.00     0.166 HD
HETATM    7  C   UNL     1      -1.554 -13.674 -37.130  1.00  0.00     0.052 A 
HETATM    8  C   UNL     1      -0.709 -14.615 -37.690  1.00  0.00    -0.019 A 
HETATM    9  C   UNL     1      -0.367 -14.612 -39.141  1.00  0.00     0.069 C 
HETATM   10  C   UNL     1      -1.382 -13.770 -39.933  1.00  0.00     0.238 C 
HETATM   11  N   UNL     1      -1.667 -12.460 -39.235  1.00  0.00    -0.061 N 
HETATM   12  H   UNL     1      -0.786 -11.944 -39.141  1.00  0.00     0.278 HD
HETATM   13  H   UNL     1      -2.294 -11.889 -39.812  1.00  0.00     0.278 HD
HETATM   14  C   UNL     1      -2.264 -12.583 -37.854  1.00  0.00     0.269 C 
HETATM   15  C   UNL     1      -0.731 -15.706 -34.255  1.00  0.00     0.033 A 
HETATM   16  C   UNL     1       0.088 -16.844 -34.231  1.00  0.00     0.039 A 
ENDROOT
BRANCH  14  17
HETATM   17  C   UNL     1      -3.773 -12.741 -37.924  1.00  0.00    -0.019 A 
HETATM   18  C   UNL     1      -4.503 -13.433 -36.937  1.00  0.00     0.049 A 
HETATM   19  C   UNL     1      -5.888 -13.599 -37.043  1.00  0.00     0.102 A 
HETATM   20  C   UNL     1      -6.565 -13.093 -38.167  1.00  0.00     0.102 A 
HETATM   21  C   UNL     1      -5.853 -12.399 -39.145  1.00  0.00     0.040 A 
HETATM   22  C   UNL     1      -4.470 -12.229 -39.029  1.00  0.00     0.012 A 
BRANCH  19  23
HETATM   23  O   UNL     1      -6.654 -14.274 -36.128  1.00  0.00    -0.353 OA
HETATM   24  C   UNL     1      -6.783 -13.720 -34.825  1.00  0.00     0.210 C 
ENDBRANCH  19  23
BRANCH  20  25
HETATM   25  O   UNL     1      -7.922 -13.281 -38.189  1.00  0.00    -0.343 OA
BRANCH  25  26
HETATM   26  C   UNL     1      -8.579 -13.403 -39.446  1.00  0.00     0.129 C 
HETATM   27  C   UNL     1      -9.690 -14.452 -39.432  1.00  0.00     0.032 C 
HETATM   28  C   UNL     1     -10.644 -13.966 -40.505  1.00  0.00     0.002 C 
HETATM   29  C   UNL     1     -10.696 -12.465 -40.269  1.00  0.00     0.002 C 
HETATM   30  C   UNL     1      -9.309 -12.085 -39.752  1.00  0.00     0.032 C 
ENDBRANCH  25  26
ENDBRANCH  20  25
ENDBRANCH  14  17
BRANCH   1  31
HETATM   31  O   UNL     1       1.515 -18.413 -35.477  1.00  0.00    -0.356 OA
HETATM   32  C   UNL     1       2.858 -18.266 -35.034  1.00  0.00     0.210 C 
ENDBRANCH   1  31
TORSDOF 5
ENDMDL
