MODEL 1
REMARK VINA RESULT:      -9.0      0.000      0.000
REMARK  4 active torsions:
REMARK  status: ('A' for Active; 'I' for Inactive)
REMARK    1  A    between atoms: C_5  and  C_6 
REMARK    2  A    between atoms: C_16  and  C_17 
REMARK       I    between atoms: C_17  and  N_18 
REMARK    3  A    between atoms: N_18  and  C_19 
REMARK    4  A    between atoms: C_20  and  O_21 
ROOT
HETATM    1  C   UNL     1      -6.444   2.609 -30.989  1.00  0.00     0.202 C 
HETATM    2  N   UNL     1      -7.247   3.698 -30.422  1.00  0.00    -0.083 N 
HETATM    3  C   UNL     1      -8.523   3.988 -30.822  1.00  0.00     0.726 A 
HETATM    4  N   UNL     1      -8.983   4.993 -30.122  1.00  0.00    -0.046 NA
HETATM    5  C   UNL     1      -7.947   5.258 -29.252  1.00  0.00     0.162 A 
HETATM    6  C   UNL     1      -8.038   6.302 -28.212  1.00  0.00     0.096 C 
HETATM    7  N   UNL     1      -6.865   4.477 -29.390  1.00  0.00    -0.141 NA
HETATM    8  N   UNL     1      -9.112   3.219 -31.763  1.00  0.00    -0.192 N 
HETATM    9  C   UNL     1      -8.595   1.977 -32.133  1.00  0.00     0.037 C 
HETATM   10  C   UNL     1      -9.561   1.047 -32.823  1.00  0.00     0.070 C 
HETATM   11  C   UNL     1      -7.327   1.650 -31.776  1.00  0.00     0.062 C 
HETATM   12  H   UNL     1     -10.105   3.372 -31.929  1.00  0.00     0.184 HD
ENDROOT
BRANCH  11  13
HETATM   13  C   UNL     1      -6.764   0.286 -31.931  1.00  0.00     0.256 C 
HETATM   14  N   UNL     1      -6.428  -0.040 -33.220  1.00  0.00    -0.321 N 
HETATM   15  H   UNL     1      -6.428   0.691 -33.925  1.00  0.00     0.169 HD
HETATM   16  O   UNL     1      -6.627  -0.408 -30.931  1.00  0.00    -0.267 OA
BRANCH  14  17
HETATM   17  C   UNL     1      -6.101  -1.322 -33.724  1.00  0.00     0.068 A 
HETATM   18  C   UNL     1      -4.736  -1.677 -33.749  1.00  0.00     0.095 A 
HETATM   19  C   UNL     1      -4.349  -2.906 -34.295  1.00  0.00     0.039 A 
HETATM   20  C   UNL     1      -5.310  -3.781 -34.808  1.00  0.00     0.003 A 
HETATM   21  C   UNL     1      -6.656  -3.435 -34.774  1.00  0.00     0.002 A 
HETATM   22  C   UNL     1      -7.052  -2.210 -34.235  1.00  0.00     0.032 A 
BRANCH  18  23
HETATM   23  O   UNL     1      -3.866  -0.741 -33.237  1.00  0.00    -0.354 OA
HETATM   24  C   UNL     1      -3.158  -1.111 -32.060  1.00  0.00     0.210 C 
ENDBRANCH  18  23
ENDBRANCH  14  17
ENDBRANCH  11  13
BRANCH   1  25
HETATM   25  C   UNL     1      -5.318   3.184 -31.847  1.00  0.00    -0.028 A 
HETATM   26  C   UNL     1      -3.983   2.864 -31.557  1.00  0.00     0.010 A 
HETATM   27  C   UNL     1      -2.938   3.405 -32.312  1.00  0.00     0.007 A 
HETATM   28  C   UNL     1      -3.204   4.277 -33.372  1.00  0.00    -0.062 A 
HETATM   29  C   UNL     1      -2.090   4.875 -34.180  1.00  0.00     0.048 C 
HETATM   30  C   UNL     1      -4.532   4.575 -33.689  1.00  0.00     0.007 A 
HETATM   31  C   UNL     1      -5.579   4.034 -32.937  1.00  0.00     0.010 A 
ENDBRANCH   1  25
TORSDOF 4
ENDMDL
MODEL 2
REMARK VINA RESULT:      -8.4      1.852      2.848
REMARK  4 active torsions:
REMARK  status: ('A' for Active; 'I' for Inactive)
REMARK    1  A    between atoms: C_5  and  C_6 
REMARK    2  A    between atoms: C_16  and  C_17 
REMARK       I    between atoms: C_17  and  N_18 
REMARK    3  A    between atoms: N_18  and  C_19 
REMARK    4  A    between atoms: C_20  and  O_21 
ROOT
HETATM    1  C   UNL     1      -6.700   2.237 -32.385  1.00  0.00     0.202 C 
HETATM    2  N   UNL     1      -7.815   3.119 -32.745  1.00  0.00    -0.083 N 
HETATM    3  C   UNL     1      -8.586   2.952 -33.863  1.00  0.00     0.726 A 
HETATM    4  N   UNL     1      -9.509   3.879 -33.900  1.00  0.00    -0.046 NA
HETATM    5  C   UNL     1      -9.288   4.576 -32.732  1.00  0.00     0.162 A 
HETATM    6  C   UNL     1     -10.144   5.704 -32.314  1.00  0.00     0.096 C 
HETATM    7  N   UNL     1      -8.267   4.136 -31.983  1.00  0.00    -0.141 NA
HETATM    8  N   UNL     1      -8.351   1.899 -34.676  1.00  0.00    -0.192 N 
HETATM    9  C   UNL     1      -7.560   0.821 -34.279  1.00  0.00     0.037 C 
HETATM   10  C   UNL     1      -7.751  -0.453 -35.064  1.00  0.00     0.070 C 
HETATM   11  C   UNL     1      -6.763   0.945 -33.187  1.00  0.00     0.062 C 
HETATM   12  H   UNL     1      -9.032   1.723 -35.412  1.00  0.00     0.184 HD
ENDROOT
BRANCH  11  13
HETATM   13  C   UNL     1      -6.053  -0.200 -32.563  1.00  0.00     0.256 C 
HETATM   14  N   UNL     1      -5.029  -0.706 -33.321  1.00  0.00    -0.321 N 
HETATM   15  H   UNL     1      -4.726  -0.190 -34.141  1.00  0.00     0.169 HD
HETATM   16  O   UNL     1      -6.410  -0.573 -31.453  1.00  0.00    -0.267 OA
BRANCH  14  17
HETATM   17  C   UNL     1      -4.332  -1.922 -33.119  1.00  0.00     0.068 A 
HETATM   18  C   UNL     1      -4.596  -2.975 -34.020  1.00  0.00     0.095 A 
HETATM   19  C   UNL     1      -3.984  -4.219 -33.831  1.00  0.00     0.039 A 
HETATM   20  C   UNL     1      -3.110  -4.417 -32.759  1.00  0.00     0.003 A 
HETATM   21  C   UNL     1      -2.842  -3.376 -31.877  1.00  0.00     0.002 A 
HETATM   22  C   UNL     1      -3.450  -2.132 -32.055  1.00  0.00     0.032 A 
BRANCH  18  23
HETATM   23  O   UNL     1      -5.484  -2.686 -35.031  1.00  0.00    -0.354 OA
HETATM   24  C   UNL     1      -6.340  -3.745 -35.443  1.00  0.00     0.210 C 
ENDBRANCH  18  23
ENDBRANCH  14  17
ENDBRANCH  11  13
BRANCH   1  25
HETATM   25  C   UNL     1      -5.372   2.968 -32.581  1.00  0.00    -0.028 A 
HETATM   26  C   UNL     1      -5.234   3.903 -33.617  1.00  0.00     0.010 A 
HETATM   27  C   UNL     1      -4.017   4.558 -33.832  1.00  0.00     0.007 A 
HETATM   28  C   UNL     1      -2.912   4.292 -33.017  1.00  0.00    -0.062 A 
HETATM   29  C   UNL     1      -1.598   4.977 -33.247  1.00  0.00     0.048 C 
HETATM   30  C   UNL     1      -3.050   3.385 -31.963  1.00  0.00     0.007 A 
HETATM   31  C   UNL     1      -4.266   2.731 -31.745  1.00  0.00     0.010 A 
ENDBRANCH   1  25
TORSDOF 4
ENDMDL
MODEL 3
REMARK VINA RESULT:      -8.3      1.290      1.982
REMARK  4 active torsions:
REMARK  status: ('A' for Active; 'I' for Inactive)
REMARK    1  A    between atoms: C_5  and  C_6 
REMARK    2  A    between atoms: C_16  and  C_17 
REMARK       I    between atoms: C_17  and  N_18 
REMARK    3  A    between atoms: N_18  and  C_19 
REMARK    4  A    between atoms: C_20  and  O_21 
ROOT
HETATM    1  C   UNL     1      -5.449   3.191 -30.645  1.00  0.00     0.202 C 
HETATM    2  N   UNL     1      -6.041   4.324 -29.927  1.00  0.00    -0.083 N 
HETATM    3  C   UNL     1      -7.363   4.670 -30.010  1.00  0.00     0.726 A 
HETATM    4  N   UNL     1      -7.593   5.705 -29.244  1.00  0.00    -0.046 NA
HETATM    5  C   UNL     1      -6.365   5.933 -28.661  1.00  0.00     0.162 A 
HETATM    6  C   UNL     1      -6.154   6.994 -27.658  1.00  0.00     0.096 C 
HETATM    7  N   UNL     1      -5.385   5.100 -29.040  1.00  0.00    -0.141 NA
HETATM    8  N   UNL     1      -8.197   3.916 -30.759  1.00  0.00    -0.192 N 
HETATM    9  C   UNL     1      -7.840   2.646 -31.212  1.00  0.00     0.037 C 
HETATM   10  C   UNL     1      -8.984   1.753 -31.622  1.00  0.00     0.070 C 
HETATM   11  C   UNL     1      -6.538   2.264 -31.168  1.00  0.00     0.062 C 
HETATM   12  H   UNL     1      -9.192   4.113 -30.681  1.00  0.00     0.184 HD
ENDROOT
BRANCH  11  13
HETATM   13  C   UNL     1      -6.088   0.872 -31.421  1.00  0.00     0.256 C 
HETATM   14  N   UNL     1      -5.781   0.612 -32.732  1.00  0.00    -0.321 N 
HETATM   15  H   UNL     1      -5.722   1.388 -33.384  1.00  0.00     0.169 HD
HETATM   16  O   UNL     1      -6.008   0.102 -30.473  1.00  0.00    -0.267 OA
BRANCH  14  17
HETATM   17  C   UNL     1      -5.560  -0.654 -33.327  1.00  0.00     0.068 A 
HETATM   18  C   UNL     1      -6.647  -1.250 -34.001  1.00  0.00     0.095 A 
HETATM   19  C   UNL     1      -6.504  -2.529 -34.552  1.00  0.00     0.039 A 
HETATM   20  C   UNL     1      -5.290  -3.210 -34.442  1.00  0.00     0.003 A 
HETATM   21  C   UNL     1      -4.215  -2.618 -33.786  1.00  0.00     0.002 A 
HETATM   22  C   UNL     1      -4.348  -1.345 -33.230  1.00  0.00     0.032 A 
BRANCH  18  23
HETATM   23  O   UNL     1      -7.804  -0.507 -34.040  1.00  0.00    -0.354 OA
HETATM   24  C   UNL     1      -8.058   0.208 -35.243  1.00  0.00     0.210 C 
ENDBRANCH  18  23
ENDBRANCH  14  17
ENDBRANCH  11  13
BRANCH   1  25
HETATM   25  C   UNL     1      -4.544   3.700 -31.768  1.00  0.00    -0.028 A 
HETATM   26  C   UNL     1      -3.151   3.608 -31.639  1.00  0.00     0.010 A 
HETATM   27  C   UNL     1      -2.307   4.096 -32.642  1.00  0.00     0.007 A 
HETATM   28  C   UNL     1      -2.837   4.687 -33.793  1.00  0.00    -0.062 A 
HETATM   29  C   UNL     1      -1.942   5.227 -34.869  1.00  0.00     0.048 C 
HETATM   30  C   UNL     1      -4.225   4.752 -33.943  1.00  0.00     0.007 A 
HETATM   31  C   UNL     1      -5.071   4.263 -32.944  1.00  0.00     0.010 A 
ENDBRANCH   1  25
TORSDOF 4
ENDMDL
MODEL 4
REMARK VINA RESULT:      -8.3      2.447      5.956
REMARK  4 active torsions:
REMARK  status: ('A' for Active; 'I' for Inactive)
REMARK    1  A    between atoms: C_5  and  C_6 
REMARK    2  A    between atoms: C_16  and  C_17 
REMARK       I    between atoms: C_17  and  N_18 
REMARK    3  A    between atoms: N_18  and  C_19 
REMARK    4  A    between atoms: C_20  and  O_21 
ROOT
HETATM    1  C   UNL     1      -8.669   2.447 -34.146  1.00  0.00     0.202 C 
HETATM    2  N   UNL     1     -10.081   2.168 -33.868  1.00  0.00    -0.083 N 
HETATM    3  C   UNL     1     -10.713   2.528 -32.708  1.00  0.00     0.726 A 
HETATM    4  N   UNL     1     -11.968   2.163 -32.762  1.00  0.00    -0.046 NA
HETATM    5  C   UNL     1     -12.072   1.616 -34.023  1.00  0.00     0.162 A 
HETATM    6  C   UNL     1     -13.351   1.108 -34.559  1.00  0.00     0.096 C 
HETATM    7  N   UNL     1     -10.942   1.611 -34.744  1.00  0.00    -0.141 NA
HETATM    8  N   UNL     1     -10.027   3.213 -31.767  1.00  0.00    -0.192 N 
HETATM    9  C   UNL     1      -8.802   3.822 -32.043  1.00  0.00     0.037 C 
HETATM   10  C   UNL     1      -8.383   4.908 -31.083  1.00  0.00     0.070 C 
HETATM   11  C   UNL     1      -8.128   3.485 -33.172  1.00  0.00     0.062 C 
HETATM   12  H   UNL     1     -10.563   3.590 -30.988  1.00  0.00     0.184 HD
ENDROOT
BRANCH  11  13
HETATM   13  C   UNL     1      -6.937   4.222 -33.660  1.00  0.00     0.256 C 
HETATM   14  N   UNL     1      -5.745   3.589 -33.415  1.00  0.00    -0.321 N 
HETATM   15  H   UNL     1      -5.761   2.629 -33.084  1.00  0.00     0.169 HD
HETATM   16  O   UNL     1      -7.105   5.287 -34.240  1.00  0.00    -0.267 OA
BRANCH  14  17
HETATM   17  C   UNL     1      -4.444   4.132 -33.537  1.00  0.00     0.068 A 
HETATM   18  C   UNL     1      -3.523   3.842 -32.508  1.00  0.00     0.095 A 
HETATM   19  C   UNL     1      -2.243   4.405 -32.544  1.00  0.00     0.039 A 
HETATM   20  C   UNL     1      -1.873   5.244 -33.597  1.00  0.00     0.003 A 
HETATM   21  C   UNL     1      -2.777   5.522 -34.617  1.00  0.00     0.002 A 
HETATM   22  C   UNL     1      -4.058   4.969 -34.588  1.00  0.00     0.032 A 
BRANCH  18  23
HETATM   23  O   UNL     1      -3.988   3.020 -31.507  1.00  0.00    -0.354 OA
HETATM   24  C   UNL     1      -3.406   1.723 -31.431  1.00  0.00     0.210 C 
ENDBRANCH  18  23
ENDBRANCH  14  17
ENDBRANCH  11  13
BRANCH   1  25
HETATM   25  C   UNL     1      -7.862   1.149 -34.104  1.00  0.00    -0.028 A 
HETATM   26  C   UNL     1      -7.450   0.542 -35.299  1.00  0.00     0.010 A 
HETATM   27  C   UNL     1      -6.738  -0.661 -35.281  1.00  0.00     0.007 A 
HETATM   28  C   UNL     1      -6.424  -1.284 -34.070  1.00  0.00    -0.062 A 
HETATM   29  C   UNL     1      -5.673  -2.583 -34.038  1.00  0.00     0.048 C 
HETATM   30  C   UNL     1      -6.803  -0.669 -32.873  1.00  0.00     0.007 A 
HETATM   31  C   UNL     1      -7.512   0.535 -32.888  1.00  0.00     0.010 A 
ENDBRANCH   1  25
TORSDOF 4
ENDMDL
MODEL 5
REMARK VINA RESULT:      -8.3      2.452      6.233
REMARK  4 active torsions:
REMARK  status: ('A' for Active; 'I' for Inactive)
REMARK    1  A    between atoms: C_5  and  C_6 
REMARK    2  A    between atoms: C_16  and  C_17 
REMARK       I    between atoms: C_17  and  N_18 
REMARK    3  A    between atoms: N_18  and  C_19 
REMARK    4  A    between atoms: C_20  and  O_21 
ROOT
HETATM    1  C   UNL     1      -7.147   2.639 -33.337  1.00  0.00     0.202 C 
HETATM    2  N   UNL     1      -8.589   2.866 -33.199  1.00  0.00    -0.083 N 
HETATM    3  C   UNL     1      -9.208   3.115 -32.005  1.00  0.00     0.726 A 
HETATM    4  N   UNL     1     -10.489   3.294 -32.205  1.00  0.00    -0.046 NA
HETATM    5  C   UNL     1     -10.601   3.193 -33.575  1.00  0.00     0.162 A 
HETATM    6  C   UNL     1     -11.884   3.386 -34.277  1.00  0.00     0.096 C 
HETATM    7  N   UNL     1      -9.457   2.945 -34.229  1.00  0.00    -0.141 NA
HETATM    8  N   UNL     1      -8.465   3.199 -30.880  1.00  0.00    -0.192 N 
HETATM    9  C   UNL     1      -7.077   3.336 -30.920  1.00  0.00     0.037 C 
HETATM   10  C   UNL     1      -6.437   3.871 -29.663  1.00  0.00     0.070 C 
HETATM   11  C   UNL     1      -6.415   3.082 -32.077  1.00  0.00     0.062 C 
HETATM   12  H   UNL     1      -8.935   3.529 -30.039  1.00  0.00     0.184 HD
ENDROOT
BRANCH  11  13
HETATM   13  C   UNL     1      -4.980   3.401 -32.282  1.00  0.00     0.256 C 
HETATM   14  N   UNL     1      -4.747   4.677 -32.729  1.00  0.00    -0.321 N 
HETATM   15  H   UNL     1      -5.515   5.341 -32.732  1.00  0.00     0.169 HD
HETATM   16  O   UNL     1      -4.148   2.541 -32.025  1.00  0.00    -0.267 OA
BRANCH  14  17
HETATM   17  C   UNL     1      -3.534   5.198 -33.240  1.00  0.00     0.068 A 
HETATM   18  C   UNL     1      -3.011   6.349 -32.614  1.00  0.00     0.095 A 
HETATM   19  C   UNL     1      -1.850   6.945 -33.118  1.00  0.00     0.039 A 
HETATM   20  C   UNL     1      -1.205   6.400 -34.230  1.00  0.00     0.003 A 
HETATM   21  C   UNL     1      -1.716   5.259 -34.841  1.00  0.00     0.002 A 
HETATM   22  C   UNL     1      -2.876   4.660 -34.349  1.00  0.00     0.032 A 
BRANCH  18  23
HETATM   23  O   UNL     1      -3.727   6.820 -31.537  1.00  0.00    -0.354 OA
HETATM   24  C   UNL     1      -3.094   6.728 -30.266  1.00  0.00     0.210 C 
ENDBRANCH  18  23
ENDBRANCH  14  17
ENDBRANCH  11  13
BRANCH   1  25
HETATM   25  C   UNL     1      -6.878   1.171 -33.668  1.00  0.00    -0.028 A 
HETATM   26  C   UNL     1      -6.954   0.728 -34.997  1.00  0.00     0.010 A 
HETATM   27  C   UNL     1      -6.742  -0.617 -35.315  1.00  0.00     0.007 A 
HETATM   28  C   UNL     1      -6.452  -1.548 -34.312  1.00  0.00    -0.062 A 
HETATM   29  C   UNL     1      -6.237  -2.996 -34.639  1.00  0.00     0.048 C 
HETATM   30  C   UNL     1      -6.343  -1.109 -32.990  1.00  0.00     0.007 A 
HETATM   31  C   UNL     1      -6.552   0.236 -32.670  1.00  0.00     0.010 A 
ENDBRANCH   1  25
TORSDOF 4
ENDMDL
MODEL 6
REMARK VINA RESULT:      -8.2      3.164      6.095
REMARK  4 active torsions:
REMARK  status: ('A' for Active; 'I' for Inactive)
REMARK    1  A    between atoms: C_5  and  C_6 
REMARK    2  A    between atoms: C_16  and  C_17 
REMARK       I    between atoms: C_17  and  N_18 
REMARK    3  A    between atoms: N_18  and  C_19 
REMARK    4  A    between atoms: C_20  and  O_21 
ROOT
HETATM    1  C   UNL     1      -7.248   2.372 -32.464  1.00  0.00     0.202 C 
HETATM    2  N   UNL     1      -6.074   3.248 -32.406  1.00  0.00    -0.083 N 
HETATM    3  C   UNL     1      -5.935   4.385 -33.156  1.00  0.00     0.726 A 
HETATM    4  N   UNL     1      -4.796   4.960 -32.870  1.00  0.00    -0.046 NA
HETATM    5  C   UNL     1      -4.282   4.149 -31.882  1.00  0.00     0.162 A 
HETATM    6  C   UNL     1      -3.006   4.445 -31.202  1.00  0.00     0.096 C 
HETATM    7  N   UNL     1      -5.040   3.092 -31.553  1.00  0.00    -0.141 NA
HETATM    8  N   UNL     1      -6.940   4.763 -33.975  1.00  0.00    -0.192 N 
HETATM    9  C   UNL     1      -8.220   4.216 -33.875  1.00  0.00     0.037 C 
HETATM   10  C   UNL     1      -9.327   5.025 -34.505  1.00  0.00     0.070 C 
HETATM   11  C   UNL     1      -8.406   3.079 -33.158  1.00  0.00     0.062 C 
HETATM   12  H   UNL     1      -6.866   5.683 -34.403  1.00  0.00     0.184 HD
ENDROOT
BRANCH  11  13
HETATM   13  C   UNL     1      -9.746   2.542 -32.814  1.00  0.00     0.256 C 
HETATM   14  N   UNL     1     -10.270   1.694 -33.757  1.00  0.00    -0.321 N 
HETATM   15  H   UNL     1      -9.670   1.372 -34.511  1.00  0.00     0.169 HD
HETATM   16  O   UNL     1     -10.250   2.867 -31.747  1.00  0.00    -0.267 OA
BRANCH  14  17
HETATM   17  C   UNL     1     -11.600   1.218 -33.839  1.00  0.00     0.068 A 
HETATM   18  C   UNL     1     -12.579   2.115 -34.316  1.00  0.00     0.095 A 
HETATM   19  C   UNL     1     -13.921   1.719 -34.358  1.00  0.00     0.039 A 
HETATM   20  C   UNL     1     -14.290   0.440 -33.935  1.00  0.00     0.003 A 
HETATM   21  C   UNL     1     -13.323  -0.447 -33.474  1.00  0.00     0.002 A 
HETATM   22  C   UNL     1     -11.983  -0.061 -33.425  1.00  0.00     0.032 A 
BRANCH  18  23
HETATM   23  O   UNL     1     -12.119   3.356 -34.692  1.00  0.00    -0.354 OA
HETATM   24  C   UNL     1     -12.511   3.814 -35.981  1.00  0.00     0.210 C 
ENDBRANCH  18  23
ENDBRANCH  14  17
ENDBRANCH  11  13
BRANCH   1  25
HETATM   25  C   UNL     1      -6.886   1.058 -33.154  1.00  0.00    -0.028 A 
HETATM   26  C   UNL     1      -7.015   0.938 -34.545  1.00  0.00     0.010 A 
HETATM   27  C   UNL     1      -6.718  -0.266 -35.190  1.00  0.00     0.007 A 
HETATM   28  C   UNL     1      -6.287  -1.377 -34.459  1.00  0.00    -0.062 A 
HETATM   29  C   UNL     1      -5.979  -2.679 -35.138  1.00  0.00     0.048 C 
HETATM   30  C   UNL     1      -6.125  -1.257 -33.076  1.00  0.00     0.007 A 
HETATM   31  C   UNL     1      -6.419  -0.054 -32.429  1.00  0.00     0.010 A 
ENDBRANCH   1  25
TORSDOF 4
ENDMDL
MODEL 7
REMARK VINA RESULT:      -8.0      3.129      5.841
REMARK  4 active torsions:
REMARK  status: ('A' for Active; 'I' for Inactive)
REMARK    1  A    between atoms: C_5  and  C_6 
REMARK    2  A    between atoms: C_16  and  C_17 
REMARK       I    between atoms: C_17  and  N_18 
REMARK    3  A    between atoms: N_18  and  C_19 
REMARK    4  A    between atoms: C_20  and  O_21 
ROOT
HETATM    1  C   UNL     1     -10.000   3.166 -33.895  1.00  0.00     0.202 C 
HETATM    2  N   UNL     1     -10.085   4.608 -34.148  1.00  0.00    -0.083 N 
HETATM    3  C   UNL     1      -9.849   5.562 -33.196  1.00  0.00     0.726 A 
HETATM    4  N   UNL     1      -9.980   6.751 -33.726  1.00  0.00    -0.046 NA
HETATM    5  C   UNL     1     -10.255   6.468 -35.046  1.00  0.00     0.162 A 
HETATM    6  C   UNL     1     -10.430   7.527 -36.059  1.00  0.00     0.096 C 
HETATM    7  N   UNL     1     -10.314   5.165 -35.355  1.00  0.00    -0.141 NA
HETATM    8  N   UNL     1      -9.478   5.180 -31.955  1.00  0.00    -0.192 N 
HETATM    9  C   UNL     1      -9.043   3.883 -31.680  1.00  0.00     0.037 C 
HETATM   10  C   UNL     1      -8.243   3.716 -30.412  1.00  0.00     0.070 C 
HETATM   11  C   UNL     1      -9.270   2.897 -32.586  1.00  0.00     0.062 C 
HETATM   12  H   UNL     1      -9.169   5.912 -31.318  1.00  0.00     0.184 HD
ENDROOT
BRANCH  11  13
HETATM   13  C   UNL     1      -8.665   1.545 -32.488  1.00  0.00     0.256 C 
HETATM   14  N   UNL     1      -7.498   1.400 -33.193  1.00  0.00    -0.321 N 
HETATM   15  H   UNL     1      -7.054   2.228 -33.580  1.00  0.00     0.169 HD
HETATM   16  O   UNL     1      -9.223   0.704 -31.795  1.00  0.00    -0.267 OA
BRANCH  14  17
HETATM   17  C   UNL     1      -6.821   0.194 -33.493  1.00  0.00     0.068 A 
HETATM   18  C   UNL     1      -5.576  -0.023 -32.865  1.00  0.00     0.095 A 
HETATM   19  C   UNL     1      -4.834  -1.168 -33.173  1.00  0.00     0.039 A 
HETATM   20  C   UNL     1      -5.324  -2.098 -34.092  1.00  0.00     0.003 A 
HETATM   21  C   UNL     1      -6.556  -1.889 -34.704  1.00  0.00     0.002 A 
HETATM   22  C   UNL     1      -7.303  -0.749 -34.407  1.00  0.00     0.032 A 
BRANCH  18  23
HETATM   23  O   UNL     1      -5.172   0.959 -31.989  1.00  0.00    -0.354 OA
HETATM   24  C   UNL     1      -3.921   1.578 -32.265  1.00  0.00     0.210 C 
ENDBRANCH  18  23
ENDBRANCH  14  17
ENDBRANCH  11  13
BRANCH   1  25
HETATM   25  C   UNL     1     -11.400   2.552 -33.906  1.00  0.00    -0.028 A 
HETATM   26  C   UNL     1     -11.708   1.529 -34.814  1.00  0.00     0.010 A 
HETATM   27  C   UNL     1     -12.991   0.976 -34.859  1.00  0.00     0.007 A 
HETATM   28  C   UNL     1     -13.994   1.434 -33.999  1.00  0.00    -0.062 A 
HETATM   29  C   UNL     1     -15.379   0.858 -34.048  1.00  0.00     0.048 C 
HETATM   30  C   UNL     1     -13.686   2.430 -33.069  1.00  0.00     0.007 A 
HETATM   31  C   UNL     1     -12.404   2.983 -33.020  1.00  0.00     0.010 A 
ENDBRANCH   1  25
TORSDOF 4
ENDMDL
MODEL 8
REMARK VINA RESULT:      -7.9      2.158      3.969
REMARK  4 active torsions:
REMARK  status: ('A' for Active; 'I' for Inactive)
REMARK    1  A    between atoms: C_5  and  C_6 
REMARK    2  A    between atoms: C_16  and  C_17 
REMARK       I    between atoms: C_17  and  N_18 
REMARK    3  A    between atoms: N_18  and  C_19 
REMARK    4  A    between atoms: C_20  and  O_21 
ROOT
HETATM    1  C   UNL     1      -7.669   3.143 -32.353  1.00  0.00     0.202 C 
HETATM    2  N   UNL     1      -7.928   4.182 -31.351  1.00  0.00    -0.083 N 
HETATM    3  C   UNL     1      -7.831   3.977 -30.001  1.00  0.00     0.726 A 
HETATM    4  N   UNL     1      -8.100   5.091 -29.369  1.00  0.00    -0.046 NA
HETATM    5  C   UNL     1      -8.311   5.983 -30.399  1.00  0.00     0.162 A 
HETATM    6  C   UNL     1      -8.597   7.411 -30.159  1.00  0.00     0.096 C 
HETATM    7  N   UNL     1      -8.201   5.472 -31.634  1.00  0.00    -0.141 NA
HETATM    8  N   UNL     1      -7.439   2.769 -29.542  1.00  0.00    -0.192 N 
HETATM    9  C   UNL     1      -6.852   1.817 -30.376  1.00  0.00     0.037 C 
HETATM   10  C   UNL     1      -6.062   0.737 -29.679  1.00  0.00     0.070 C 
HETATM   11  C   UNL     1      -6.937   1.966 -31.723  1.00  0.00     0.062 C 
HETATM   12  H   UNL     1      -7.237   2.696 -28.547  1.00  0.00     0.184 HD
ENDROOT
BRANCH  11  13
HETATM   13  C   UNL     1      -6.170   1.135 -32.684  1.00  0.00     0.256 C 
HETATM   14  N   UNL     1      -6.552  -0.182 -32.718  1.00  0.00    -0.321 N 
HETATM   15  H   UNL     1      -7.401  -0.457 -32.233  1.00  0.00     0.169 HD
HETATM   16  O   UNL     1      -5.305   1.674 -33.362  1.00  0.00    -0.267 OA
BRANCH  14  17
HETATM   17  C   UNL     1      -5.872  -1.257 -33.338  1.00  0.00     0.068 A 
HETATM   18  C   UNL     1      -4.646  -1.661 -32.768  1.00  0.00     0.095 A 
HETATM   19  C   UNL     1      -3.900  -2.676 -33.376  1.00  0.00     0.039 A 
HETATM   20  C   UNL     1      -4.367  -3.293 -34.539  1.00  0.00     0.003 A 
HETATM   21  C   UNL     1      -5.581  -2.901 -35.095  1.00  0.00     0.002 A 
HETATM   22  C   UNL     1      -6.331  -1.887 -34.498  1.00  0.00     0.032 A 
BRANCH  18  23
HETATM   23  O   UNL     1      -4.263  -0.981 -31.634  1.00  0.00    -0.354 OA
HETATM   24  C   UNL     1      -2.924  -0.499 -31.607  1.00  0.00     0.210 C 
ENDBRANCH  18  23
ENDBRANCH  14  17
ENDBRANCH  11  13
BRANCH   1  25
HETATM   25  C   UNL     1      -8.981   2.714 -33.010  1.00  0.00    -0.028 A 
HETATM   26  C   UNL     1      -9.638   1.555 -32.571  1.00  0.00     0.010 A 
HETATM   27  C   UNL     1     -10.822   1.130 -33.182  1.00  0.00     0.007 A 
HETATM   28  C   UNL     1     -11.374   1.853 -34.244  1.00  0.00    -0.062 A 
HETATM   29  C   UNL     1     -12.636   1.399 -34.916  1.00  0.00     0.048 C 
HETATM   30  C   UNL     1     -10.743   3.026 -34.666  1.00  0.00     0.007 A 
HETATM   31  C   UNL     1      -9.560   3.455 -34.056  1.00  0.00     0.010 A 
ENDBRANCH   1  25
TORSDOF 4
ENDMDL
MODEL 9
REMARK VINA RESULT:      -7.8     16.411     18.198
REMARK  4 active torsions:
REMARK  status: ('A' for Active; 'I' for Inactive)
REMARK    1  A    between atoms: C_5  and  C_6 
REMARK    2  A    between atoms: C_16  and  C_17 
REMARK       I    between atoms: C_17  and  N_18 
REMARK    3  A    between atoms: N_18  and  C_19 
REMARK    4  A    between atoms: C_20  and  O_21 
ROOT
HETATM    1  C   UNL     1      -6.228 -13.028 -40.009  1.00  0.00     0.202 C 
HETATM    2  N   UNL     1      -7.663 -12.848 -39.766  1.00  0.00    -0.083 N 
HETATM    3  C   UNL     1      -8.312 -13.319 -38.656  1.00  0.00     0.726 A 
HETATM    4  N   UNL     1      -9.575 -12.985 -38.714  1.00  0.00    -0.046 NA
HETATM    5  C   UNL     1      -9.645 -12.252 -39.879  1.00  0.00     0.162 A 
HETATM    6  C   UNL     1     -10.894 -11.611 -40.333  1.00  0.00     0.096 C 
HETATM    7  N   UNL     1      -8.491 -12.128 -40.551  1.00  0.00    -0.141 NA
HETATM    8  N   UNL     1      -7.604 -13.955 -37.698  1.00  0.00    -0.192 N 
HETATM    9  C   UNL     1      -6.211 -13.899 -37.647  1.00  0.00     0.037 C 
HETATM   10  C   UNL     1      -5.591 -14.245 -36.316  1.00  0.00     0.070 C 
HETATM   11  C   UNL     1      -5.521 -13.456 -38.730  1.00  0.00     0.062 C 
HETATM   12  H   UNL     1      -8.088 -14.161 -36.826  1.00  0.00     0.184 HD
ENDROOT
BRANCH  11  13
HETATM   13  C   UNL     1      -4.068 -13.157 -38.703  1.00  0.00     0.256 C 
HETATM   14  N   UNL     1      -3.276 -14.179 -39.160  1.00  0.00    -0.321 N 
HETATM   15  H   UNL     1      -3.716 -14.971 -39.620  1.00  0.00     0.169 HD
HETATM   16  O   UNL     1      -3.705 -12.055 -38.312  1.00  0.00    -0.267 OA
BRANCH  14  17
HETATM   17  C   UNL     1      -1.870 -14.296 -39.038  1.00  0.00     0.068 A 
HETATM   18  C   UNL     1      -1.137 -14.543 -40.218  1.00  0.00     0.095 A 
HETATM   19  C   UNL     1       0.248 -14.730 -40.147  1.00  0.00     0.039 A 
HETATM   20  C   UNL     1       0.904 -14.667 -38.916  1.00  0.00     0.003 A 
HETATM   21  C   UNL     1       0.183 -14.413 -37.754  1.00  0.00     0.002 A 
HETATM   22  C   UNL     1      -1.200 -14.228 -37.813  1.00  0.00     0.032 A 
BRANCH  18  23
HETATM   23  O   UNL     1      -1.877 -14.605 -41.377  1.00  0.00    -0.354 OA
HETATM   24  C   UNL     1      -1.969 -15.879 -42.002  1.00  0.00     0.210 C 
ENDBRANCH  18  23
ENDBRANCH  14  17
ENDBRANCH  11  13
BRANCH   1  25
HETATM   25  C   UNL     1      -6.013 -14.029 -41.143  1.00  0.00    -0.028 A 
HETATM   26  C   UNL     1      -5.214 -13.681 -42.242  1.00  0.00     0.010 A 
HETATM   27  C   UNL     1      -5.030 -14.572 -43.304  1.00  0.00     0.007 A 
HETATM   28  C   UNL     1      -5.642 -15.830 -43.291  1.00  0.00    -0.062 A 
HETATM   29  C   UNL     1      -5.464 -16.789 -44.431  1.00  0.00     0.048 C 
HETATM   30  C   UNL     1      -6.414 -16.197 -42.185  1.00  0.00     0.007 A 
HETATM   31  C   UNL     1      -6.596 -15.309 -41.121  1.00  0.00     0.010 A 
ENDBRANCH   1  25
TORSDOF 4
ENDMDL
MODEL 10
REMARK VINA RESULT:      -7.7     16.133     18.612
REMARK  4 active torsions:
REMARK  status: ('A' for Active; 'I' for Inactive)
REMARK    1  A    between atoms: C_5  and  C_6 
REMARK    2  A    between atoms: C_16  and  C_17 
REMARK       I    between atoms: C_17  and  N_18 
REMARK    3  A    between atoms: N_18  and  C_19 
REMARK    4  A    between atoms: C_20  and  O_21 
ROOT
HETATM    1  C   UNL     1      -5.523 -14.949 -40.190  1.00  0.00     0.202 C 
HETATM    2  N   UNL     1      -4.952 -14.876 -41.539  1.00  0.00    -0.083 N 
HETATM    3  C   UNL     1      -3.861 -14.117 -41.863  1.00  0.00     0.726 A 
HETATM    4  N   UNL     1      -3.580 -14.273 -43.131  1.00  0.00    -0.046 NA
HETATM    5  C   UNL     1      -4.517 -15.197 -43.540  1.00  0.00     0.162 A 
HETATM    6  C   UNL     1      -4.550 -15.731 -44.916  1.00  0.00     0.096 C 
HETATM    7  N   UNL     1      -5.372 -15.608 -42.592  1.00  0.00    -0.141 NA
HETATM    8  N   UNL     1      -3.233 -13.415 -40.894  1.00  0.00    -0.192 N 
HETATM    9  C   UNL     1      -3.463 -13.657 -39.540  1.00  0.00     0.037 C 
HETATM   10  C   UNL     1      -2.398 -13.155 -38.596  1.00  0.00     0.070 C 
HETATM   11  C   UNL     1      -4.544 -14.390 -39.167  1.00  0.00     0.062 C 
HETATM   12  H   UNL     1      -2.345 -12.982 -41.139  1.00  0.00     0.184 HD
ENDROOT
BRANCH  11  13
HETATM   13  C   UNL     1      -4.757 -14.880 -37.783  1.00  0.00     0.256 C 
HETATM   14  N   UNL     1      -5.618 -14.111 -37.041  1.00  0.00    -0.321 N 
HETATM   15  H   UNL     1      -6.157 -13.390 -37.511  1.00  0.00     0.169 HD
HETATM   16  O   UNL     1      -4.188 -15.905 -37.431  1.00  0.00    -0.267 OA
BRANCH  14  17
HETATM   17  C   UNL     1      -5.836 -14.173 -35.644  1.00  0.00     0.068 A 
HETATM   18  C   UNL     1      -6.840 -15.050 -35.184  1.00  0.00     0.095 A 
HETATM   19  C   UNL     1      -7.143 -15.104 -33.819  1.00  0.00     0.039 A 
HETATM   20  C   UNL     1      -6.450 -14.299 -32.913  1.00  0.00     0.003 A 
HETATM   21  C   UNL     1      -5.453 -13.441 -33.365  1.00  0.00     0.002 A 
HETATM   22  C   UNL     1      -5.146 -13.377 -34.725  1.00  0.00     0.032 A 
BRANCH  18  23
HETATM   23  O   UNL     1      -7.478 -15.788 -36.156  1.00  0.00    -0.354 OA
HETATM   24  C   UNL     1      -7.342 -17.202 -36.069  1.00  0.00     0.210 C 
ENDBRANCH  18  23
ENDBRANCH  14  17
ENDBRANCH  11  13
BRANCH   1  25
HETATM   25  C   UNL     1      -6.867 -14.222 -40.152  1.00  0.00    -0.028 A 
HETATM   26  C   UNL     1      -8.029 -14.918 -39.787  1.00  0.00     0.010 A 
HETATM   27  C   UNL     1      -9.272 -14.277 -39.776  1.00  0.00     0.007 A 
HETATM   28  C   UNL     1      -9.380 -12.929 -40.130  1.00  0.00    -0.062 A 
HETATM   29  C   UNL     1     -10.710 -12.235 -40.137  1.00  0.00     0.048 C 
HETATM   30  C   UNL     1      -8.223 -12.220 -40.464  1.00  0.00     0.007 A 
HETATM   31  C   UNL     1      -6.979 -12.857 -40.474  1.00  0.00     0.010 A 
ENDBRANCH   1  25
TORSDOF 4
ENDMDL
