MODEL 1
REMARK VINA RESULT:     -11.1      0.000      0.000
REMARK  8 active torsions:
REMARK  status: ('A' for Active; 'I' for Inactive)
REMARK    1  A    between atoms: C_6  and  N_7 
REMARK       I    between atoms: N_7  and  C_8 
REMARK    2  A    between atoms: C_8  and  C_9 
REMARK    3  A    between atoms: C_9  and  N_10 
REMARK    4  A    between atoms: N_14  and  C_15 
REMARK    5  A    between atoms: C_17  and  N_18 
REMARK    6  A    between atoms: N_18  and  C_19 
REMARK    7  A    between atoms: C_26  and  N_27 
REMARK    8  A    between atoms: N_27  and  C_28 
ROOT
HETATM    1  C   UNL     1      -5.534   1.476 -30.861  1.00  0.00     0.756 A 
HETATM    2  N   UNL     1      -4.807   2.579 -30.877  1.00  0.00     0.131 NA
HETATM    3  C   UNL     1      -3.501   2.412 -31.074  1.00  0.00     0.758 A 
HETATM    4  N   UNL     1      -2.926   1.231 -31.268  1.00  0.00     0.131 NA
HETATM    5  C   UNL     1      -3.725   0.175 -31.224  1.00  0.00     0.758 A 
HETATM    6  N   UNL     1      -5.024   0.263 -30.978  1.00  0.00     0.131 NA
ENDROOT
BRANCH   1   7
HETATM    7  N   UNL     1      -6.917   1.561 -30.737  1.00  0.00    -0.210 N 
HETATM    8  C   UNL     1      -7.696   0.466 -31.330  1.00  0.00     0.169 C 
HETATM    9  C   UNL     1      -8.140   0.774 -32.773  1.00  0.00     0.256 C 
HETATM   10  N   UNL     1      -8.835   2.143 -32.796  1.00  0.00    -0.060 N 
HETATM   11  H   UNL     1      -9.551   2.112 -32.060  1.00  0.00     0.280 HD
HETATM   12  C   UNL     1      -7.839   3.218 -32.358  1.00  0.00     0.256 C 
HETATM   13  C   UNL     1      -7.420   2.933 -30.894  1.00  0.00     0.169 C 
BRANCH  10  14
HETATM   14  C   UNL     1      -9.575   2.456 -34.087  1.00  0.00     0.337 C 
BRANCH  14  15
HETATM   15  C   UNL     1     -11.009   2.986 -33.959  1.00  0.00     0.248 C 
HETATM   16  N   UNL     1     -11.742   2.285 -33.011  1.00  0.00    -0.325 N 
HETATM   17  H   UNL     1     -11.353   1.404 -32.701  1.00  0.00     0.169 HD
HETATM   18  O   UNL     1     -11.406   3.890 -34.684  1.00  0.00    -0.271 OA
BRANCH  16  19
HETATM   19  C   UNL     1     -13.121   2.442 -32.710  1.00  0.00     0.046 A 
HETATM   20  C   UNL     1     -13.999   1.446 -33.214  1.00  0.00    -0.034 A 
HETATM   21  C   UNL     1     -15.385   1.565 -33.011  1.00  0.00     0.015 A 
HETATM   22  C   UNL     1     -13.520   0.255 -34.007  1.00  0.00     0.050 C 
HETATM   23  C   UNL     1     -15.919   2.635 -32.298  1.00  0.00    -0.061 A 
HETATM   24  C   UNL     1     -17.402   2.785 -32.132  1.00  0.00     0.048 C 
HETATM   25  C   UNL     1     -15.046   3.587 -31.767  1.00  0.00     0.015 A 
HETATM   26  C   UNL     1     -13.648   3.486 -31.925  1.00  0.00    -0.034 A 
HETATM   27  C   UNL     1     -12.828   4.494 -31.165  1.00  0.00     0.050 C 
ENDBRANCH  16  19
ENDBRANCH  14  15
ENDBRANCH  10  14
ENDBRANCH   1   7
BRANCH   3  28
HETATM   28  N   UNL     1      -2.651   3.512 -31.156  1.00  0.00    -0.187 N 
HETATM   29  H   UNL     1      -2.456   3.875 -30.232  1.00  0.00     0.184 HD
BRANCH  28  30
HETATM   30  C   UNL     1      -2.314   4.363 -32.216  1.00  0.00     0.049 A 
HETATM   31  C   UNL     1      -2.795   4.196 -33.519  1.00  0.00     0.030 A 
HETATM   32  C   UNL     1      -2.405   5.059 -34.549  1.00  0.00     0.002 A 
HETATM   33  C   UNL     1      -1.505   6.089 -34.292  1.00  0.00     0.000 A 
HETATM   34  C   UNL     1      -0.998   6.259 -33.006  1.00  0.00     0.002 A 
HETATM   35  C   UNL     1      -1.399   5.400 -31.980  1.00  0.00     0.030 A 
ENDBRANCH  28  30
ENDBRANCH   3  28
BRANCH   5  36
HETATM   36  N   UNL     1      -3.118  -1.063 -31.420  1.00  0.00    -0.187 N 
HETATM   37  H   UNL     1      -2.161  -1.037 -31.094  1.00  0.00     0.184 HD
BRANCH  36  38
HETATM   38  C   UNL     1      -3.434  -2.140 -32.263  1.00  0.00     0.049 A 
HETATM   39  C   UNL     1      -3.066  -3.466 -32.004  1.00  0.00     0.030 A 
HETATM   40  C   UNL     1      -3.377  -4.495 -32.900  1.00  0.00     0.002 A 
HETATM   41  C   UNL     1      -4.045  -4.210 -34.086  1.00  0.00     0.000 A 
HETATM   42  C   UNL     1      -4.398  -2.896 -34.376  1.00  0.00     0.002 A 
HETATM   43  C   UNL     1      -4.090  -1.872 -33.475  1.00  0.00     0.030 A 
ENDBRANCH  36  38
ENDBRANCH   5  36
TORSDOF 8
ENDMDL
MODEL 2
REMARK VINA RESULT:     -11.0      3.006     10.074
REMARK  8 active torsions:
REMARK  status: ('A' for Active; 'I' for Inactive)
REMARK    1  A    between atoms: C_6  and  N_7 
REMARK       I    between atoms: N_7  and  C_8 
REMARK    2  A    between atoms: C_8  and  C_9 
REMARK    3  A    between atoms: C_9  and  N_10 
REMARK    4  A    between atoms: N_14  and  C_15 
REMARK    5  A    between atoms: C_17  and  N_18 
REMARK    6  A    between atoms: N_18  and  C_19 
REMARK    7  A    between atoms: C_26  and  N_27 
REMARK    8  A    between atoms: N_27  and  C_28 
ROOT
HETATM    1  C   UNL     1      -6.447   1.598 -32.014  1.00  0.00     0.756 A 
HETATM    2  N   UNL     1      -5.846   0.781 -32.861  1.00  0.00     0.131 NA
HETATM    3  C   UNL     1      -6.645  -0.013 -33.570  1.00  0.00     0.758 A 
HETATM    4  N   UNL     1      -7.970  -0.004 -33.478  1.00  0.00     0.131 NA
HETATM    5  C   UNL     1      -8.491   0.836 -32.595  1.00  0.00     0.758 A 
HETATM    6  N   UNL     1      -7.754   1.616 -31.818  1.00  0.00     0.131 NA
ENDROOT
BRANCH   1   7
HETATM    7  N   UNL     1      -5.696   2.516 -31.287  1.00  0.00    -0.210 N 
HETATM    8  C   UNL     1      -6.321   3.821 -31.035  1.00  0.00     0.169 C 
HETATM    9  C   UNL     1      -5.953   4.866 -32.105  1.00  0.00     0.256 C 
HETATM   10  N   UNL     1      -4.425   4.905 -32.254  1.00  0.00    -0.060 N 
HETATM   11  H   UNL     1      -4.049   5.022 -31.305  1.00  0.00     0.280 HD
HETATM   12  C   UNL     1      -3.934   3.537 -32.729  1.00  0.00     0.256 C 
HETATM   13  C   UNL     1      -4.268   2.489 -31.638  1.00  0.00     0.169 C 
BRANCH  10  14
HETATM   14  C   UNL     1      -3.897   6.081 -33.061  1.00  0.00     0.337 C 
BRANCH  14  15
HETATM   15  C   UNL     1      -2.718   6.862 -32.468  1.00  0.00     0.248 C 
HETATM   16  N   UNL     1      -2.458   6.496 -31.154  1.00  0.00    -0.325 N 
HETATM   17  H   UNL     1      -3.178   5.965 -30.682  1.00  0.00     0.169 HD
HETATM   18  O   UNL     1      -2.155   7.732 -33.122  1.00  0.00    -0.271 OA
BRANCH  16  19
HETATM   19  C   UNL     1      -1.509   7.084 -30.275  1.00  0.00     0.046 A 
HETATM   20  C   UNL     1      -0.210   6.510 -30.265  1.00  0.00    -0.034 A 
HETATM   21  C   UNL     1       0.764   6.997 -29.376  1.00  0.00     0.015 A 
HETATM   22  C   UNL     1       0.183   5.355 -31.152  1.00  0.00     0.050 C 
HETATM   23  C   UNL     1       0.489   8.056 -28.515  1.00  0.00    -0.061 A 
HETATM   24  C   UNL     1       1.516   8.534 -27.532  1.00  0.00     0.048 C 
HETATM   25  C   UNL     1      -0.777   8.644 -28.561  1.00  0.00     0.015 A 
HETATM   26  C   UNL     1      -1.770   8.203 -29.459  1.00  0.00    -0.034 A 
HETATM   27  C   UNL     1      -3.025   9.032 -29.507  1.00  0.00     0.050 C 
ENDBRANCH  16  19
ENDBRANCH  14  15
ENDBRANCH  10  14
ENDBRANCH   1   7
BRANCH   3  28
HETATM   28  N   UNL     1      -6.118  -0.879 -34.525  1.00  0.00    -0.187 N 
HETATM   29  H   UNL     1      -6.272  -0.510 -35.455  1.00  0.00     0.184 HD
BRANCH  28  30
HETATM   30  C   UNL     1      -5.751  -2.229 -34.469  1.00  0.00     0.049 A 
HETATM   31  C   UNL     1      -4.468  -2.663 -34.120  1.00  0.00     0.030 A 
HETATM   32  C   UNL     1      -4.144  -4.024 -34.107  1.00  0.00     0.002 A 
HETATM   33  C   UNL     1      -5.099  -4.971 -34.468  1.00  0.00     0.000 A 
HETATM   34  C   UNL     1      -6.375  -4.557 -34.841  1.00  0.00     0.002 A 
HETATM   35  C   UNL     1      -6.694  -3.198 -34.842  1.00  0.00     0.030 A 
ENDBRANCH  28  30
ENDBRANCH   3  28
BRANCH   5  36
HETATM   36  N   UNL     1      -9.881   0.838 -32.495  1.00  0.00    -0.187 N 
HETATM   37  H   UNL     1     -10.178   0.205 -31.765  1.00  0.00     0.184 HD
BRANCH  36  38
HETATM   38  C   UNL     1     -10.885   1.230 -33.394  1.00  0.00     0.049 A 
HETATM   39  C   UNL     1     -10.849   2.420 -34.132  1.00  0.00     0.030 A 
HETATM   40  C   UNL     1     -11.897   2.777 -34.987  1.00  0.00     0.002 A 
HETATM   41  C   UNL     1     -13.015   1.958 -35.101  1.00  0.00     0.000 A 
HETATM   42  C   UNL     1     -13.085   0.784 -34.357  1.00  0.00     0.002 A 
HETATM   43  C   UNL     1     -12.032   0.429 -33.509  1.00  0.00     0.030 A 
ENDBRANCH  36  38
ENDBRANCH   5  36
TORSDOF 8
ENDMDL
MODEL 3
REMARK VINA RESULT:     -11.0      0.444      5.120
REMARK  8 active torsions:
REMARK  status: ('A' for Active; 'I' for Inactive)
REMARK    1  A    between atoms: C_6  and  N_7 
REMARK       I    between atoms: N_7  and  C_8 
REMARK    2  A    between atoms: C_8  and  C_9 
REMARK    3  A    between atoms: C_9  and  N_10 
REMARK    4  A    between atoms: N_14  and  C_15 
REMARK    5  A    between atoms: C_17  and  N_18 
REMARK    6  A    between atoms: N_18  and  C_19 
REMARK    7  A    between atoms: C_26  and  N_27 
REMARK    8  A    between atoms: N_27  and  C_28 
ROOT
HETATM    1  C   UNL     1      -5.535   2.020 -31.119  1.00  0.00     0.756 A 
HETATM    2  N   UNL     1      -5.170   0.752 -31.183  1.00  0.00     0.131 NA
HETATM    3  C   UNL     1      -3.862   0.527 -31.291  1.00  0.00     0.758 A 
HETATM    4  N   UNL     1      -2.945   1.487 -31.315  1.00  0.00     0.131 NA
HETATM    5  C   UNL     1      -3.398   2.732 -31.259  1.00  0.00     0.758 A 
HETATM    6  N   UNL     1      -4.688   3.030 -31.206  1.00  0.00     0.131 NA
ENDROOT
BRANCH   1   7
HETATM    7  N   UNL     1      -6.875   2.345 -30.930  1.00  0.00    -0.210 N 
HETATM    8  C   UNL     1      -7.838   1.242 -31.034  1.00  0.00     0.169 C 
HETATM    9  C   UNL     1      -8.417   1.099 -32.455  1.00  0.00     0.256 C 
HETATM   10  N   UNL     1      -8.953   2.464 -32.911  1.00  0.00    -0.060 N 
HETATM   11  H   UNL     1      -9.572   2.793 -32.161  1.00  0.00     0.280 HD
HETATM   12  C   UNL     1      -7.796   3.464 -32.960  1.00  0.00     0.256 C 
HETATM   13  C   UNL     1      -7.236   3.639 -31.526  1.00  0.00     0.169 C 
BRANCH  10  14
HETATM   14  C   UNL     1      -9.805   2.422 -34.170  1.00  0.00     0.337 C 
BRANCH  14  15
HETATM   15  C   UNL     1     -11.241   2.951 -34.059  1.00  0.00     0.248 C 
HETATM   16  N   UNL     1     -11.951   2.325 -33.043  1.00  0.00    -0.325 N 
HETATM   17  H   UNL     1     -11.550   1.474 -32.670  1.00  0.00     0.169 HD
HETATM   18  O   UNL     1     -11.657   3.791 -34.847  1.00  0.00    -0.271 OA
BRANCH  16  19
HETATM   19  C   UNL     1     -13.326   2.496 -32.730  1.00  0.00     0.046 A 
HETATM   20  C   UNL     1     -14.211   1.479 -33.175  1.00  0.00    -0.034 A 
HETATM   21  C   UNL     1     -15.593   1.609 -32.959  1.00  0.00     0.015 A 
HETATM   22  C   UNL     1     -13.743   0.252 -33.918  1.00  0.00     0.050 C 
HETATM   23  C   UNL     1     -16.117   2.712 -32.288  1.00  0.00    -0.061 A 
HETATM   24  C   UNL     1     -17.597   2.870 -32.109  1.00  0.00     0.048 C 
HETATM   25  C   UNL     1     -15.237   3.687 -31.815  1.00  0.00     0.015 A 
HETATM   26  C   UNL     1     -13.841   3.577 -31.988  1.00  0.00    -0.034 A 
HETATM   27  C   UNL     1     -13.010   4.618 -31.288  1.00  0.00     0.050 C 
ENDBRANCH  16  19
ENDBRANCH  14  15
ENDBRANCH  10  14
ENDBRANCH   1   7
BRANCH   3  28
HETATM   28  N   UNL     1      -3.366  -0.774 -31.318  1.00  0.00    -0.187 N 
HETATM   29  H   UNL     1      -2.558  -0.854 -30.715  1.00  0.00     0.184 HD
BRANCH  28  30
HETATM   30  C   UNL     1      -3.547  -1.830 -32.221  1.00  0.00     0.049 A 
HETATM   31  C   UNL     1      -4.253  -1.703 -33.422  1.00  0.00     0.030 A 
HETATM   32  C   UNL     1      -4.429  -2.797 -34.275  1.00  0.00     0.002 A 
HETATM   33  C   UNL     1      -3.919  -4.044 -33.924  1.00  0.00     0.000 A 
HETATM   34  C   UNL     1      -3.232  -4.196 -32.722  1.00  0.00     0.002 A 
HETATM   35  C   UNL     1      -3.051  -3.097 -31.879  1.00  0.00     0.030 A 
ENDBRANCH  28  30
ENDBRANCH   3  28
BRANCH   5  36
HETATM   36  N   UNL     1      -2.434   3.738 -31.292  1.00  0.00    -0.187 N 
HETATM   37  H   UNL     1      -2.185   4.012 -30.351  1.00  0.00     0.184 HD
BRANCH  36  38
HETATM   38  C   UNL     1      -2.051   4.636 -32.300  1.00  0.00     0.049 A 
HETATM   39  C   UNL     1      -2.238   4.400 -33.667  1.00  0.00     0.030 A 
HETATM   40  C   UNL     1      -1.802   5.317 -34.630  1.00  0.00     0.002 A 
HETATM   41  C   UNL     1      -1.148   6.481 -34.240  1.00  0.00     0.000 A 
HETATM   42  C   UNL     1      -0.929   6.725 -32.888  1.00  0.00     0.002 A 
HETATM   43  C   UNL     1      -1.371   5.808 -31.930  1.00  0.00     0.030 A 
ENDBRANCH  36  38
ENDBRANCH   5  36
TORSDOF 8
ENDMDL
MODEL 4
REMARK VINA RESULT:     -10.9      2.973      9.537
REMARK  8 active torsions:
REMARK  status: ('A' for Active; 'I' for Inactive)
REMARK    1  A    between atoms: C_6  and  N_7 
REMARK       I    between atoms: N_7  and  C_8 
REMARK    2  A    between atoms: C_8  and  C_9 
REMARK    3  A    between atoms: C_9  and  N_10 
REMARK    4  A    between atoms: N_14  and  C_15 
REMARK    5  A    between atoms: C_17  and  N_18 
REMARK    6  A    between atoms: N_18  and  C_19 
REMARK    7  A    between atoms: C_26  and  N_27 
REMARK    8  A    between atoms: N_27  and  C_28 
ROOT
HETATM    1  C   UNL     1      -6.775   1.351 -32.134  1.00  0.00     0.756 A 
HETATM    2  N   UNL     1      -8.089   1.338 -31.997  1.00  0.00     0.131 NA
HETATM    3  C   UNL     1      -8.746   0.480 -32.775  1.00  0.00     0.758 A 
HETATM    4  N   UNL     1      -8.156  -0.344 -33.632  1.00  0.00     0.131 NA
HETATM    5  C   UNL     1      -6.836  -0.257 -33.716  1.00  0.00     0.758 A 
HETATM    6  N   UNL     1      -6.123   0.611 -33.013  1.00  0.00     0.131 NA
ENDROOT
BRANCH   1   7
HETATM    7  N   UNL     1      -6.001   2.162 -31.308  1.00  0.00    -0.210 N 
HETATM    8  C   UNL     1      -6.671   3.332 -30.727  1.00  0.00     0.169 C 
HETATM    9  C   UNL     1      -6.490   4.599 -31.584  1.00  0.00     0.256 C 
HETATM   10  N   UNL     1      -4.994   4.793 -31.872  1.00  0.00    -0.060 N 
HETATM   11  H   UNL     1      -4.519   4.745 -30.963  1.00  0.00     0.280 HD
HETATM   12  C   UNL     1      -4.479   3.594 -32.671  1.00  0.00     0.256 C 
HETATM   13  C   UNL     1      -4.624   2.323 -31.797  1.00  0.00     0.169 C 
BRANCH  10  14
HETATM   14  C   UNL     1      -4.632   6.147 -32.463  1.00  0.00     0.337 C 
BRANCH  14  15
HETATM   15  C   UNL     1      -3.271   6.738 -32.073  1.00  0.00     0.248 C 
HETATM   16  N   UNL     1      -2.904   6.394 -30.780  1.00  0.00    -0.325 N 
HETATM   17  H   UNL     1      -3.634   6.019 -30.188  1.00  0.00     0.169 HD
HETATM   18  O   UNL     1      -2.663   7.465 -32.850  1.00  0.00    -0.271 OA
BRANCH  16  19
HETATM   19  C   UNL     1      -1.763   6.848 -30.066  1.00  0.00     0.046 A 
HETATM   20  C   UNL     1      -2.003   7.718 -28.970  1.00  0.00    -0.034 A 
HETATM   21  C   UNL     1      -0.921   8.259 -28.253  1.00  0.00     0.015 A 
HETATM   22  C   UNL     1      -3.389   8.133 -28.540  1.00  0.00     0.050 C 
HETATM   23  C   UNL     1       0.393   7.937 -28.583  1.00  0.00    -0.061 A 
HETATM   24  C   UNL     1       1.543   8.561 -27.850  1.00  0.00     0.048 C 
HETATM   25  C   UNL     1       0.621   7.047 -29.634  1.00  0.00     0.015 A 
HETATM   26  C   UNL     1      -0.439   6.461 -30.357  1.00  0.00    -0.034 A 
HETATM   27  C   UNL     1      -0.048   5.403 -31.352  1.00  0.00     0.050 C 
ENDBRANCH  16  19
ENDBRANCH  14  15
ENDBRANCH  10  14
ENDBRANCH   1   7
BRANCH   3  28
HETATM   28  N   UNL     1     -10.129   0.352 -32.677  1.00  0.00    -0.187 N 
HETATM   29  H   UNL     1     -10.368  -0.397 -32.041  1.00  0.00     0.184 HD
BRANCH  28  30
HETATM   30  C   UNL     1     -11.174   0.798 -33.496  1.00  0.00     0.049 A 
HETATM   31  C   UNL     1     -11.092   1.947 -34.290  1.00  0.00     0.030 A 
HETATM   32  C   UNL     1     -12.177   2.366 -35.069  1.00  0.00     0.002 A 
HETATM   33  C   UNL     1     -13.370   1.650 -35.044  1.00  0.00     0.000 A 
HETATM   34  C   UNL     1     -13.479   0.516 -34.243  1.00  0.00     0.002 A 
HETATM   35  C   UNL     1     -12.389   0.098 -33.475  1.00  0.00     0.030 A 
ENDBRANCH  28  30
ENDBRANCH   3  28
BRANCH   5  36
HETATM   36  N   UNL     1      -6.221  -1.118 -34.623  1.00  0.00    -0.187 N 
HETATM   37  H   UNL     1      -6.450  -0.847 -35.570  1.00  0.00     0.184 HD
BRANCH  36  38
HETATM   38  C   UNL     1      -5.696  -2.411 -34.480  1.00  0.00     0.049 A 
HETATM   39  C   UNL     1      -4.417  -2.682 -33.977  1.00  0.00     0.030 A 
HETATM   40  C   UNL     1      -3.932  -3.991 -33.891  1.00  0.00     0.002 A 
HETATM   41  C   UNL     1      -4.713  -5.056 -34.330  1.00  0.00     0.000 A 
HETATM   42  C   UNL     1      -5.976  -4.809 -34.857  1.00  0.00     0.002 A 
HETATM   43  C   UNL     1      -6.458  -3.499 -34.936  1.00  0.00     0.030 A 
ENDBRANCH  36  38
ENDBRANCH   5  36
TORSDOF 8
ENDMDL
MODEL 5
REMARK VINA RESULT:     -10.8      3.170      9.609
REMARK  8 active torsions:
REMARK  status: ('A' for Active; 'I' for Inactive)
REMARK    1  A    between atoms: C_6  and  N_7 
REMARK       I    between atoms: N_7  and  C_8 
REMARK    2  A    between atoms: C_8  and  C_9 
REMARK    3  A    between atoms: C_9  and  N_10 
REMARK    4  A    between atoms: N_14  and  C_15 
REMARK    5  A    between atoms: C_17  and  N_18 
REMARK    6  A    between atoms: N_18  and  C_19 
REMARK    7  A    between atoms: C_26  and  N_27 
REMARK    8  A    between atoms: N_27  and  C_28 
ROOT
HETATM    1  C   UNL     1      -7.176   1.092 -31.528  1.00  0.00     0.756 A 
HETATM    2  N   UNL     1      -8.495   1.052 -31.600  1.00  0.00     0.131 NA
HETATM    3  C   UNL     1      -9.002   0.328 -32.595  1.00  0.00     0.758 A 
HETATM    4  N   UNL     1      -8.265  -0.346 -33.470  1.00  0.00     0.131 NA
HETATM    5  C   UNL     1      -6.951  -0.242 -33.335  1.00  0.00     0.758 A 
HETATM    6  N   UNL     1      -6.378   0.504 -32.402  1.00  0.00     0.131 NA
ENDROOT
BRANCH   1   7
HETATM    7  N   UNL     1      -6.560   1.762 -30.476  1.00  0.00    -0.210 N 
HETATM    8  C   UNL     1      -7.279   2.919 -29.926  1.00  0.00     0.169 C 
HETATM    9  C   UNL     1      -6.852   4.245 -30.584  1.00  0.00     0.256 C 
HETATM   10  N   UNL     1      -5.322   4.355 -30.527  1.00  0.00    -0.060 N 
HETATM   11  H   UNL     1      -5.059   4.187 -29.549  1.00  0.00     0.280 HD
HETATM   12  C   UNL     1      -4.708   3.202 -31.324  1.00  0.00     0.256 C 
HETATM   13  C   UNL     1      -5.103   1.868 -30.642  1.00  0.00     0.169 C 
BRANCH  10  14
HETATM   14  C   UNL     1      -4.772   5.729 -30.879  1.00  0.00     0.337 C 
BRANCH  14  15
HETATM   15  C   UNL     1      -3.908   6.427 -29.821  1.00  0.00     0.248 C 
HETATM   16  N   UNL     1      -2.674   6.813 -30.326  1.00  0.00    -0.325 N 
HETATM   17  H   UNL     1      -2.400   6.404 -31.210  1.00  0.00     0.169 HD
HETATM   18  O   UNL     1      -4.308   6.544 -28.669  1.00  0.00    -0.271 OA
BRANCH  16  19
HETATM   19  C   UNL     1      -1.596   7.389 -29.602  1.00  0.00     0.046 A 
HETATM   20  C   UNL     1      -0.403   6.623 -29.522  1.00  0.00    -0.034 A 
HETATM   21  C   UNL     1       0.686   7.098 -28.770  1.00  0.00     0.015 A 
HETATM   22  C   UNL     1      -0.245   5.278 -30.187  1.00  0.00     0.050 C 
HETATM   23  C   UNL     1       0.628   8.326 -28.116  1.00  0.00    -0.061 A 
HETATM   24  C   UNL     1       1.773   8.801 -27.272  1.00  0.00     0.048 C 
HETATM   25  C   UNL     1      -0.532   9.094 -28.235  1.00  0.00     0.015 A 
HETATM   26  C   UNL     1      -1.633   8.664 -29.004  1.00  0.00    -0.034 A 
HETATM   27  C   UNL     1      -2.746   9.663 -29.170  1.00  0.00     0.050 C 
ENDBRANCH  16  19
ENDBRANCH  14  15
ENDBRANCH  10  14
ENDBRANCH   1   7
BRANCH   3  28
HETATM   28  N   UNL     1     -10.380   0.181 -32.734  1.00  0.00    -0.187 N 
HETATM   29  H   UNL     1     -10.671  -0.727 -32.399  1.00  0.00     0.184 HD
BRANCH  28  30
HETATM   30  C   UNL     1     -11.324   0.865 -33.510  1.00  0.00     0.049 A 
HETATM   31  C   UNL     1     -12.642   0.428 -33.679  1.00  0.00     0.030 A 
HETATM   32  C   UNL     1     -13.539   1.133 -34.489  1.00  0.00     0.002 A 
HETATM   33  C   UNL     1     -13.118   2.276 -35.163  1.00  0.00     0.000 A 
HETATM   34  C   UNL     1     -11.804   2.715 -35.026  1.00  0.00     0.002 A 
HETATM   35  C   UNL     1     -10.916   2.012 -34.208  1.00  0.00     0.030 A 
ENDBRANCH  28  30
ENDBRANCH   3  28
BRANCH   5  36
HETATM   36  N   UNL     1      -6.181  -0.944 -34.260  1.00  0.00    -0.187 N 
HETATM   37  H   UNL     1      -6.175  -0.459 -35.147  1.00  0.00     0.184 HD
BRANCH  36  38
HETATM   38  C   UNL     1      -5.758  -2.281 -34.305  1.00  0.00     0.049 A 
HETATM   39  C   UNL     1      -4.464  -2.701 -33.975  1.00  0.00     0.030 A 
HETATM   40  C   UNL     1      -4.087  -4.045 -34.073  1.00  0.00     0.002 A 
HETATM   41  C   UNL     1      -4.997  -4.993 -34.529  1.00  0.00     0.000 A 
HETATM   42  C   UNL     1      -6.281  -4.596 -34.887  1.00  0.00     0.002 A 
HETATM   43  C   UNL     1      -6.654  -3.252 -34.781  1.00  0.00     0.030 A 
ENDBRANCH  36  38
ENDBRANCH   5  36
TORSDOF 8
ENDMDL
MODEL 6
REMARK VINA RESULT:     -10.2      3.047     10.217
REMARK  8 active torsions:
REMARK  status: ('A' for Active; 'I' for Inactive)
REMARK    1  A    between atoms: C_6  and  N_7 
REMARK       I    between atoms: N_7  and  C_8 
REMARK    2  A    between atoms: C_8  and  C_9 
REMARK    3  A    between atoms: C_9  and  N_10 
REMARK    4  A    between atoms: N_14  and  C_15 
REMARK    5  A    between atoms: C_17  and  N_18 
REMARK    6  A    between atoms: N_18  and  C_19 
REMARK    7  A    between atoms: C_26  and  N_27 
REMARK    8  A    between atoms: N_27  and  C_28 
ROOT
HETATM    1  C   UNL     1      -7.940   3.226 -32.871  1.00  0.00     0.756 A 
HETATM    2  N   UNL     1      -7.361   2.095 -32.508  1.00  0.00     0.131 NA
HETATM    3  C   UNL     1      -8.000   0.979 -32.850  1.00  0.00     0.758 A 
HETATM    4  N   UNL     1      -9.140   0.956 -33.531  1.00  0.00     0.131 NA
HETATM    5  C   UNL     1      -9.659   2.135 -33.845  1.00  0.00     0.758 A 
HETATM    6  N   UNL     1      -9.105   3.285 -33.490  1.00  0.00     0.131 NA
ENDROOT
BRANCH   1   7
HETATM    7  N   UNL     1      -7.305   4.439 -32.623  1.00  0.00    -0.210 N 
HETATM    8  C   UNL     1      -6.735   5.130 -33.787  1.00  0.00     0.169 C 
HETATM    9  C   UNL     1      -5.252   4.779 -34.011  1.00  0.00     0.256 C 
HETATM   10  N   UNL     1      -4.487   4.996 -32.698  1.00  0.00    -0.060 N 
HETATM   11  H   UNL     1      -4.723   5.945 -32.383  1.00  0.00     0.280 HD
HETATM   12  C   UNL     1      -5.048   4.055 -31.631  1.00  0.00     0.256 C 
HETATM   13  C   UNL     1      -6.529   4.431 -31.374  1.00  0.00     0.169 C 
BRANCH  10  14
HETATM   14  C   UNL     1      -2.972   4.965 -32.834  1.00  0.00     0.337 C 
BRANCH  14  15
HETATM   15  C   UNL     1      -2.153   5.073 -31.542  1.00  0.00     0.248 C 
HETATM   16  N   UNL     1      -2.113   6.373 -31.056  1.00  0.00    -0.325 N 
HETATM   17  H   UNL     1      -2.405   7.102 -31.693  1.00  0.00     0.169 HD
HETATM   18  O   UNL     1      -1.583   4.091 -31.082  1.00  0.00    -0.271 OA
BRANCH  16  19
HETATM   19  C   UNL     1      -1.368   6.848 -29.944  1.00  0.00     0.046 A 
HETATM   20  C   UNL     1       0.023   7.048 -30.150  1.00  0.00    -0.034 A 
HETATM   21  C   UNL     1       0.838   7.457 -29.080  1.00  0.00     0.015 A 
HETATM   22  C   UNL     1       0.699   6.808 -31.477  1.00  0.00     0.050 C 
HETATM   23  C   UNL     1       0.303   7.695 -27.817  1.00  0.00    -0.061 A 
HETATM   24  C   UNL     1       1.187   8.078 -26.667  1.00  0.00     0.048 C 
HETATM   25  C   UNL     1      -1.072   7.539 -27.632  1.00  0.00     0.015 A 
HETATM   26  C   UNL     1      -1.926   7.159 -28.688  1.00  0.00    -0.034 A 
HETATM   27  C   UNL     1      -3.399   7.185 -28.381  1.00  0.00     0.050 C 
ENDBRANCH  16  19
ENDBRANCH  14  15
ENDBRANCH  10  14
ENDBRANCH   1   7
BRANCH   3  28
HETATM   28  N   UNL     1      -7.454  -0.268 -32.557  1.00  0.00    -0.187 N 
HETATM   29  H   UNL     1      -7.573  -0.482 -31.576  1.00  0.00     0.184 HD
BRANCH  28  30
HETATM   30  C   UNL     1      -6.532  -1.073 -33.238  1.00  0.00     0.049 A 
HETATM   31  C   UNL     1      -6.890  -1.955 -34.263  1.00  0.00     0.030 A 
HETATM   32  C   UNL     1      -5.932  -2.759 -34.892  1.00  0.00     0.002 A 
HETATM   33  C   UNL     1      -4.602  -2.707 -34.484  1.00  0.00     0.000 A 
HETATM   34  C   UNL     1      -4.230  -1.852 -33.450  1.00  0.00     0.002 A 
HETATM   35  C   UNL     1      -5.189  -1.045 -32.833  1.00  0.00     0.030 A 
ENDBRANCH  28  30
ENDBRANCH   3  28
BRANCH   5  36
HETATM   36  N   UNL     1     -10.859   2.108 -34.553  1.00  0.00    -0.187 N 
HETATM   37  H   UNL     1     -10.736   2.536 -35.461  1.00  0.00     0.184 HD
BRANCH  36  38
HETATM   38  C   UNL     1     -12.190   1.956 -34.136  1.00  0.00     0.049 A 
HETATM   39  C   UNL     1     -12.794   2.749 -33.153  1.00  0.00     0.030 A 
HETATM   40  C   UNL     1     -14.116   2.529 -32.752  1.00  0.00     0.002 A 
HETATM   41  C   UNL     1     -14.852   1.490 -33.313  1.00  0.00     0.000 A 
HETATM   42  C   UNL     1     -14.265   0.673 -34.273  1.00  0.00     0.002 A 
HETATM   43  C   UNL     1     -12.945   0.902 -34.675  1.00  0.00     0.030 A 
ENDBRANCH  36  38
ENDBRANCH   5  36
TORSDOF 8
ENDMDL
MODEL 7
REMARK VINA RESULT:     -10.2      3.345      9.729
REMARK  8 active torsions:
REMARK  status: ('A' for Active; 'I' for Inactive)
REMARK    1  A    between atoms: C_6  and  N_7 
REMARK       I    between atoms: N_7  and  C_8 
REMARK    2  A    between atoms: C_8  and  C_9 
REMARK    3  A    between atoms: C_9  and  N_10 
REMARK    4  A    between atoms: N_14  and  C_15 
REMARK    5  A    between atoms: C_17  and  N_18 
REMARK    6  A    between atoms: N_18  and  C_19 
REMARK    7  A    between atoms: C_26  and  N_27 
REMARK    8  A    between atoms: N_27  and  C_28 
ROOT
HETATM    1  C   UNL     1      -7.416   3.387 -31.104  1.00  0.00     0.756 A 
HETATM    2  N   UNL     1      -8.679   3.505 -31.473  1.00  0.00     0.131 NA
HETATM    3  C   UNL     1      -9.270   2.388 -31.890  1.00  0.00     0.758 A 
HETATM    4  N   UNL     1      -8.672   1.203 -31.928  1.00  0.00     0.131 NA
HETATM    5  C   UNL     1      -7.401   1.176 -31.553  1.00  0.00     0.758 A 
HETATM    6  N   UNL     1      -6.735   2.258 -31.179  1.00  0.00     0.131 NA
ENDROOT
BRANCH   1   7
HETATM    7  N   UNL     1      -6.742   4.488 -30.583  1.00  0.00    -0.210 N 
HETATM    8  C   UNL     1      -7.063   5.792 -31.175  1.00  0.00     0.169 C 
HETATM    9  C   UNL     1      -6.107   6.168 -32.324  1.00  0.00     0.256 C 
HETATM   10  N   UNL     1      -4.660   6.026 -31.830  1.00  0.00    -0.060 N 
HETATM   11  H   UNL     1      -4.604   6.557 -30.953  1.00  0.00     0.280 HD
HETATM   12  C   UNL     1      -4.403   4.567 -31.447  1.00  0.00     0.256 C 
HETATM   13  C   UNL     1      -5.336   4.197 -30.267  1.00  0.00     0.169 C 
BRANCH  10  14
HETATM   14  C   UNL     1      -3.612   6.630 -32.753  1.00  0.00     0.337 C 
BRANCH  14  15
HETATM   15  C   UNL     1      -2.486   7.438 -32.097  1.00  0.00     0.248 C 
HETATM   16  N   UNL     1      -2.202   6.991 -30.813  1.00  0.00    -0.325 N 
HETATM   17  H   UNL     1      -2.887   6.380 -30.386  1.00  0.00     0.169 HD
HETATM   18  O   UNL     1      -1.981   8.390 -32.680  1.00  0.00    -0.271 OA
BRANCH  16  19
HETATM   19  C   UNL     1      -1.294   7.570 -29.888  1.00  0.00     0.046 A 
HETATM   20  C   UNL     1       0.025   7.044 -29.878  1.00  0.00    -0.034 A 
HETATM   21  C   UNL     1       0.964   7.523 -28.947  1.00  0.00     0.015 A 
HETATM   22  C   UNL     1       0.479   5.948 -30.810  1.00  0.00     0.050 C 
HETATM   23  C   UNL     1       0.632   8.529 -28.043  1.00  0.00    -0.061 A 
HETATM   24  C   UNL     1       1.622   8.996 -27.017  1.00  0.00     0.048 C 
HETATM   25  C   UNL     1      -0.653   9.072 -28.087  1.00  0.00     0.015 A 
HETATM   26  C   UNL     1      -1.612   8.638 -29.025  1.00  0.00    -0.034 A 
HETATM   27  C   UNL     1      -2.896   9.422 -29.060  1.00  0.00     0.050 C 
ENDBRANCH  16  19
ENDBRANCH  14  15
ENDBRANCH  10  14
ENDBRANCH   1   7
BRANCH   3  28
HETATM   28  N   UNL     1     -10.614   2.391 -32.257  1.00  0.00    -0.187 N 
HETATM   29  H   UNL     1     -11.171   1.930 -31.550  1.00  0.00     0.184 HD
BRANCH  28  30
HETATM   30  C   UNL     1     -11.251   2.587 -33.489  1.00  0.00     0.049 A 
HETATM   31  C   UNL     1     -11.856   1.556 -34.215  1.00  0.00     0.030 A 
HETATM   32  C   UNL     1     -12.455   1.801 -35.455  1.00  0.00     0.002 A 
HETATM   33  C   UNL     1     -12.434   3.082 -35.998  1.00  0.00     0.000 A 
HETATM   34  C   UNL     1     -11.817   4.118 -35.302  1.00  0.00     0.002 A 
HETATM   35  C   UNL     1     -11.229   3.869 -34.059  1.00  0.00     0.030 A 
ENDBRANCH  28  30
ENDBRANCH   3  28
BRANCH   5  36
HETATM   36  N   UNL     1      -6.773  -0.067 -31.603  1.00  0.00    -0.187 N 
HETATM   37  H   UNL     1      -6.346  -0.277 -30.710  1.00  0.00     0.184 HD
BRANCH  36  38
HETATM   38  C   UNL     1      -6.329  -0.852 -32.678  1.00  0.00     0.049 A 
HETATM   39  C   UNL     1      -7.179  -1.394 -33.650  1.00  0.00     0.030 A 
HETATM   40  C   UNL     1      -6.683  -2.200 -34.681  1.00  0.00     0.002 A 
HETATM   41  C   UNL     1      -5.326  -2.497 -34.745  1.00  0.00     0.000 A 
HETATM   42  C   UNL     1      -4.467  -1.990 -33.776  1.00  0.00     0.002 A 
HETATM   43  C   UNL     1      -4.965  -1.181 -32.750  1.00  0.00     0.030 A 
ENDBRANCH  36  38
ENDBRANCH   5  36
TORSDOF 8
ENDMDL
MODEL 8
REMARK VINA RESULT:     -10.0      3.377     10.382
REMARK  8 active torsions:
REMARK  status: ('A' for Active; 'I' for Inactive)
REMARK    1  A    between atoms: C_6  and  N_7 
REMARK       I    between atoms: N_7  and  C_8 
REMARK    2  A    between atoms: C_8  and  C_9 
REMARK    3  A    between atoms: C_9  and  N_10 
REMARK    4  A    between atoms: N_14  and  C_15 
REMARK    5  A    between atoms: C_17  and  N_18 
REMARK    6  A    between atoms: N_18  and  C_19 
REMARK    7  A    between atoms: C_26  and  N_27 
REMARK    8  A    between atoms: N_27  and  C_28 
ROOT
HETATM    1  C   UNL     1      -7.424   3.146 -33.703  1.00  0.00     0.756 A 
HETATM    2  N   UNL     1      -7.006   1.970 -33.269  1.00  0.00     0.131 NA
HETATM    3  C   UNL     1      -7.881   0.971 -33.361  1.00  0.00     0.758 A 
HETATM    4  N   UNL     1      -9.101   1.100 -33.869  1.00  0.00     0.131 NA
HETATM    5  C   UNL     1      -9.445   2.316 -34.268  1.00  0.00     0.758 A 
HETATM    6  N   UNL     1      -8.645   3.366 -34.157  1.00  0.00     0.131 NA
ENDROOT
BRANCH   1   7
HETATM    7  N   UNL     1      -6.550   4.229 -33.716  1.00  0.00    -0.210 N 
HETATM    8  C   UNL     1      -5.180   3.971 -33.257  1.00  0.00     0.169 C 
HETATM    9  C   UNL     1      -4.996   4.265 -31.756  1.00  0.00     0.256 C 
HETATM   10  N   UNL     1      -5.515   5.680 -31.462  1.00  0.00    -0.060 N 
HETATM   11  H   UNL     1      -5.058   6.299 -32.141  1.00  0.00     0.280 HD
HETATM   12  C   UNL     1      -7.009   5.742 -31.785  1.00  0.00     0.256 C 
HETATM   13  C   UNL     1      -7.194   5.485 -33.302  1.00  0.00     0.169 C 
BRANCH  10  14
HETATM   14  C   UNL     1      -5.144   6.218 -30.088  1.00  0.00     0.337 C 
BRANCH  14  15
HETATM   15  C   UNL     1      -3.853   7.040 -29.986  1.00  0.00     0.248 C 
HETATM   16  N   UNL     1      -2.933   6.461 -29.123  1.00  0.00    -0.325 N 
HETATM   17  H   UNL     1      -3.283   5.738 -28.508  1.00  0.00     0.169 HD
HETATM   18  O   UNL     1      -3.742   8.102 -30.586  1.00  0.00    -0.271 OA
BRANCH  16  19
HETATM   19  C   UNL     1      -1.683   7.002 -28.718  1.00  0.00     0.046 A 
HETATM   20  C   UNL     1      -1.584   7.436 -27.370  1.00  0.00    -0.034 A 
HETATM   21  C   UNL     1      -0.400   8.040 -26.913  1.00  0.00     0.015 A 
HETATM   22  C   UNL     1      -2.719   7.316 -26.384  1.00  0.00     0.050 C 
HETATM   23  C   UNL     1       0.698   8.200 -27.755  1.00  0.00    -0.061 A 
HETATM   24  C   UNL     1       1.939   8.893 -27.276  1.00  0.00     0.048 C 
HETATM   25  C   UNL     1       0.610   7.730 -29.067  1.00  0.00     0.015 A 
HETATM   26  C   UNL     1      -0.551   7.094 -29.553  1.00  0.00    -0.034 A 
HETATM   27  C   UNL     1      -0.444   6.500 -30.931  1.00  0.00     0.050 C 
ENDBRANCH  16  19
ENDBRANCH  14  15
ENDBRANCH  10  14
ENDBRANCH   1   7
BRANCH   3  28
HETATM   28  N   UNL     1      -7.526  -0.319 -32.976  1.00  0.00    -0.187 N 
HETATM   29  H   UNL     1      -7.886  -0.521 -32.052  1.00  0.00     0.184 HD
BRANCH  28  30
HETATM   30  C   UNL     1      -6.545  -1.203 -33.443  1.00  0.00     0.049 A 
HETATM   31  C   UNL     1      -5.207  -1.150 -33.039  1.00  0.00     0.030 A 
HETATM   32  C   UNL     1      -4.260  -2.039 -33.558  1.00  0.00     0.002 A 
HETATM   33  C   UNL     1      -4.638  -2.982 -34.510  1.00  0.00     0.000 A 
HETATM   34  C   UNL     1      -5.961  -3.037 -34.941  1.00  0.00     0.002 A 
HETATM   35  C   UNL     1      -6.903  -2.152 -34.412  1.00  0.00     0.030 A 
ENDBRANCH  28  30
ENDBRANCH   3  28
BRANCH   5  36
HETATM   36  N   UNL     1     -10.729   2.449 -34.794  1.00  0.00    -0.187 N 
HETATM   37  H   UNL     1     -10.736   3.150 -35.522  1.00  0.00     0.184 HD
BRANCH  36  38
HETATM   38  C   UNL     1     -11.990   2.098 -34.288  1.00  0.00     0.049 A 
HETATM   39  C   UNL     1     -12.776   1.061 -34.804  1.00  0.00     0.030 A 
HETATM   40  C   UNL     1     -14.043   0.779 -34.282  1.00  0.00     0.002 A 
HETATM   41  C   UNL     1     -14.558   1.550 -33.245  1.00  0.00     0.000 A 
HETATM   42  C   UNL     1     -13.806   2.602 -32.733  1.00  0.00     0.002 A 
HETATM   43  C   UNL     1     -12.537   2.875 -33.254  1.00  0.00     0.030 A 
ENDBRANCH  36  38
ENDBRANCH   5  36
TORSDOF 8
ENDMDL
MODEL 9
REMARK VINA RESULT:      -9.9      3.872      9.541
REMARK  8 active torsions:
REMARK  status: ('A' for Active; 'I' for Inactive)
REMARK    1  A    between atoms: C_6  and  N_7 
REMARK       I    between atoms: N_7  and  C_8 
REMARK    2  A    between atoms: C_8  and  C_9 
REMARK    3  A    between atoms: C_9  and  N_10 
REMARK    4  A    between atoms: N_14  and  C_15 
REMARK    5  A    between atoms: C_17  and  N_18 
REMARK    6  A    between atoms: N_18  and  C_19 
REMARK    7  A    between atoms: C_26  and  N_27 
REMARK    8  A    between atoms: N_27  and  C_28 
ROOT
HETATM    1  C   UNL     1      -6.190   1.367 -31.739  1.00  0.00     0.756 A 
HETATM    2  N   UNL     1      -7.479   1.613 -31.590  1.00  0.00     0.131 NA
HETATM    3  C   UNL     1      -8.290   1.021 -32.464  1.00  0.00     0.758 A 
HETATM    4  N   UNL     1      -7.872   0.208 -33.428  1.00  0.00     0.131 NA
HETATM    5  C   UNL     1      -6.562   0.026 -33.515  1.00  0.00     0.758 A 
HETATM    6  N   UNL     1      -5.695   0.626 -32.714  1.00  0.00     0.131 NA
ENDROOT
BRANCH   1   7
HETATM    7  N   UNL     1      -5.277   1.884 -30.824  1.00  0.00    -0.210 N 
HETATM    8  C   UNL     1      -5.796   2.869 -29.867  1.00  0.00     0.169 C 
HETATM    9  C   UNL     1      -5.619   4.318 -30.359  1.00  0.00     0.256 C 
HETATM   10  N   UNL     1      -4.152   4.527 -30.765  1.00  0.00    -0.060 N 
HETATM   11  H   UNL     1      -3.588   4.209 -29.969  1.00  0.00     0.280 HD
HETATM   12  C   UNL     1      -3.813   3.582 -31.918  1.00  0.00     0.256 C 
HETATM   13  C   UNL     1      -3.952   2.123 -31.415  1.00  0.00     0.169 C 
BRANCH  10  14
HETATM   14  C   UNL     1      -3.762   5.979 -31.002  1.00  0.00     0.337 C 
BRANCH  14  15
HETATM   15  C   UNL     1      -2.689   6.572 -30.080  1.00  0.00     0.248 C 
HETATM   16  N   UNL     1      -3.198   7.568 -29.259  1.00  0.00    -0.325 N 
HETATM   17  H   UNL     1      -4.105   7.940 -29.510  1.00  0.00     0.169 HD
HETATM   18  O   UNL     1      -1.525   6.195 -30.157  1.00  0.00    -0.271 OA
BRANCH  16  19
HETATM   19  C   UNL     1      -2.468   8.393 -28.362  1.00  0.00     0.046 A 
HETATM   20  C   UNL     1      -2.133   9.693 -28.824  1.00  0.00    -0.034 A 
HETATM   21  C   UNL     1      -1.358  10.545 -28.018  1.00  0.00     0.015 A 
HETATM   22  C   UNL     1      -2.542  10.213 -30.180  1.00  0.00     0.050 C 
HETATM   23  C   UNL     1      -0.929  10.148 -26.754  1.00  0.00    -0.061 A 
HETATM   24  C   UNL     1      -0.057  11.041 -25.923  1.00  0.00     0.048 C 
HETATM   25  C   UNL     1      -1.300   8.885 -26.289  1.00  0.00     0.015 A 
HETATM   26  C   UNL     1      -2.100   8.014 -27.056  1.00  0.00    -0.034 A 
HETATM   27  C   UNL     1      -2.551   6.756 -26.363  1.00  0.00     0.050 C 
ENDBRANCH  16  19
ENDBRANCH  14  15
ENDBRANCH  10  14
ENDBRANCH   1   7
BRANCH   3  28
HETATM   28  N   UNL     1      -9.670   1.175 -32.369  1.00  0.00    -0.187 N 
HETATM   29  H   UNL     1     -10.022   0.691 -31.554  1.00  0.00     0.184 HD
BRANCH  28  30
HETATM   30  C   UNL     1     -10.641   1.553 -33.305  1.00  0.00     0.049 A 
HETATM   31  C   UNL     1     -11.755   0.768 -33.618  1.00  0.00     0.030 A 
HETATM   32  C   UNL     1     -12.681   1.180 -34.583  1.00  0.00     0.002 A 
HETATM   33  C   UNL     1     -12.489   2.377 -35.267  1.00  0.00     0.000 A 
HETATM   34  C   UNL     1     -11.374   3.162 -34.986  1.00  0.00     0.002 A 
HETATM   35  C   UNL     1     -10.458   2.750 -34.015  1.00  0.00     0.030 A 
ENDBRANCH  28  30
ENDBRANCH   3  28
BRANCH   5  36
HETATM   36  N   UNL     1      -6.127  -0.821 -34.532  1.00  0.00    -0.187 N 
HETATM   37  H   UNL     1      -6.347  -0.423 -35.435  1.00  0.00     0.184 HD
BRANCH  36  38
HETATM   38  C   UNL     1      -5.808  -2.188 -34.543  1.00  0.00     0.049 A 
HETATM   39  C   UNL     1      -6.732  -3.202 -34.822  1.00  0.00     0.030 A 
HETATM   40  C   UNL     1      -6.366  -4.551 -34.782  1.00  0.00     0.002 A 
HETATM   41  C   UNL     1      -5.068  -4.913 -34.437  1.00  0.00     0.000 A 
HETATM   42  C   UNL     1      -4.139  -3.924 -34.130  1.00  0.00     0.002 A 
HETATM   43  C   UNL     1      -4.509  -2.576 -34.178  1.00  0.00     0.030 A 
ENDBRANCH  36  38
ENDBRANCH   5  36
TORSDOF 8
ENDMDL
MODEL 10
REMARK VINA RESULT:      -9.7      3.797      9.987
REMARK  8 active torsions:
REMARK  status: ('A' for Active; 'I' for Inactive)
REMARK    1  A    between atoms: C_6  and  N_7 
REMARK       I    between atoms: N_7  and  C_8 
REMARK    2  A    between atoms: C_8  and  C_9 
REMARK    3  A    between atoms: C_9  and  N_10 
REMARK    4  A    between atoms: N_14  and  C_15 
REMARK    5  A    between atoms: C_17  and  N_18 
REMARK    6  A    between atoms: N_18  and  C_19 
REMARK    7  A    between atoms: C_26  and  N_27 
REMARK    8  A    between atoms: N_27  and  C_28 
ROOT
HETATM    1  C   UNL     1      -6.002   3.224 -33.114  1.00  0.00     0.756 A 
HETATM    2  N   UNL     1      -7.250   3.656 -33.155  1.00  0.00     0.131 NA
HETATM    3  C   UNL     1      -8.191   2.736 -32.959  1.00  0.00     0.758 A 
HETATM    4  N   UNL     1      -7.936   1.456 -32.712  1.00  0.00     0.131 NA
HETATM    5  C   UNL     1      -6.659   1.104 -32.702  1.00  0.00     0.758 A 
HETATM    6  N   UNL     1      -5.673   1.956 -32.943  1.00  0.00     0.131 NA
ENDROOT
BRANCH   1   7
HETATM    7  N   UNL     1      -4.952   4.129 -33.233  1.00  0.00    -0.210 N 
HETATM    8  C   UNL     1      -3.904   4.056 -32.207  1.00  0.00     0.169 C 
HETATM    9  C   UNL     1      -4.163   5.019 -31.032  1.00  0.00     0.256 C 
HETATM   10  N   UNL     1      -4.415   6.426 -31.593  1.00  0.00    -0.060 N 
HETATM   11  H   UNL     1      -3.632   6.626 -32.226  1.00  0.00     0.280 HD
HETATM   12  C   UNL     1      -5.664   6.397 -32.475  1.00  0.00     0.256 C 
HETATM   13  C   UNL     1      -5.394   5.459 -33.678  1.00  0.00     0.169 C 
BRANCH  10  14
HETATM   14  C   UNL     1      -4.404   7.534 -30.550  1.00  0.00     0.337 C 
BRANCH  14  15
HETATM   15  C   UNL     1      -3.035   8.078 -30.124  1.00  0.00     0.248 C 
HETATM   16  N   UNL     1      -2.471   7.330 -29.100  1.00  0.00    -0.325 N 
HETATM   17  H   UNL     1      -3.089   6.695 -28.612  1.00  0.00     0.169 HD
HETATM   18  O   UNL     1      -2.582   9.094 -30.638  1.00  0.00    -0.271 OA
BRANCH  16  19
HETATM   19  C   UNL     1      -1.266   7.609 -28.401  1.00  0.00     0.046 A 
HETATM   20  C   UNL     1      -1.392   7.949 -27.028  1.00  0.00    -0.034 A 
HETATM   21  C   UNL     1      -0.251   8.299 -26.286  1.00  0.00     0.015 A 
HETATM   22  C   UNL     1      -2.719   7.992 -26.312  1.00  0.00     0.050 C 
HETATM   23  C   UNL     1       1.015   8.295 -26.866  1.00  0.00    -0.061 A 
HETATM   24  C   UNL     1       2.221   8.722 -26.083  1.00  0.00     0.048 C 
HETATM   25  C   UNL     1       1.136   7.917 -28.205  1.00  0.00     0.015 A 
HETATM   26  C   UNL     1       0.019   7.531 -28.973  1.00  0.00    -0.034 A 
HETATM   27  C   UNL     1       0.321   6.998 -30.348  1.00  0.00     0.050 C 
ENDBRANCH  16  19
ENDBRANCH  14  15
ENDBRANCH  10  14
ENDBRANCH   1   7
BRANCH   3  28
HETATM   28  N   UNL     1      -9.537   3.093 -32.934  1.00  0.00    -0.187 N 
HETATM   29  H   UNL     1      -9.788   3.453 -32.023  1.00  0.00     0.184 HD
BRANCH  28  30
HETATM   30  C   UNL     1     -10.615   2.752 -33.761  1.00  0.00     0.049 A 
HETATM   31  C   UNL     1     -11.339   1.562 -33.628  1.00  0.00     0.030 A 
HETATM   32  C   UNL     1     -12.390   1.256 -34.500  1.00  0.00     0.002 A 
HETATM   33  C   UNL     1     -12.715   2.129 -35.534  1.00  0.00     0.000 A 
HETATM   34  C   UNL     1     -11.992   3.307 -35.696  1.00  0.00     0.002 A 
HETATM   35  C   UNL     1     -10.950   3.612 -34.817  1.00  0.00     0.030 A 
ENDBRANCH  28  30
ENDBRANCH   3  28
BRANCH   5  36
HETATM   36  N   UNL     1      -6.395  -0.241 -32.451  1.00  0.00    -0.187 N 
HETATM   37  H   UNL     1      -6.161  -0.374 -31.476  1.00  0.00     0.184 HD
BRANCH  36  38
HETATM   38  C   UNL     1      -6.047  -1.302 -33.301  1.00  0.00     0.049 A 
HETATM   39  C   UNL     1      -4.729  -1.709 -33.541  1.00  0.00     0.030 A 
HETATM   40  C   UNL     1      -4.440  -2.752 -34.427  1.00  0.00     0.002 A 
HETATM   41  C   UNL     1      -5.468  -3.393 -35.110  1.00  0.00     0.000 A 
HETATM   42  C   UNL     1      -6.783  -2.989 -34.907  1.00  0.00     0.002 A 
HETATM   43  C   UNL     1      -7.068  -1.950 -34.016  1.00  0.00     0.030 A 
ENDBRANCH  36  38
ENDBRANCH   5  36
TORSDOF 8
ENDMDL
