MODEL 1
REMARK VINA RESULT:      -8.4      0.000      0.000
REMARK  4 active torsions:
REMARK  status: ('A' for Active; 'I' for Inactive)
REMARK    1  A    between atoms: C_2  and  N_3 
REMARK    2  A    between atoms: C_11  and  N_12 
REMARK    3  A    between atoms: N_12  and  C_15 
REMARK    4  A    between atoms: C_15  and  C_16 
ROOT
HETATM    1  N   UNL     1      -4.256   3.994 -30.936  1.00  0.00    -0.067 N 
HETATM    2  H   UNL     1      -3.383   3.872 -30.400  1.00  0.00     0.280 HD
HETATM    3  C   UNL     1      -5.321   3.289 -30.115  1.00  0.00     0.238 C 
HETATM    4  C   UNL     1      -6.634   3.221 -30.891  1.00  0.00     0.066 C 
HETATM    5  C   UNL     1      -6.475   2.495 -32.247  1.00  0.00     0.073 C 
HETATM    6  O   UNL     1      -6.118   1.143 -31.919  1.00  0.00    -0.339 OA
HETATM    7  C   UNL     1      -6.225   0.215 -32.916  1.00  0.00     0.078 A 
HETATM    8  C   UNL     1      -6.987   0.400 -34.076  1.00  0.00     0.006 A 
HETATM    9  C   UNL     1      -7.807   1.650 -34.261  1.00  0.00     0.224 C 
HETATM   10  C   UNL     1      -7.829   2.499 -32.981  1.00  0.00     0.076 C 
HETATM   11  C   UNL     1      -5.509  -0.965 -32.711  1.00  0.00     0.037 A 
HETATM   12  C   UNL     1      -5.499  -1.955 -33.690  1.00  0.00     0.003 A 
HETATM   13  C   UNL     1      -6.199  -1.762 -34.875  1.00  0.00     0.001 A 
HETATM   14  C   UNL     1      -6.934  -0.592 -35.073  1.00  0.00     0.012 A 
HETATM   15  C   UNL     1      -5.330   3.164 -33.040  1.00  0.00     0.066 C 
HETATM   16  C   UNL     1      -4.038   3.227 -32.225  1.00  0.00     0.238 C 
ENDROOT
BRANCH   9  17
HETATM   17  N   UNL     1      -9.222   1.331 -34.661  1.00  0.00    -0.063 N 
HETATM   18  H   UNL     1      -9.612   2.117 -35.198  1.00  0.00     0.278 HD
HETATM   19  H   UNL     1      -9.232   0.550 -35.332  1.00  0.00     0.278 HD
BRANCH  17  20
HETATM   20  C   UNL     1     -10.201   1.048 -33.572  1.00  0.00     0.274 C 
BRANCH  20  21
HETATM   21  C   UNL     1     -11.583   1.176 -34.076  1.00  0.00     0.004 A 
HETATM   22  C   UNL     1     -12.731   0.539 -33.638  1.00  0.00     0.122 A 
HETATM   23  N   UNL     1     -13.753   1.005 -34.423  1.00  0.00    -0.285 N 
HETATM   24  C   UNL     1     -15.156   0.666 -34.341  1.00  0.00     0.179 C 
HETATM   25  N   UNL     1     -13.334   1.873 -35.356  1.00  0.00    -0.185 NA
HETATM   26  C   UNL     1     -12.030   2.002 -35.132  1.00  0.00     0.149 A 
ENDBRANCH  20  21
ENDBRANCH  17  20
ENDBRANCH   9  17
BRANCH   1  27
HETATM   27  C   UNL     1      -4.414   5.521 -31.070  1.00  0.00     0.180 C 
HETATM   28  C   UNL     1      -3.198   6.118 -31.780  1.00  0.00     0.039 C 
HETATM   29  C   UNL     1      -4.549   6.160 -29.686  1.00  0.00     0.039 C 
ENDBRANCH   1  27
TORSDOF 4
ENDMDL
MODEL 2
REMARK VINA RESULT:      -8.2      2.443      5.135
REMARK  4 active torsions:
REMARK  status: ('A' for Active; 'I' for Inactive)
REMARK    1  A    between atoms: C_2  and  N_3 
REMARK    2  A    between atoms: C_11  and  N_12 
REMARK    3  A    between atoms: N_12  and  C_15 
REMARK    4  A    between atoms: C_15  and  C_16 
ROOT
HETATM    1  N   UNL     1      -4.057  -2.166 -33.735  1.00  0.00    -0.067 N 
HETATM    2  H   UNL     1      -3.123  -2.132 -34.172  1.00  0.00     0.280 HD
HETATM    3  C   UNL     1      -5.035  -2.046 -34.890  1.00  0.00     0.238 C 
HETATM    4  C   UNL     1      -6.460  -1.884 -34.367  1.00  0.00     0.066 C 
HETATM    5  C   UNL     1      -6.608  -0.651 -33.446  1.00  0.00     0.073 C 
HETATM    6  O   UNL     1      -6.343   0.486 -34.282  1.00  0.00    -0.339 OA
HETATM    7  C   UNL     1      -6.713   1.710 -33.799  1.00  0.00     0.078 A 
HETATM    8  C   UNL     1      -7.637   1.892 -32.763  1.00  0.00     0.006 A 
HETATM    9  C   UNL     1      -8.342   0.712 -32.150  1.00  0.00     0.224 C 
HETATM   10  C   UNL     1      -8.059  -0.578 -32.935  1.00  0.00     0.076 C 
HETATM   11  C   UNL     1      -6.099   2.802 -34.411  1.00  0.00     0.037 A 
HETATM   12  C   UNL     1      -6.356   4.093 -33.959  1.00  0.00     0.003 A 
HETATM   13  C   UNL     1      -7.224   4.291 -32.890  1.00  0.00     0.001 A 
HETATM   14  C   UNL     1      -7.856   3.200 -32.290  1.00  0.00     0.012 A 
HETATM   15  C   UNL     1      -5.551  -0.737 -32.323  1.00  0.00     0.066 C 
HETATM   16  C   UNL     1      -4.140  -0.914 -32.885  1.00  0.00     0.238 C 
ENDROOT
BRANCH   9  17
HETATM   17  N   UNL     1      -9.830   0.928 -32.083  1.00  0.00    -0.063 N 
HETATM   18  H   UNL     1     -10.167   0.695 -31.140  1.00  0.00     0.278 HD
HETATM   19  H   UNL     1     -10.046   1.930 -32.179  1.00  0.00     0.278 HD
BRANCH  17  20
HETATM   20  C   UNL     1     -10.683   0.154 -33.030  1.00  0.00     0.274 C 
BRANCH  20  21
HETATM   21  C   UNL     1     -11.506   1.068 -33.847  1.00  0.00     0.004 A 
HETATM   22  C   UNL     1     -11.192   2.328 -34.326  1.00  0.00     0.122 A 
HETATM   23  N   UNL     1     -12.284   2.753 -35.035  1.00  0.00    -0.285 N 
HETATM   24  C   UNL     1     -12.440   3.996 -35.757  1.00  0.00     0.179 C 
HETATM   25  N   UNL     1     -13.291   1.867 -35.017  1.00  0.00    -0.185 NA
HETATM   26  C   UNL     1     -12.815   0.836 -34.326  1.00  0.00     0.149 A 
ENDBRANCH  20  21
ENDBRANCH  17  20
ENDBRANCH   9  17
BRANCH   1  27
HETATM   27  C   UNL     1      -4.075  -3.506 -32.976  1.00  0.00     0.180 C 
HETATM   28  C   UNL     1      -3.009  -3.508 -31.879  1.00  0.00     0.039 C 
HETATM   29  C   UNL     1      -3.803  -4.662 -33.941  1.00  0.00     0.039 C 
ENDBRANCH   1  27
TORSDOF 4
ENDMDL
MODEL 3
REMARK VINA RESULT:      -8.0      3.309      6.395
REMARK  4 active torsions:
REMARK  status: ('A' for Active; 'I' for Inactive)
REMARK    1  A    between atoms: C_2  and  N_3 
REMARK    2  A    between atoms: C_11  and  N_12 
REMARK    3  A    between atoms: N_12  and  C_15 
REMARK    4  A    between atoms: C_15  and  C_16 
ROOT
HETATM    1  N   UNL     1     -10.492   4.119 -33.106  1.00  0.00    -0.067 N 
HETATM    2  H   UNL     1     -10.893   4.676 -32.336  1.00  0.00     0.280 HD
HETATM    3  C   UNL     1     -11.036   2.717 -32.901  1.00  0.00     0.238 C 
HETATM    4  C   UNL     1     -10.362   1.738 -33.860  1.00  0.00     0.066 C 
HETATM    5  C   UNL     1      -8.826   1.716 -33.690  1.00  0.00     0.073 C 
HETATM    6  O   UNL     1      -8.594   1.219 -32.363  1.00  0.00    -0.339 OA
HETATM    7  C   UNL     1      -7.325   0.805 -32.069  1.00  0.00     0.078 A 
HETATM    8  C   UNL     1      -6.366   0.485 -33.037  1.00  0.00     0.006 A 
HETATM    9  C   UNL     1      -6.715   0.520 -34.502  1.00  0.00     0.224 C 
HETATM   10  C   UNL     1      -8.221   0.735 -34.712  1.00  0.00     0.076 C 
HETATM   11  C   UNL     1      -7.026   0.719 -30.710  1.00  0.00     0.037 A 
HETATM   12  C   UNL     1      -5.745   0.364 -30.297  1.00  0.00     0.003 A 
HETATM   13  C   UNL     1      -4.761   0.103 -31.244  1.00  0.00     0.001 A 
HETATM   14  C   UNL     1      -5.064   0.167 -32.605  1.00  0.00     0.012 A 
HETATM   15  C   UNL     1      -8.289   3.159 -33.813  1.00  0.00     0.066 C 
HETATM   16  C   UNL     1      -8.997   4.112 -32.849  1.00  0.00     0.238 C 
ENDROOT
BRANCH   9  17
HETATM   17  N   UNL     1      -6.298  -0.745 -35.202  1.00  0.00    -0.063 N 
HETATM   18  H   UNL     1      -6.353  -0.606 -36.220  1.00  0.00     0.278 HD
HETATM   19  H   UNL     1      -5.299  -0.929 -35.035  1.00  0.00     0.278 HD
BRANCH  17  20
HETATM   20  C   UNL     1      -7.075  -1.984 -34.911  1.00  0.00     0.274 C 
BRANCH  20  21
HETATM   21  C   UNL     1      -6.165  -3.131 -34.722  1.00  0.00     0.004 A 
HETATM   22  C   UNL     1      -4.891  -3.151 -34.181  1.00  0.00     0.122 A 
HETATM   23  N   UNL     1      -4.477  -4.456 -34.222  1.00  0.00    -0.285 N 
HETATM   24  C   UNL     1      -3.226  -5.002 -33.744  1.00  0.00     0.179 C 
HETATM   25  N   UNL     1      -5.383  -5.270 -34.783  1.00  0.00    -0.185 NA
HETATM   26  C   UNL     1      -6.416  -4.481 -35.059  1.00  0.00     0.149 A 
ENDBRANCH  20  21
ENDBRANCH  17  20
ENDBRANCH   9  17
BRANCH   1  27
HETATM   27  C   UNL     1     -10.959   4.840 -34.385  1.00  0.00     0.180 C 
HETATM   28  C   UNL     1     -10.407   6.266 -34.420  1.00  0.00     0.039 C 
HETATM   29  C   UNL     1     -12.487   4.892 -34.432  1.00  0.00     0.039 C 
ENDBRANCH   1  27
TORSDOF 4
ENDMDL
MODEL 4
REMARK VINA RESULT:      -7.9      1.938      7.287
REMARK  4 active torsions:
REMARK  status: ('A' for Active; 'I' for Inactive)
REMARK    1  A    between atoms: C_2  and  N_3 
REMARK    2  A    between atoms: C_11  and  N_12 
REMARK    3  A    between atoms: N_12  and  C_15 
REMARK    4  A    between atoms: C_15  and  C_16 
ROOT
HETATM    1  N   UNL     1     -11.842   2.521 -34.177  1.00  0.00    -0.067 N 
HETATM    2  H   UNL     1     -12.521   2.179 -34.875  1.00  0.00     0.280 HD
HETATM    3  C   UNL     1     -10.798   3.274 -34.982  1.00  0.00     0.238 C 
HETATM    4  C   UNL     1      -9.621   3.667 -34.093  1.00  0.00     0.066 C 
HETATM    5  C   UNL     1      -8.958   2.441 -33.424  1.00  0.00     0.073 C 
HETATM    6  O   UNL     1      -8.419   1.660 -34.502  1.00  0.00    -0.339 OA
HETATM    7  C   UNL     1      -7.513   0.691 -34.172  1.00  0.00     0.078 A 
HETATM    8  C   UNL     1      -6.813   0.658 -32.961  1.00  0.00     0.006 A 
HETATM    9  C   UNL     1      -6.982   1.760 -31.948  1.00  0.00     0.224 C 
HETATM   10  C   UNL     1      -7.807   2.923 -32.521  1.00  0.00     0.076 C 
HETATM   11  C   UNL     1      -7.319  -0.295 -35.139  1.00  0.00     0.037 A 
HETATM   12  C   UNL     1      -6.463  -1.363 -34.885  1.00  0.00     0.003 A 
HETATM   13  C   UNL     1      -5.806  -1.447 -33.662  1.00  0.00     0.001 A 
HETATM   14  C   UNL     1      -5.983  -0.449 -32.702  1.00  0.00     0.012 A 
HETATM   15  C   UNL     1     -10.043   1.632 -32.679  1.00  0.00     0.066 C 
HETATM   16  C   UNL     1     -11.211   1.270 -33.597  1.00  0.00     0.238 C 
ENDROOT
BRANCH   9  17
HETATM   17  N   UNL     1      -5.654   2.288 -31.477  1.00  0.00    -0.063 N 
HETATM   18  H   UNL     1      -5.515   2.032 -30.490  1.00  0.00     0.278 HD
HETATM   19  H   UNL     1      -4.888   1.805 -31.965  1.00  0.00     0.278 HD
BRANCH  17  20
HETATM   20  C   UNL     1      -5.428   3.760 -31.558  1.00  0.00     0.274 C 
BRANCH  20  21
HETATM   21  C   UNL     1      -4.132   4.047 -32.204  1.00  0.00     0.004 A 
HETATM   22  C   UNL     1      -3.882   4.538 -33.474  1.00  0.00     0.122 A 
HETATM   23  N   UNL     1      -2.520   4.635 -33.588  1.00  0.00    -0.285 N 
HETATM   24  C   UNL     1      -1.761   5.125 -34.716  1.00  0.00     0.179 C 
HETATM   25  N   UNL     1      -1.877   4.209 -32.491  1.00  0.00    -0.185 NA
HETATM   26  C   UNL     1      -2.845   3.881 -31.641  1.00  0.00     0.149 A 
ENDBRANCH  20  21
ENDBRANCH  17  20
ENDBRANCH   9  17
BRANCH   1  27
HETATM   27  C   UNL     1     -12.683   3.371 -33.207  1.00  0.00     0.180 C 
HETATM   28  C   UNL     1     -13.900   2.577 -32.726  1.00  0.00     0.039 C 
HETATM   29  C   UNL     1     -13.161   4.647 -33.903  1.00  0.00     0.039 C 
ENDBRANCH   1  27
TORSDOF 4
ENDMDL
MODEL 5
REMARK VINA RESULT:      -7.7      3.331      8.622
REMARK  4 active torsions:
REMARK  status: ('A' for Active; 'I' for Inactive)
REMARK    1  A    between atoms: C_2  and  N_3 
REMARK    2  A    between atoms: C_11  and  N_12 
REMARK    3  A    between atoms: N_12  and  C_15 
REMARK    4  A    between atoms: C_15  and  C_16 
ROOT
HETATM    1  N   UNL     1      -7.051  -0.022 -33.013  1.00  0.00    -0.067 N 
HETATM    2  H   UNL     1      -8.010  -0.395 -32.935  1.00  0.00     0.280 HD
HETATM    3  C   UNL     1      -6.368  -0.420 -31.717  1.00  0.00     0.238 C 
HETATM    4  C   UNL     1      -4.996   0.240 -31.612  1.00  0.00     0.066 C 
HETATM    5  C   UNL     1      -5.082   1.782 -31.688  1.00  0.00     0.073 C 
HETATM    6  O   UNL     1      -5.822   2.183 -30.525  1.00  0.00    -0.339 OA
HETATM    7  C   UNL     1      -5.772   3.505 -30.184  1.00  0.00     0.078 A 
HETATM    8  C   UNL     1      -4.788   4.391 -30.639  1.00  0.00     0.006 A 
HETATM    9  C   UNL     1      -3.660   3.901 -31.507  1.00  0.00     0.224 C 
HETATM   10  C   UNL     1      -3.659   2.369 -31.611  1.00  0.00     0.076 C 
HETATM   11  C   UNL     1      -6.788   3.939 -29.332  1.00  0.00     0.037 A 
HETATM   12  C   UNL     1      -6.869   5.281 -28.967  1.00  0.00     0.003 A 
HETATM   13  C   UNL     1      -5.937   6.188 -29.459  1.00  0.00     0.001 A 
HETATM   14  C   UNL     1      -4.906   5.751 -30.294  1.00  0.00     0.012 A 
HETATM   15  C   UNL     1      -5.854   2.177 -32.966  1.00  0.00     0.066 C 
HETATM   16  C   UNL     1      -7.215   1.485 -33.043  1.00  0.00     0.238 C 
ENDROOT
BRANCH   9  17
HETATM   17  N   UNL     1      -2.323   4.357 -30.988  1.00  0.00    -0.063 N 
HETATM   18  H   UNL     1      -2.463   5.020 -30.215  1.00  0.00     0.278 HD
HETATM   19  H   UNL     1      -1.827   3.569 -30.547  1.00  0.00     0.278 HD
BRANCH  17  20
HETATM   20  C   UNL     1      -1.402   5.031 -31.949  1.00  0.00     0.274 C 
BRANCH  20  21
HETATM   21  C   UNL     1      -1.618   6.491 -31.932  1.00  0.00     0.004 A 
HETATM   22  C   UNL     1      -1.941   7.311 -30.865  1.00  0.00     0.122 A 
HETATM   23  N   UNL     1      -2.021   8.583 -31.367  1.00  0.00    -0.285 N 
HETATM   24  C   UNL     1      -2.301   9.803 -30.643  1.00  0.00     0.179 C 
HETATM   25  N   UNL     1      -1.806   8.632 -32.690  1.00  0.00    -0.185 NA
HETATM   26  C   UNL     1      -1.533   7.377 -33.031  1.00  0.00     0.149 A 
ENDBRANCH  20  21
ENDBRANCH  17  20
ENDBRANCH   9  17
BRANCH   1  27
HETATM   27  C   UNL     1      -6.491  -0.671 -34.293  1.00  0.00     0.180 C 
HETATM   28  C   UNL     1      -7.146  -0.054 -35.530  1.00  0.00     0.039 C 
HETATM   29  C   UNL     1      -6.761  -2.177 -34.282  1.00  0.00     0.039 C 
ENDBRANCH   1  27
TORSDOF 4
ENDMDL
MODEL 6
REMARK VINA RESULT:      -7.6      3.742      6.380
REMARK  4 active torsions:
REMARK  status: ('A' for Active; 'I' for Inactive)
REMARK    1  A    between atoms: C_2  and  N_3 
REMARK    2  A    between atoms: C_11  and  N_12 
REMARK    3  A    between atoms: N_12  and  C_15 
REMARK    4  A    between atoms: C_15  and  C_16 
ROOT
HETATM    1  N   UNL     1      -2.126   6.435 -31.910  1.00  0.00    -0.067 N 
HETATM    2  H   UNL     1      -2.092   7.428 -32.189  1.00  0.00     0.280 HD
HETATM    3  C   UNL     1      -1.977   5.658 -33.206  1.00  0.00     0.238 C 
HETATM    4  C   UNL     1      -2.209   4.169 -32.964  1.00  0.00     0.066 C 
HETATM    5  C   UNL     1      -3.603   3.884 -32.359  1.00  0.00     0.073 C 
HETATM    6  O   UNL     1      -4.546   4.291 -33.362  1.00  0.00    -0.339 OA
HETATM    7  C   UNL     1      -5.834   3.859 -33.212  1.00  0.00     0.078 A 
HETATM    8  C   UNL     1      -6.206   2.782 -32.400  1.00  0.00     0.006 A 
HETATM    9  C   UNL     1      -5.162   1.975 -31.673  1.00  0.00     0.224 C 
HETATM   10  C   UNL     1      -3.744   2.370 -32.113  1.00  0.00     0.076 C 
HETATM   11  C   UNL     1      -6.790   4.574 -33.934  1.00  0.00     0.037 A 
HETATM   12  C   UNL     1      -8.140   4.258 -33.811  1.00  0.00     0.003 A 
HETATM   13  C   UNL     1      -8.534   3.231 -32.960  1.00  0.00     0.001 A 
HETATM   14  C   UNL     1      -7.577   2.500 -32.254  1.00  0.00     0.012 A 
HETATM   15  C   UNL     1      -3.780   4.744 -31.088  1.00  0.00     0.066 C 
HETATM   16  C   UNL     1      -3.526   6.226 -31.367  1.00  0.00     0.238 C 
ENDROOT
BRANCH   9  17
HETATM   17  N   UNL     1      -5.349   0.499 -31.892  1.00  0.00    -0.063 N 
HETATM   18  H   UNL     1      -4.816  -0.023 -31.184  1.00  0.00     0.278 HD
HETATM   19  H   UNL     1      -6.327   0.235 -31.705  1.00  0.00     0.278 HD
BRANCH  17  20
HETATM   20  C   UNL     1      -4.940  -0.061 -33.213  1.00  0.00     0.274 C 
BRANCH  20  21
HETATM   21  C   UNL     1      -4.338  -1.399 -33.041  1.00  0.00     0.004 A 
HETATM   22  C   UNL     1      -4.427  -2.506 -33.867  1.00  0.00     0.122 A 
HETATM   23  N   UNL     1      -3.686  -3.491 -33.270  1.00  0.00    -0.285 N 
HETATM   24  C   UNL     1      -3.440  -4.830 -33.757  1.00  0.00     0.179 C 
HETATM   25  N   UNL     1      -3.155  -3.104 -32.101  1.00  0.00    -0.185 NA
HETATM   26  C   UNL     1      -3.520  -1.832 -31.972  1.00  0.00     0.149 A 
ENDBRANCH  20  21
ENDBRANCH  17  20
ENDBRANCH   9  17
BRANCH   1  27
HETATM   27  C   UNL     1      -0.974   6.281 -30.899  1.00  0.00     0.180 C 
HETATM   28  C   UNL     1      -1.246   7.127 -29.654  1.00  0.00     0.039 C 
HETATM   29  C   UNL     1       0.345   6.731 -31.532  1.00  0.00     0.039 C 
ENDBRANCH   1  27
TORSDOF 4
ENDMDL
MODEL 7
REMARK VINA RESULT:      -7.5      4.011      9.031
REMARK  4 active torsions:
REMARK  status: ('A' for Active; 'I' for Inactive)
REMARK    1  A    between atoms: C_2  and  N_3 
REMARK    2  A    between atoms: C_11  and  N_12 
REMARK    3  A    between atoms: N_12  and  C_15 
REMARK    4  A    between atoms: C_15  and  C_16 
ROOT
HETATM    1  N   UNL     1      -5.604  -0.329 -32.512  1.00  0.00    -0.067 N 
HETATM    2  H   UNL     1      -6.296  -0.964 -32.086  1.00  0.00     0.280 HD
HETATM    3  C   UNL     1      -4.484  -0.228 -31.492  1.00  0.00     0.238 C 
HETATM    4  C   UNL     1      -3.478   0.842 -31.908  1.00  0.00     0.066 C 
HETATM    5  C   UNL     1      -4.136   2.230 -32.078  1.00  0.00     0.073 C 
HETATM    6  O   UNL     1      -4.608   2.593 -30.771  1.00  0.00    -0.339 OA
HETATM    7  C   UNL     1      -4.947   3.903 -30.577  1.00  0.00     0.078 A 
HETATM    8  C   UNL     1      -4.526   4.949 -31.407  1.00  0.00     0.006 A 
HETATM    9  C   UNL     1      -3.595   4.684 -32.560  1.00  0.00     0.224 C 
HETATM   10  C   UNL     1      -3.067   3.241 -32.531  1.00  0.00     0.076 C 
HETATM   11  C   UNL     1      -5.763   4.149 -29.473  1.00  0.00     0.037 A 
HETATM   12  C   UNL     1      -6.218   5.440 -29.215  1.00  0.00     0.003 A 
HETATM   13  C   UNL     1      -5.862   6.481 -30.064  1.00  0.00     0.001 A 
HETATM   14  C   UNL     1      -5.027   6.240 -31.157  1.00  0.00     0.012 A 
HETATM   15  C   UNL     1      -5.329   2.101 -33.051  1.00  0.00     0.066 C 
HETATM   16  C   UNL     1      -6.307   1.011 -32.609  1.00  0.00     0.238 C 
ENDROOT
BRANCH   9  17
HETATM   17  N   UNL     1      -2.427   5.632 -32.560  1.00  0.00    -0.063 N 
HETATM   18  H   UNL     1      -2.305   6.026 -33.502  1.00  0.00     0.278 HD
HETATM   19  H   UNL     1      -2.639   6.454 -31.977  1.00  0.00     0.278 HD
BRANCH  17  20
HETATM   20  C   UNL     1      -1.095   5.089 -32.163  1.00  0.00     0.274 C 
BRANCH  20  21
HETATM   21  C   UNL     1      -0.741   5.536 -30.802  1.00  0.00     0.004 A 
HETATM   22  C   UNL     1      -1.357   6.490 -30.011  1.00  0.00     0.122 A 
HETATM   23  N   UNL     1      -0.654   6.527 -28.835  1.00  0.00    -0.285 N 
HETATM   24  C   UNL     1      -0.922   7.343 -27.671  1.00  0.00     0.179 C 
HETATM   25  N   UNL     1       0.391   5.688 -28.830  1.00  0.00    -0.185 NA
HETATM   26  C   UNL     1       0.326   5.065 -30.003  1.00  0.00     0.149 A 
ENDBRANCH  20  21
ENDBRANCH  17  20
ENDBRANCH   9  17
BRANCH   1  27
HETATM   27  C   UNL     1      -5.236  -1.003 -33.847  1.00  0.00     0.180 C 
HETATM   28  C   UNL     1      -6.503  -1.347 -34.633  1.00  0.00     0.039 C 
HETATM   29  C   UNL     1      -4.442  -2.285 -33.589  1.00  0.00     0.039 C 
ENDBRANCH   1  27
TORSDOF 4
ENDMDL
MODEL 8
REMARK VINA RESULT:      -7.4      3.281      5.385
REMARK  4 active torsions:
REMARK  status: ('A' for Active; 'I' for Inactive)
REMARK    1  A    between atoms: C_2  and  N_3 
REMARK    2  A    between atoms: C_11  and  N_12 
REMARK    3  A    between atoms: N_12  and  C_15 
REMARK    4  A    between atoms: C_15  and  C_16 
ROOT
HETATM    1  N   UNL     1      -2.013   6.203 -31.846  1.00  0.00    -0.067 N 
HETATM    2  H   UNL     1      -1.669   6.879 -32.545  1.00  0.00     0.280 HD
HETATM    3  C   UNL     1      -1.965   4.857 -32.545  1.00  0.00     0.238 C 
HETATM    4  C   UNL     1      -2.637   3.786 -31.689  1.00  0.00     0.066 C 
HETATM    5  C   UNL     1      -4.107   4.136 -31.363  1.00  0.00     0.073 C 
HETATM    6  O   UNL     1      -4.789   4.142 -32.626  1.00  0.00    -0.339 OA
HETATM    7  C   UNL     1      -6.155   4.113 -32.593  1.00  0.00     0.078 A 
HETATM    8  C   UNL     1      -6.899   3.707 -31.479  1.00  0.00     0.006 A 
HETATM    9  C   UNL     1      -6.209   3.206 -30.238  1.00  0.00     0.224 C 
HETATM   10  C   UNL     1      -4.701   3.029 -30.471  1.00  0.00     0.076 C 
HETATM   11  C   UNL     1      -6.789   4.523 -33.766  1.00  0.00     0.037 A 
HETATM   12  C   UNL     1      -8.178   4.589 -33.824  1.00  0.00     0.003 A 
HETATM   13  C   UNL     1      -8.933   4.250 -32.706  1.00  0.00     0.001 A 
HETATM   14  C   UNL     1      -8.302   3.818 -31.539  1.00  0.00     0.012 A 
HETATM   15  C   UNL     1      -4.157   5.544 -30.731  1.00  0.00     0.066 C 
HETATM   16  C   UNL     1      -3.462   6.585 -31.609  1.00  0.00     0.238 C 
ENDROOT
BRANCH   9  17
HETATM   17  N   UNL     1      -6.788   1.900 -29.769  1.00  0.00    -0.063 N 
HETATM   18  H   UNL     1      -6.956   1.943 -28.756  1.00  0.00     0.278 HD
HETATM   19  H   UNL     1      -7.729   1.767 -30.167  1.00  0.00     0.278 HD
BRANCH  17  20
HETATM   20  C   UNL     1      -5.986   0.664 -30.003  1.00  0.00     0.274 C 
BRANCH  20  21
HETATM   21  C   UNL     1      -6.350   0.049 -31.295  1.00  0.00     0.004 A 
HETATM   22  C   UNL     1      -5.598  -0.780 -32.107  1.00  0.00     0.122 A 
HETATM   23  N   UNL     1      -6.388  -1.086 -33.183  1.00  0.00    -0.285 N 
HETATM   24  C   UNL     1      -6.067  -1.947 -34.299  1.00  0.00     0.179 C 
HETATM   25  N   UNL     1      -7.585  -0.483 -33.134  1.00  0.00    -0.185 NA
HETATM   26  C   UNL     1      -7.579   0.179 -31.982  1.00  0.00     0.149 A 
ENDBRANCH  20  21
ENDBRANCH  17  20
ENDBRANCH   9  17
BRANCH   1  27
HETATM   27  C   UNL     1      -1.061   6.371 -30.647  1.00  0.00     0.180 C 
HETATM   28  C   UNL     1      -1.241   7.754 -30.018  1.00  0.00     0.039 C 
HETATM   29  C   UNL     1       0.392   6.213 -31.102  1.00  0.00     0.039 C 
ENDBRANCH   1  27
TORSDOF 4
ENDMDL
MODEL 9
REMARK VINA RESULT:      -7.4      3.899      6.875
REMARK  4 active torsions:
REMARK  status: ('A' for Active; 'I' for Inactive)
REMARK    1  A    between atoms: C_2  and  N_3 
REMARK    2  A    between atoms: C_11  and  N_12 
REMARK    3  A    between atoms: N_12  and  C_15 
REMARK    4  A    between atoms: C_15  and  C_16 
ROOT
HETATM    1  N   UNL     1      -5.228  -2.162 -34.604  1.00  0.00    -0.067 N 
HETATM    2  H   UNL     1      -4.720  -2.321 -35.488  1.00  0.00     0.280 HD
HETATM    3  C   UNL     1      -6.392  -1.262 -34.976  1.00  0.00     0.238 C 
HETATM    4  C   UNL     1      -7.118  -0.783 -33.722  1.00  0.00     0.066 C 
HETATM    5  C   UNL     1      -6.179  -0.025 -32.756  1.00  0.00     0.073 C 
HETATM    6  O   UNL     1      -5.765   1.152 -33.467  1.00  0.00    -0.339 OA
HETATM    7  C   UNL     1      -5.187   2.149 -32.732  1.00  0.00     0.078 A 
HETATM    8  C   UNL     1      -5.309   2.264 -31.343  1.00  0.00     0.006 A 
HETATM    9  C   UNL     1      -6.166   1.300 -30.567  1.00  0.00     0.224 C 
HETATM   10  C   UNL     1      -6.976   0.392 -31.505  1.00  0.00     0.076 C 
HETATM   11  C   UNL     1      -4.442   3.072 -33.465  1.00  0.00     0.037 A 
HETATM   12  C   UNL     1      -3.760   4.096 -32.812  1.00  0.00     0.003 A 
HETATM   13  C   UNL     1      -3.819   4.190 -31.426  1.00  0.00     0.001 A 
HETATM   14  C   UNL     1      -4.582   3.279 -30.693  1.00  0.00     0.012 A 
HETATM   15  C   UNL     1      -4.954  -0.914 -32.450  1.00  0.00     0.066 C 
HETATM   16  C   UNL     1      -4.262  -1.386 -33.730  1.00  0.00     0.238 C 
ENDROOT
BRANCH   9  17
HETATM   17  N   UNL     1      -7.113   2.017 -29.643  1.00  0.00    -0.063 N 
HETATM   18  H   UNL     1      -7.540   1.340 -28.997  1.00  0.00     0.278 HD
HETATM   19  H   UNL     1      -6.589   2.650 -29.022  1.00  0.00     0.278 HD
BRANCH  17  20
HETATM   20  C   UNL     1      -8.243   2.770 -30.260  1.00  0.00     0.274 C 
BRANCH  20  21
HETATM   21  C   UNL     1      -8.255   4.166 -29.780  1.00  0.00     0.004 A 
HETATM   22  C   UNL     1      -7.322   4.827 -29.001  1.00  0.00     0.122 A 
HETATM   23  N   UNL     1      -7.789   6.105 -28.842  1.00  0.00    -0.285 N 
HETATM   24  C   UNL     1      -7.157   7.195 -28.132  1.00  0.00     0.179 C 
HETATM   25  N   UNL     1      -8.975   6.301 -29.437  1.00  0.00    -0.185 NA
HETATM   26  C   UNL     1      -9.247   5.143 -30.030  1.00  0.00     0.149 A 
ENDBRANCH  20  21
ENDBRANCH  17  20
ENDBRANCH   9  17
BRANCH   1  27
HETATM   27  C   UNL     1      -5.601  -3.575 -34.117  1.00  0.00     0.180 C 
HETATM   28  C   UNL     1      -4.359  -4.467 -34.079  1.00  0.00     0.039 C 
HETATM   29  C   UNL     1      -6.637  -4.198 -35.055  1.00  0.00     0.039 C 
ENDBRANCH   1  27
TORSDOF 4
ENDMDL
MODEL 10
REMARK VINA RESULT:      -7.3      2.091      5.524
REMARK  4 active torsions:
REMARK  status: ('A' for Active; 'I' for Inactive)
REMARK    1  A    between atoms: C_2  and  N_3 
REMARK    2  A    between atoms: C_11  and  N_12 
REMARK    3  A    between atoms: N_12  and  C_15 
REMARK    4  A    between atoms: C_15  and  C_16 
ROOT
HETATM    1  N   UNL     1      -4.956  -2.390 -34.459  1.00  0.00    -0.067 N 
HETATM    2  H   UNL     1      -4.101  -2.493 -35.027  1.00  0.00     0.280 HD
HETATM    3  C   UNL     1      -5.894  -1.553 -35.310  1.00  0.00     0.238 C 
HETATM    4  C   UNL     1      -7.130  -1.154 -34.508  1.00  0.00     0.066 C 
HETATM    5  C   UNL     1      -6.767  -0.366 -33.228  1.00  0.00     0.073 C 
HETATM    6  O   UNL     1      -6.161   0.852 -33.685  1.00  0.00    -0.339 OA
HETATM    7  C   UNL     1      -6.035   1.862 -32.773  1.00  0.00     0.078 A 
HETATM    8  C   UNL     1      -6.766   1.932 -31.582  1.00  0.00     0.006 A 
HETATM    9  C   UNL     1      -7.811   0.896 -31.262  1.00  0.00     0.224 C 
HETATM   10  C   UNL     1      -8.060  -0.033 -32.460  1.00  0.00     0.076 C 
HETATM   11  C   UNL     1      -5.107   2.849 -33.103  1.00  0.00     0.037 A 
HETATM   12  C   UNL     1      -4.854   3.894 -32.218  1.00  0.00     0.003 A 
HETATM   13  C   UNL     1      -5.525   3.947 -31.001  1.00  0.00     0.001 A 
HETATM   14  C   UNL     1      -6.471   2.972 -30.679  1.00  0.00     0.012 A 
HETATM   15  C   UNL     1      -5.746  -1.187 -32.409  1.00  0.00     0.066 C 
HETATM   16  C   UNL     1      -4.530  -1.580 -33.250  1.00  0.00     0.238 C 
ENDROOT
BRANCH   9  17
HETATM   17  N   UNL     1      -9.114   1.528 -30.854  1.00  0.00    -0.063 N 
HETATM   18  H   UNL     1      -9.894   0.933 -31.160  1.00  0.00     0.278 HD
HETATM   19  H   UNL     1      -9.198   1.534 -29.828  1.00  0.00     0.278 HD
BRANCH  17  20
HETATM   20  C   UNL     1      -9.410   2.896 -31.371  1.00  0.00     0.274 C 
BRANCH  20  21
HETATM   21  C   UNL     1     -10.055   2.817 -32.697  1.00  0.00     0.004 A 
HETATM   22  C   UNL     1     -11.124   2.035 -33.100  1.00  0.00     0.122 A 
HETATM   23  N   UNL     1     -11.345   2.335 -34.418  1.00  0.00    -0.285 N 
HETATM   24  C   UNL     1     -12.373   1.803 -35.284  1.00  0.00     0.179 C 
HETATM   25  N   UNL     1     -10.471   3.231 -34.899  1.00  0.00    -0.185 NA
HETATM   26  C   UNL     1      -9.709   3.548 -33.857  1.00  0.00     0.149 A 
ENDBRANCH  20  21
ENDBRANCH  17  20
ENDBRANCH   9  17
BRANCH   1  27
HETATM   27  C   UNL     1      -5.411  -3.836 -34.184  1.00  0.00     0.180 C 
HETATM   28  C   UNL     1      -4.199  -4.728 -33.906  1.00  0.00     0.039 C 
HETATM   29  C   UNL     1      -6.173  -4.387 -35.391  1.00  0.00     0.039 C 
ENDBRANCH   1  27
TORSDOF 4
ENDMDL
