MODEL 1
REMARK VINA RESULT:      -9.3      0.000      0.000
REMARK  3 active torsions:
REMARK  status: ('A' for Active; 'I' for Inactive)
REMARK    1  A    between atoms: C_8  and  C_9 
REMARK       I    between atoms: C_9  and  N_10 
REMARK    2  A    between atoms: N_10  and  C_11 
REMARK    3  A    between atoms: C_18  and  C_19 
REMARK       I    between atoms: C_19  and  N_20 
ROOT
HETATM    1  C   UNL     1      -9.120   1.752 -33.657  1.00  0.00     0.035 A 
HETATM    2  C   UNL     1     -10.323   1.039 -33.740  1.00  0.00     0.046 A 
HETATM    3  C   UNL     1     -11.544   1.695 -33.464  1.00  0.00     0.030 A 
HETATM    4  C   UNL     1     -11.519   3.042 -33.120  1.00  0.00     0.063 A 
HETATM    5  N   UNL     1     -12.825   3.387 -32.915  1.00  0.00    -0.277 N 
HETATM    6  H   UNL     1     -13.184   4.297 -32.647  1.00  0.00     0.189 HD
HETATM    7  N   UNL     1     -13.702   2.387 -33.097  1.00  0.00    -0.168 NA
HETATM    8  C   UNL     1     -12.925   1.334 -33.438  1.00  0.00     0.156 A 
HETATM    9  C   UNL     1     -10.340   3.784 -33.032  1.00  0.00     0.034 A 
HETATM   10  C   UNL     1      -9.145   3.110 -33.309  1.00  0.00     0.032 A 
ENDROOT
BRANCH   1  11
HETATM   11  N   UNL     1      -7.851   1.188 -33.906  1.00  0.00    -0.327 N 
HETATM   12  C   UNL     1      -7.101   0.380 -33.067  1.00  0.00     0.231 C 
HETATM   13  O   UNL     1      -7.430  -0.007 -31.949  1.00  0.00    -0.272 OA
HETATM   14  H   UNL     1      -7.413   1.453 -34.781  1.00  0.00     0.169 HD
BRANCH  12  15
HETATM   15  C   UNL     1      -5.769  -0.080 -33.669  1.00  0.00     0.116 C 
HETATM   16  C   UNL     1      -5.724  -1.555 -34.013  1.00  0.00    -0.012 A 
HETATM   17  C   UNL     1      -6.784  -2.166 -34.704  1.00  0.00     0.011 A 
HETATM   18  C   UNL     1      -4.605  -2.328 -33.677  1.00  0.00     0.075 A 
HETATM   19  C   UNL     1      -6.744  -3.529 -35.003  1.00  0.00     0.001 A 
HETATM   20  C   UNL     1      -5.642  -4.294 -34.626  1.00  0.00     0.003 A 
HETATM   21  C   UNL     1      -4.573  -3.692 -33.963  1.00  0.00     0.037 A 
HETATM   22  O   UNL     1      -3.506  -1.825 -33.035  1.00  0.00    -0.351 OA
HETATM   23  C   UNL     1      -3.365  -0.407 -33.154  1.00  0.00     0.176 C 
HETATM   24  C   UNL     1      -4.631   0.301 -32.718  1.00  0.00     0.045 C 
ENDBRANCH  12  15
ENDBRANCH   1  11
BRANCH   8  25
HETATM   25  C   UNL     1     -13.514   0.018 -33.728  1.00  0.00     0.270 C 
HETATM   26  N   UNL     1     -14.699   0.076 -34.410  1.00  0.00    -0.365 N 
HETATM   27  H   UNL     1     -15.073   0.985 -34.657  1.00  0.00     0.159 HD
HETATM   28  H   UNL     1     -15.177  -0.777 -34.652  1.00  0.00     0.159 HD
HETATM   29  O   UNL     1     -13.020  -1.056 -33.407  1.00  0.00    -0.266 OA
ENDBRANCH   8  25
TORSDOF 3
ENDMDL
MODEL 2
REMARK VINA RESULT:      -9.1      1.418      2.541
REMARK  3 active torsions:
REMARK  status: ('A' for Active; 'I' for Inactive)
REMARK    1  A    between atoms: C_8  and  C_9 
REMARK       I    between atoms: C_9  and  N_10 
REMARK    2  A    between atoms: N_10  and  C_11 
REMARK    3  A    between atoms: C_18  and  C_19 
REMARK       I    between atoms: C_19  and  N_20 
ROOT
HETATM    1  C   UNL     1      -9.741   0.779 -33.109  1.00  0.00     0.035 A 
HETATM    2  C   UNL     1     -11.074   0.471 -33.413  1.00  0.00     0.046 A 
HETATM    3  C   UNL     1     -12.045   1.498 -33.417  1.00  0.00     0.030 A 
HETATM    4  C   UNL     1     -11.648   2.797 -33.120  1.00  0.00     0.063 A 
HETATM    5  N   UNL     1     -12.786   3.550 -33.200  1.00  0.00    -0.277 N 
HETATM    6  H   UNL     1     -12.873   4.548 -33.042  1.00  0.00     0.189 HD
HETATM    7  N   UNL     1     -13.891   2.859 -33.524  1.00  0.00    -0.168 NA
HETATM    8  C   UNL     1     -13.449   1.588 -33.662  1.00  0.00     0.156 A 
HETATM    9  C   UNL     1     -10.330   3.140 -32.818  1.00  0.00     0.034 A 
HETATM   10  C   UNL     1      -9.388   2.105 -32.820  1.00  0.00     0.032 A 
ENDROOT
BRANCH   1  11
HETATM   11  N   UNL     1      -8.701  -0.173 -33.074  1.00  0.00    -0.327 N 
HETATM   12  C   UNL     1      -7.690  -0.362 -34.002  1.00  0.00     0.231 C 
HETATM   13  O   UNL     1      -7.513   0.296 -35.024  1.00  0.00    -0.272 OA
HETATM   14  H   UNL     1      -8.731  -0.834 -32.306  1.00  0.00     0.169 HD
BRANCH  12  15
HETATM   15  C   UNL     1      -6.706  -1.477 -33.636  1.00  0.00     0.116 C 
HETATM   16  C   UNL     1      -5.549  -1.020 -32.771  1.00  0.00    -0.012 A 
HETATM   17  C   UNL     1      -5.768  -0.205 -31.648  1.00  0.00     0.011 A 
HETATM   18  C   UNL     1      -4.242  -1.435 -33.057  1.00  0.00     0.075 A 
HETATM   19  C   UNL     1      -4.696   0.227 -30.865  1.00  0.00     0.001 A 
HETATM   20  C   UNL     1      -3.397  -0.159 -31.186  1.00  0.00     0.003 A 
HETATM   21  C   UNL     1      -3.171  -0.990 -32.283  1.00  0.00     0.037 A 
HETATM   22  O   UNL     1      -3.923  -2.255 -34.105  1.00  0.00    -0.351 OA
HETATM   23  C   UNL     1      -5.023  -3.032 -34.587  1.00  0.00     0.176 C 
HETATM   24  C   UNL     1      -6.206  -2.146 -34.920  1.00  0.00     0.045 C 
ENDBRANCH  12  15
ENDBRANCH   1  11
BRANCH   8  25
HETATM   25  C   UNL     1     -14.368   0.499 -34.023  1.00  0.00     0.270 C 
HETATM   26  N   UNL     1     -14.085  -0.694 -33.416  1.00  0.00    -0.365 N 
HETATM   27  H   UNL     1     -13.292  -0.742 -32.786  1.00  0.00     0.159 HD
HETATM   28  H   UNL     1     -14.661  -1.498 -33.603  1.00  0.00     0.159 HD
HETATM   29  O   UNL     1     -15.316   0.609 -34.791  1.00  0.00    -0.266 OA
ENDBRANCH   8  25
TORSDOF 3
ENDMDL
MODEL 3
REMARK VINA RESULT:      -8.9      5.055      8.539
REMARK  3 active torsions:
REMARK  status: ('A' for Active; 'I' for Inactive)
REMARK    1  A    between atoms: C_8  and  C_9 
REMARK       I    between atoms: C_9  and  N_10 
REMARK    2  A    between atoms: N_10  and  C_11 
REMARK    3  A    between atoms: C_18  and  C_19 
REMARK       I    between atoms: C_19  and  N_20 
ROOT
HETATM    1  C   UNL     1      -3.590   3.618 -32.388  1.00  0.00     0.035 A 
HETATM    2  C   UNL     1      -2.495   3.896 -31.559  1.00  0.00     0.046 A 
HETATM    3  C   UNL     1      -1.662   5.000 -31.849  1.00  0.00     0.030 A 
HETATM    4  C   UNL     1      -1.955   5.788 -32.956  1.00  0.00     0.063 A 
HETATM    5  N   UNL     1      -0.990   6.756 -32.977  1.00  0.00    -0.277 N 
HETATM    6  H   UNL     1      -0.889   7.507 -33.650  1.00  0.00     0.189 HD
HETATM    7  N   UNL     1      -0.093   6.671 -31.981  1.00  0.00    -0.168 NA
HETATM    8  C   UNL     1      -0.496   5.590 -31.274  1.00  0.00     0.156 A 
HETATM    9  C   UNL     1      -3.038   5.543 -33.801  1.00  0.00     0.034 A 
HETATM   10  C   UNL     1      -3.847   4.444 -33.492  1.00  0.00     0.032 A 
ENDROOT
BRANCH   1  11
HETATM   11  N   UNL     1      -4.476   2.539 -32.188  1.00  0.00    -0.327 N 
HETATM   12  C   UNL     1      -4.178   1.271 -31.712  1.00  0.00     0.231 C 
HETATM   13  O   UNL     1      -3.072   0.873 -31.357  1.00  0.00    -0.272 OA
HETATM   14  H   UNL     1      -5.434   2.692 -32.481  1.00  0.00     0.169 HD
BRANCH  12  15
HETATM   15  C   UNL     1      -5.393   0.347 -31.594  1.00  0.00     0.116 C 
HETATM   16  C   UNL     1      -5.510  -0.664 -32.718  1.00  0.00    -0.012 A 
HETATM   17  C   UNL     1      -4.395  -1.410 -33.134  1.00  0.00     0.011 A 
HETATM   18  C   UNL     1      -6.745  -0.897 -33.337  1.00  0.00     0.075 A 
HETATM   19  C   UNL     1      -4.504  -2.327 -34.181  1.00  0.00     0.001 A 
HETATM   20  C   UNL     1      -5.730  -2.518 -34.815  1.00  0.00     0.003 A 
HETATM   21  C   UNL     1      -6.850  -1.803 -34.392  1.00  0.00     0.037 A 
HETATM   22  O   UNL     1      -7.899  -0.251 -32.986  1.00  0.00    -0.351 OA
HETATM   23  C   UNL     1      -7.873   0.305 -31.669  1.00  0.00     0.176 C 
HETATM   24  C   UNL     1      -6.661   1.197 -31.482  1.00  0.00     0.045 C 
ENDBRANCH  12  15
ENDBRANCH   1  11
BRANCH   8  25
HETATM   25  C   UNL     1       0.235   5.151 -30.077  1.00  0.00     0.270 C 
HETATM   26  N   UNL     1      -0.283   5.625 -28.902  1.00  0.00    -0.365 N 
HETATM   27  H   UNL     1      -1.101   6.222 -28.938  1.00  0.00     0.159 HD
HETATM   28  H   UNL     1       0.153   5.376 -28.028  1.00  0.00     0.159 HD
HETATM   29  O   UNL     1       1.222   4.424 -30.086  1.00  0.00    -0.266 OA
ENDBRANCH   8  25
TORSDOF 3
ENDMDL
MODEL 4
REMARK VINA RESULT:      -8.8      1.295      1.385
REMARK  3 active torsions:
REMARK  status: ('A' for Active; 'I' for Inactive)
REMARK    1  A    between atoms: C_8  and  C_9 
REMARK       I    between atoms: C_9  and  N_10 
REMARK    2  A    between atoms: N_10  and  C_11 
REMARK    3  A    between atoms: C_18  and  C_19 
REMARK       I    between atoms: C_19  and  N_20 
ROOT
HETATM    1  C   UNL     1      -8.381   1.894 -32.627  1.00  0.00     0.035 A 
HETATM    2  C   UNL     1      -9.535   1.568 -33.352  1.00  0.00     0.046 A 
HETATM    3  C   UNL     1     -10.758   2.201 -33.040  1.00  0.00     0.030 A 
HETATM    4  C   UNL     1     -10.784   3.141 -32.016  1.00  0.00     0.063 A 
HETATM    5  N   UNL     1     -12.081   3.568 -31.950  1.00  0.00    -0.277 N 
HETATM    6  H   UNL     1     -12.468   4.256 -31.313  1.00  0.00     0.189 HD
HETATM    7  N   UNL     1     -12.904   2.993 -32.840  1.00  0.00    -0.168 NA
HETATM    8  C   UNL     1     -12.101   2.145 -33.523  1.00  0.00     0.156 A 
HETATM    9  C   UNL     1      -9.655   3.494 -31.277  1.00  0.00     0.034 A 
HETATM   10  C   UNL     1      -8.455   2.851 -31.605  1.00  0.00     0.032 A 
ENDROOT
BRANCH   1  11
HETATM   11  N   UNL     1      -7.115   1.314 -32.858  1.00  0.00    -0.327 N 
HETATM   12  C   UNL     1      -6.475   0.343 -32.104  1.00  0.00     0.231 C 
HETATM   13  O   UNL     1      -6.921  -0.204 -31.099  1.00  0.00    -0.272 OA
HETATM   14  H   UNL     1      -6.588   1.696 -33.635  1.00  0.00     0.169 HD
BRANCH  12  15
HETATM   15  C   UNL     1      -5.111  -0.079 -32.658  1.00  0.00     0.116 C 
HETATM   16  C   UNL     1      -5.119  -1.422 -33.361  1.00  0.00    -0.012 A 
HETATM   17  C   UNL     1      -6.119  -1.739 -34.295  1.00  0.00     0.011 A 
HETATM   18  C   UNL     1      -4.104  -2.356 -33.117  1.00  0.00     0.075 A 
HETATM   19  C   UNL     1      -6.131  -2.984 -34.926  1.00  0.00     0.001 A 
HETATM   20  C   UNL     1      -5.139  -3.919 -34.643  1.00  0.00     0.003 A 
HETATM   21  C   UNL     1      -4.126  -3.605 -33.738  1.00  0.00     0.037 A 
HETATM   22  O   UNL     1      -3.066  -2.134 -32.254  1.00  0.00    -0.351 OA
HETATM   23  C   UNL     1      -2.818  -0.751 -31.990  1.00  0.00     0.176 C 
HETATM   24  C   UNL     1      -4.081  -0.054 -31.526  1.00  0.00     0.045 C 
ENDBRANCH  12  15
ENDBRANCH   1  11
BRANCH   8  25
HETATM   25  C   UNL     1     -12.629   1.308 -34.610  1.00  0.00     0.270 C 
HETATM   26  N   UNL     1     -13.329   0.213 -34.183  1.00  0.00    -0.365 N 
HETATM   27  H   UNL     1     -13.431   0.062 -33.185  1.00  0.00     0.159 HD
HETATM   28  H   UNL     1     -13.728  -0.419 -34.857  1.00  0.00     0.159 HD
HETATM   29  O   UNL     1     -12.479   1.537 -35.805  1.00  0.00    -0.266 OA
ENDBRANCH   8  25
TORSDOF 3
ENDMDL
MODEL 5
REMARK VINA RESULT:      -8.5      5.378      8.139
REMARK  3 active torsions:
REMARK  status: ('A' for Active; 'I' for Inactive)
REMARK    1  A    between atoms: C_8  and  C_9 
REMARK       I    between atoms: C_9  and  N_10 
REMARK    2  A    between atoms: N_10  and  C_11 
REMARK    3  A    between atoms: C_18  and  C_19 
REMARK       I    between atoms: C_19  and  N_20 
ROOT
HETATM    1  C   UNL     1      -3.636   4.159 -32.503  1.00  0.00     0.035 A 
HETATM    2  C   UNL     1      -3.781   5.426 -31.923  1.00  0.00     0.046 A 
HETATM    3  C   UNL     1      -2.915   6.474 -32.309  1.00  0.00     0.030 A 
HETATM    4  C   UNL     1      -1.937   6.218 -33.263  1.00  0.00     0.063 A 
HETATM    5  N   UNL     1      -1.269   7.401 -33.422  1.00  0.00    -0.277 N 
HETATM    6  H   UNL     1      -0.488   7.585 -34.042  1.00  0.00     0.189 HD
HETATM    7  N   UNL     1      -1.725   8.406 -32.659  1.00  0.00    -0.168 NA
HETATM    8  C   UNL     1      -2.744   7.849 -31.965  1.00  0.00     0.156 A 
HETATM    9  C   UNL     1      -1.766   4.971 -33.864  1.00  0.00     0.034 A 
HETATM   10  C   UNL     1      -2.636   3.950 -33.464  1.00  0.00     0.032 A 
ENDROOT
BRANCH   1  11
HETATM   11  N   UNL     1      -4.444   3.048 -32.182  1.00  0.00    -0.327 N 
HETATM   12  C   UNL     1      -4.067   1.880 -31.539  1.00  0.00     0.231 C 
HETATM   13  O   UNL     1      -2.946   1.617 -31.113  1.00  0.00    -0.272 OA
HETATM   14  H   UNL     1      -5.402   3.087 -32.512  1.00  0.00     0.169 HD
BRANCH  12  15
HETATM   15  C   UNL     1      -5.213   0.885 -31.328  1.00  0.00     0.116 C 
HETATM   16  C   UNL     1      -5.317  -0.174 -32.407  1.00  0.00    -0.012 A 
HETATM   17  C   UNL     1      -4.177  -0.864 -32.851  1.00  0.00     0.011 A 
HETATM   18  C   UNL     1      -6.562  -0.509 -32.954  1.00  0.00     0.075 A 
HETATM   19  C   UNL     1      -4.277  -1.826 -33.857  1.00  0.00     0.001 A 
HETATM   20  C   UNL     1      -5.516  -2.119 -34.422  1.00  0.00     0.003 A 
HETATM   21  C   UNL     1      -6.659  -1.460 -33.970  1.00  0.00     0.037 A 
HETATM   22  O   UNL     1      -7.738   0.077 -32.569  1.00  0.00    -0.351 OA
HETATM   23  C   UNL     1      -7.685   0.685 -31.276  1.00  0.00     0.176 C 
HETATM   24  C   UNL     1      -6.527   1.657 -31.183  1.00  0.00     0.045 C 
ENDBRANCH  12  15
ENDBRANCH   1  11
BRANCH   8  25
HETATM   25  C   UNL     1      -3.524   8.636 -30.998  1.00  0.00     0.270 C 
HETATM   26  N   UNL     1      -3.396   8.214 -29.703  1.00  0.00    -0.365 N 
HETATM   27  H   UNL     1      -2.796   7.420 -29.508  1.00  0.00     0.159 HD
HETATM   28  H   UNL     1      -3.894   8.693 -28.971  1.00  0.00     0.159 HD
HETATM   29  O   UNL     1      -4.236   9.591 -31.285  1.00  0.00    -0.266 OA
ENDBRANCH   8  25
TORSDOF 3
ENDMDL
MODEL 6
REMARK VINA RESULT:      -8.4      5.242      7.275
REMARK  3 active torsions:
REMARK  status: ('A' for Active; 'I' for Inactive)
REMARK    1  A    between atoms: C_8  and  C_9 
REMARK       I    between atoms: C_9  and  N_10 
REMARK    2  A    between atoms: N_10  and  C_11 
REMARK    3  A    between atoms: C_18  and  C_19 
REMARK       I    between atoms: C_19  and  N_20 
ROOT
HETATM    1  C   UNL     1      -5.517   3.312 -31.923  1.00  0.00     0.035 A 
HETATM    2  C   UNL     1      -6.367   2.661 -32.826  1.00  0.00     0.046 A 
HETATM    3  C   UNL     1      -7.533   2.020 -32.350  1.00  0.00     0.030 A 
HETATM    4  C   UNL     1      -7.809   2.056 -30.989  1.00  0.00     0.063 A 
HETATM    5  N   UNL     1      -8.977   1.363 -30.838  1.00  0.00    -0.277 N 
HETATM    6  H   UNL     1      -9.478   1.185 -29.973  1.00  0.00     0.189 HD
HETATM    7  N   UNL     1      -9.490   0.878 -31.980  1.00  0.00    -0.168 NA
HETATM    8  C   UNL     1      -8.608   1.278 -32.925  1.00  0.00     0.156 A 
HETATM    9  C   UNL     1      -6.988   2.698 -30.061  1.00  0.00     0.034 A 
HETATM   10  C   UNL     1      -5.839   3.325 -30.558  1.00  0.00     0.032 A 
ENDROOT
BRANCH   1  11
HETATM   11  N   UNL     1      -4.328   3.974 -32.297  1.00  0.00    -0.327 N 
HETATM   12  C   UNL     1      -3.026   3.634 -31.967  1.00  0.00     0.231 C 
HETATM   13  O   UNL     1      -2.678   2.666 -31.296  1.00  0.00    -0.272 OA
HETATM   14  H   UNL     1      -4.446   4.833 -32.822  1.00  0.00     0.169 HD
BRANCH  12  15
HETATM   15  C   UNL     1      -1.967   4.564 -32.566  1.00  0.00     0.116 C 
HETATM   16  C   UNL     1      -1.946   5.951 -31.955  1.00  0.00    -0.012 A 
HETATM   17  C   UNL     1      -1.983   6.124 -30.562  1.00  0.00     0.011 A 
HETATM   18  C   UNL     1      -1.852   7.085 -32.772  1.00  0.00     0.075 A 
HETATM   19  C   UNL     1      -1.981   7.404 -30.005  1.00  0.00     0.001 A 
HETATM   20  C   UNL     1      -1.929   8.524 -30.832  1.00  0.00     0.003 A 
HETATM   21  C   UNL     1      -1.865   8.363 -32.216  1.00  0.00     0.037 A 
HETATM   22  O   UNL     1      -1.775   7.026 -34.138  1.00  0.00    -0.351 OA
HETATM   23  C   UNL     1      -1.323   5.766 -34.639  1.00  0.00     0.176 C 
HETATM   24  C   UNL     1      -2.159   4.631 -34.084  1.00  0.00     0.045 C 
ENDBRANCH  12  15
ENDBRANCH   1  11
BRANCH   8  25
HETATM   25  C   UNL     1      -8.812   0.943 -34.342  1.00  0.00     0.270 C 
HETATM   26  N   UNL     1      -9.935   1.499 -34.891  1.00  0.00    -0.365 N 
HETATM   27  H   UNL     1     -10.525   2.079 -34.305  1.00  0.00     0.159 HD
HETATM   28  H   UNL     1     -10.157   1.325 -35.858  1.00  0.00     0.159 HD
HETATM   29  O   UNL     1      -8.065   0.236 -35.009  1.00  0.00    -0.266 OA
ENDBRANCH   8  25
TORSDOF 3
ENDMDL
MODEL 7
REMARK VINA RESULT:      -8.3      2.556      8.008
REMARK  3 active torsions:
REMARK  status: ('A' for Active; 'I' for Inactive)
REMARK    1  A    between atoms: C_8  and  C_9 
REMARK       I    between atoms: C_9  and  N_10 
REMARK    2  A    between atoms: N_10  and  C_11 
REMARK    3  A    between atoms: C_18  and  C_19 
REMARK       I    between atoms: C_19  and  N_20 
ROOT
HETATM    1  C   UNL     1      -7.823   0.288 -34.252  1.00  0.00     0.035 A 
HETATM    2  C   UNL     1      -7.629  -1.075 -34.509  1.00  0.00     0.046 A 
HETATM    3  C   UNL     1      -6.346  -1.642 -34.339  1.00  0.00     0.030 A 
HETATM    4  C   UNL     1      -5.304  -0.827 -33.913  1.00  0.00     0.063 A 
HETATM    5  N   UNL     1      -4.210  -1.644 -33.844  1.00  0.00    -0.277 N 
HETATM    6  H   UNL     1      -3.268  -1.386 -33.570  1.00  0.00     0.189 HD
HETATM    7  N   UNL     1      -4.445  -2.921 -34.186  1.00  0.00    -0.168 NA
HETATM    8  C   UNL     1      -5.762  -2.936 -34.494  1.00  0.00     0.156 A 
HETATM    9  C   UNL     1      -5.462   0.532 -33.643  1.00  0.00     0.034 A 
HETATM   10  C   UNL     1      -6.742   1.070 -33.820  1.00  0.00     0.032 A 
ENDROOT
BRANCH   1  11
HETATM   11  N   UNL     1      -9.061   0.949 -34.397  1.00  0.00    -0.327 N 
HETATM   12  C   UNL     1     -10.214   0.769 -33.649  1.00  0.00     0.231 C 
HETATM   13  O   UNL     1     -10.348   0.002 -32.700  1.00  0.00    -0.272 OA
HETATM   14  H   UNL     1      -9.131   1.591 -35.179  1.00  0.00     0.169 HD
BRANCH  12  15
HETATM   15  C   UNL     1     -11.376   1.675 -34.064  1.00  0.00     0.116 C 
HETATM   16  C   UNL     1     -11.765   2.699 -33.016  1.00  0.00    -0.012 A 
HETATM   17  C   UNL     1     -10.788   3.465 -32.360  1.00  0.00     0.011 A 
HETATM   18  C   UNL     1     -13.114   2.923 -32.710  1.00  0.00     0.075 A 
HETATM   19  C   UNL     1     -11.152   4.393 -31.383  1.00  0.00     0.001 A 
HETATM   20  C   UNL     1     -12.494   4.576 -31.060  1.00  0.00     0.003 A 
HETATM   21  C   UNL     1     -13.475   3.840 -31.724  1.00  0.00     0.037 A 
HETATM   22  O   UNL     1     -14.146   2.256 -33.315  1.00  0.00    -0.351 OA
HETATM   23  C   UNL     1     -13.803   1.684 -34.579  1.00  0.00     0.176 C 
HETATM   24  C   UNL     1     -12.573   0.807 -34.461  1.00  0.00     0.045 C 
ENDBRANCH  12  15
ENDBRANCH   1  11
BRANCH   8  25
HETATM   25  C   UNL     1      -6.427  -4.175 -34.924  1.00  0.00     0.270 C 
HETATM   26  N   UNL     1      -7.529  -4.504 -34.182  1.00  0.00    -0.365 N 
HETATM   27  H   UNL     1      -7.799  -3.895 -33.418  1.00  0.00     0.159 HD
HETATM   28  H   UNL     1      -8.048  -5.337 -34.404  1.00  0.00     0.159 HD
HETATM   29  O   UNL     1      -6.060  -4.878 -35.859  1.00  0.00    -0.266 OA
ENDBRANCH   8  25
TORSDOF 3
ENDMDL
MODEL 8
REMARK VINA RESULT:      -8.0      2.091      2.928
REMARK  3 active torsions:
REMARK  status: ('A' for Active; 'I' for Inactive)
REMARK    1  A    between atoms: C_8  and  C_9 
REMARK       I    between atoms: C_9  and  N_10 
REMARK    2  A    between atoms: N_10  and  C_11 
REMARK    3  A    between atoms: C_18  and  C_19 
REMARK       I    between atoms: C_19  and  N_20 
ROOT
HETATM    1  C   UNL     1     -10.382   1.987 -33.588  1.00  0.00     0.035 A 
HETATM    2  C   UNL     1     -10.988   2.946 -32.766  1.00  0.00     0.046 A 
HETATM    3  C   UNL     1     -12.397   3.041 -32.725  1.00  0.00     0.030 A 
HETATM    4  C   UNL     1     -13.151   2.171 -33.505  1.00  0.00     0.063 A 
HETATM    5  N   UNL     1     -14.454   2.502 -33.259  1.00  0.00    -0.277 N 
HETATM    6  H   UNL     1     -15.281   2.073 -33.660  1.00  0.00     0.189 HD
HETATM    7  N   UNL     1     -14.620   3.508 -32.387  1.00  0.00    -0.168 NA
HETATM    8  C   UNL     1     -13.356   3.852 -32.046  1.00  0.00     0.156 A 
HETATM    9  C   UNL     1     -12.582   1.202 -34.332  1.00  0.00     0.034 A 
HETATM   10  C   UNL     1     -11.184   1.129 -34.354  1.00  0.00     0.032 A 
ENDROOT
BRANCH   1  11
HETATM   11  N   UNL     1      -8.986   1.816 -33.703  1.00  0.00    -0.327 N 
HETATM   12  C   UNL     1      -8.146   1.100 -32.865  1.00  0.00     0.231 C 
HETATM   13  O   UNL     1      -8.485   0.464 -31.871  1.00  0.00    -0.272 OA
HETATM   14  H   UNL     1      -8.538   2.325 -34.456  1.00  0.00     0.169 HD
BRANCH  12  15
HETATM   15  C   UNL     1      -6.678   1.103 -33.301  1.00  0.00     0.116 C 
HETATM   16  C   UNL     1      -6.148  -0.262 -33.692  1.00  0.00    -0.012 A 
HETATM   17  C   UNL     1      -6.884  -1.104 -34.541  1.00  0.00     0.011 A 
HETATM   18  C   UNL     1      -4.893  -0.691 -33.241  1.00  0.00     0.075 A 
HETATM   19  C   UNL     1      -6.399  -2.367 -34.883  1.00  0.00     0.001 A 
HETATM   20  C   UNL     1      -5.168  -2.797 -34.393  1.00  0.00     0.003 A 
HETATM   21  C   UNL     1      -4.416  -1.959 -33.572  1.00  0.00     0.037 A 
HETATM   22  O   UNL     1      -4.080   0.065 -32.439  1.00  0.00    -0.351 OA
HETATM   23  C   UNL     1      -4.363   1.465 -32.484  1.00  0.00     0.176 C 
HETATM   24  C   UNL     1      -5.827   1.731 -32.194  1.00  0.00     0.045 C 
ENDBRANCH  12  15
ENDBRANCH   1  11
BRANCH   8  25
HETATM   25  C   UNL     1     -13.097   4.938 -31.089  1.00  0.00     0.270 C 
HETATM   26  N   UNL     1     -13.111   4.542 -29.779  1.00  0.00    -0.365 N 
HETATM   27  H   UNL     1     -13.292   3.567 -29.569  1.00  0.00     0.159 HD
HETATM   28  H   UNL     1     -12.944   5.218 -29.052  1.00  0.00     0.159 HD
HETATM   29  O   UNL     1     -12.881   6.104 -31.396  1.00  0.00    -0.266 OA
ENDBRANCH   8  25
TORSDOF 3
ENDMDL
MODEL 9
REMARK VINA RESULT:      -7.8      2.835      8.278
REMARK  3 active torsions:
REMARK  status: ('A' for Active; 'I' for Inactive)
REMARK    1  A    between atoms: C_8  and  C_9 
REMARK       I    between atoms: C_9  and  N_10 
REMARK    2  A    between atoms: N_10  and  C_11 
REMARK    3  A    between atoms: C_18  and  C_19 
REMARK       I    between atoms: C_19  and  N_20 
ROOT
HETATM    1  C   UNL     1      -8.754   0.858 -33.819  1.00  0.00     0.035 A 
HETATM    2  C   UNL     1      -7.980   1.209 -32.705  1.00  0.00     0.046 A 
HETATM    3  C   UNL     1      -6.624   0.818 -32.646  1.00  0.00     0.030 A 
HETATM    4  C   UNL     1      -6.088   0.093 -33.704  1.00  0.00     0.063 A 
HETATM    5  N   UNL     1      -4.784  -0.136 -33.363  1.00  0.00    -0.277 N 
HETATM    6  H   UNL     1      -4.089  -0.640 -33.902  1.00  0.00     0.189 HD
HETATM    7  N   UNL     1      -4.420   0.376 -32.177  1.00  0.00    -0.168 NA
HETATM    8  C   UNL     1      -5.546   0.971 -31.721  1.00  0.00     0.156 A 
HETATM    9  C   UNL     1      -6.827  -0.270 -34.830  1.00  0.00     0.034 A 
HETATM   10  C   UNL     1      -8.169   0.129 -34.864  1.00  0.00     0.032 A 
ENDROOT
BRANCH   1  11
HETATM   11  N   UNL     1     -10.115   1.195 -33.971  1.00  0.00    -0.327 N 
HETATM   12  C   UNL     1     -10.649   2.381 -34.451  1.00  0.00     0.231 C 
HETATM   13  O   UNL     1     -10.013   3.350 -34.855  1.00  0.00    -0.272 OA
HETATM   14  H   UNL     1     -10.782   0.510 -33.634  1.00  0.00     0.169 HD
BRANCH  12  15
HETATM   15  C   UNL     1     -12.179   2.400 -34.505  1.00  0.00     0.116 C 
HETATM   16  C   UNL     1     -12.829   3.093 -33.323  1.00  0.00    -0.012 A 
HETATM   17  C   UNL     1     -12.363   4.339 -32.873  1.00  0.00     0.011 A 
HETATM   18  C   UNL     1     -13.933   2.515 -32.682  1.00  0.00     0.075 A 
HETATM   19  C   UNL     1     -12.954   4.963 -31.774  1.00  0.00     0.001 A 
HETATM   20  C   UNL     1     -14.025   4.357 -31.121  1.00  0.00     0.003 A 
HETATM   21  C   UNL     1     -14.514   3.133 -31.575  1.00  0.00     0.037 A 
HETATM   22  O   UNL     1     -14.488   1.323 -33.062  1.00  0.00    -0.351 OA
HETATM   23  C   UNL     1     -14.189   0.948 -34.409  1.00  0.00     0.176 C 
HETATM   24  C   UNL     1     -12.695   0.966 -34.657  1.00  0.00     0.045 C 
ENDBRANCH  12  15
ENDBRANCH   1  11
BRANCH   8  25
HETATM   25  C   UNL     1      -5.568   1.664 -30.425  1.00  0.00     0.270 C 
HETATM   26  N   UNL     1      -6.211   0.974 -29.434  1.00  0.00    -0.365 N 
HETATM   27  H   UNL     1      -6.612   0.069 -29.654  1.00  0.00     0.159 HD
HETATM   28  H   UNL     1      -6.277   1.372 -28.511  1.00  0.00     0.159 HD
HETATM   29  O   UNL     1      -5.066   2.761 -30.209  1.00  0.00    -0.266 OA
ENDBRANCH   8  25
TORSDOF 3
ENDMDL
MODEL 10
REMARK VINA RESULT:      -7.6      2.374      3.359
REMARK  3 active torsions:
REMARK  status: ('A' for Active; 'I' for Inactive)
REMARK    1  A    between atoms: C_8  and  C_9 
REMARK       I    between atoms: C_9  and  N_10 
REMARK    2  A    between atoms: N_10  and  C_11 
REMARK    3  A    between atoms: C_18  and  C_19 
REMARK       I    between atoms: C_19  and  N_20 
ROOT
HETATM    1  C   UNL     1      -9.054   1.814 -33.439  1.00  0.00     0.035 A 
HETATM    2  C   UNL     1      -9.918   2.887 -33.692  1.00  0.00     0.046 A 
HETATM    3  C   UNL     1     -11.311   2.662 -33.757  1.00  0.00     0.030 A 
HETATM    4  C   UNL     1     -11.792   1.373 -33.563  1.00  0.00     0.063 A 
HETATM    5  N   UNL     1     -13.150   1.470 -33.685  1.00  0.00    -0.277 N 
HETATM    6  H   UNL     1     -13.828   0.720 -33.605  1.00  0.00     0.189 HD
HETATM    7  N   UNL     1     -13.599   2.709 -33.940  1.00  0.00    -0.168 NA
HETATM    8  C   UNL     1     -12.474   3.458 -33.987  1.00  0.00     0.156 A 
HETATM    9  C   UNL     1     -10.961   0.281 -33.304  1.00  0.00     0.034 A 
HETATM   10  C   UNL     1      -9.585   0.531 -33.246  1.00  0.00     0.032 A 
ENDROOT
BRANCH   1  11
HETATM   11  N   UNL     1      -7.650   1.933 -33.360  1.00  0.00    -0.327 N 
HETATM   12  C   UNL     1      -6.865   1.990 -32.220  1.00  0.00     0.231 C 
HETATM   13  O   UNL     1      -7.265   1.924 -31.061  1.00  0.00    -0.272 OA
HETATM   14  H   UNL     1      -7.165   2.049 -34.243  1.00  0.00     0.169 HD
BRANCH  12  15
HETATM   15  C   UNL     1      -5.363   2.096 -32.500  1.00  0.00     0.116 C 
HETATM   16  C   UNL     1      -4.615   0.785 -32.363  1.00  0.00    -0.012 A 
HETATM   17  C   UNL     1      -5.116  -0.393 -32.942  1.00  0.00     0.011 A 
HETATM   18  C   UNL     1      -3.390   0.734 -31.685  1.00  0.00     0.075 A 
HETATM   19  C   UNL     1      -4.431  -1.601 -32.797  1.00  0.00     0.001 A 
HETATM   20  C   UNL     1      -3.235  -1.644 -32.085  1.00  0.00     0.003 A 
HETATM   21  C   UNL     1      -2.716  -0.476 -31.529  1.00  0.00     0.037 A 
HETATM   22  O   UNL     1      -2.798   1.829 -31.114  1.00  0.00    -0.351 OA
HETATM   23  C   UNL     1      -3.247   3.075 -31.651  1.00  0.00     0.176 C 
HETATM   24  C   UNL     1      -4.759   3.175 -31.597  1.00  0.00     0.045 C 
ENDBRANCH  12  15
ENDBRANCH   1  11
BRANCH   8  25
HETATM   25  C   UNL     1     -12.535   4.904 -34.247  1.00  0.00     0.270 C 
HETATM   26  N   UNL     1     -13.516   5.272 -35.126  1.00  0.00    -0.365 N 
HETATM   27  H   UNL     1     -14.109   4.550 -35.521  1.00  0.00     0.159 HD
HETATM   28  H   UNL     1     -13.633   6.243 -35.366  1.00  0.00     0.159 HD
HETATM   29  O   UNL     1     -11.793   5.738 -33.741  1.00  0.00    -0.266 OA
ENDBRANCH   8  25
TORSDOF 3
ENDMDL
