MODEL 1
REMARK VINA RESULT:      -8.6      0.000      0.000
REMARK  4 active torsions:
REMARK  status: ('A' for Active; 'I' for Inactive)
REMARK    1  A    between atoms: C_10  and  C_11 
REMARK    2  A    between atoms: N_14  and  C_16 
REMARK    3  A    between atoms: C_16  and  C_17 
REMARK    4  A    between atoms: C_22  and  C_23 
ROOT
HETATM    1  C   UNL     1      -5.653   1.498 -30.463  1.00  0.00     0.024 C 
HETATM    2  C   UNL     1      -5.360   2.912 -29.922  1.00  0.00     0.037 C 
HETATM    3  C   UNL     1      -4.636   3.756 -30.963  1.00  0.00     0.236 C 
HETATM    4  N   UNL     1      -3.330   3.098 -31.347  1.00  0.00    -0.066 N 
HETATM    5  H   UNL     1      -2.705   3.198 -30.531  1.00  0.00     0.280 HD
HETATM    6  C   UNL     1      -3.456   1.654 -31.740  1.00  0.00     0.236 C 
HETATM    7  C   UNL     1      -4.292   0.858 -30.747  1.00  0.00     0.037 C 
ENDROOT
BRANCH   4   8
HETATM    8  C   UNL     1      -2.617   3.875 -32.455  1.00  0.00     0.294 C 
BRANCH   8   9
HETATM    9  C   UNL     1      -1.572   4.852 -31.949  1.00  0.00     0.075 A 
HETATM   10  N   UNL     1      -0.861   4.436 -30.861  1.00  0.00    -0.263 NA
HETATM   11  C   UNL     1       0.084   5.279 -30.379  1.00  0.00     0.117 A 
HETATM   12  C   UNL     1       0.361   6.517 -30.931  1.00  0.00     0.020 A 
HETATM   13  C   UNL     1      -0.359   6.917 -32.051  1.00  0.00     0.020 A 
HETATM   14  C   UNL     1      -1.339   6.076 -32.589  1.00  0.00     0.074 A 
BRANCH  14  15
HETATM   15  C   UNL     1      -2.136   6.481 -33.797  1.00  0.00     0.419 C 
HETATM   16  F   UNL     1      -1.880   7.772 -34.150  1.00  0.00    -0.166 F 
HETATM   17  F   UNL     1      -1.800   5.737 -34.885  1.00  0.00    -0.166 F 
HETATM   18  F   UNL     1      -3.477   6.379 -33.648  1.00  0.00    -0.166 F 
ENDBRANCH  14  15
ENDBRANCH   8   9
ENDBRANCH   4   8
BRANCH   1  19
HETATM   19  C   UNL     1      -6.642   1.540 -31.621  1.00  0.00    -0.024 A 
HETATM   20  C   UNL     1      -6.784   0.694 -32.785  1.00  0.00     0.018 A 
HETATM   21  C   UNL     1      -7.775   1.266 -33.582  1.00  0.00     0.138 A 
HETATM   22  C   UNL     1      -6.196  -0.481 -33.297  1.00  0.00     0.017 A 
HETATM   23  N   UNL     1      -8.193   0.874 -34.798  1.00  0.00    -0.242 NA
HETATM   24  N   UNL     1      -8.307   2.326 -32.916  1.00  0.00    -0.350 N 
HETATM   25  C   UNL     1      -7.574  -0.235 -35.247  1.00  0.00     0.119 A 
HETATM   26  C   UNL     1      -6.602  -0.940 -34.554  1.00  0.00     0.020 A 
HETATM   27  H   UNL     1      -9.076   2.878 -33.269  1.00  0.00     0.166 HD
HETATM   28  C   UNL     1      -7.649   2.493 -31.729  1.00  0.00     0.098 A 
ENDBRANCH   1  19
TORSDOF 4
ENDMDL
MODEL 2
REMARK VINA RESULT:      -8.5      5.625      7.150
REMARK  4 active torsions:
REMARK  status: ('A' for Active; 'I' for Inactive)
REMARK    1  A    between atoms: C_10  and  C_11 
REMARK    2  A    between atoms: N_14  and  C_16 
REMARK    3  A    between atoms: C_16  and  C_17 
REMARK    4  A    between atoms: C_22  and  C_23 
ROOT
HETATM    1  C   UNL     1      -8.035   1.864 -32.001  1.00  0.00     0.024 C 
HETATM    2  C   UNL     1      -7.026   2.451 -33.009  1.00  0.00     0.037 C 
HETATM    3  C   UNL     1      -6.536   1.383 -33.977  1.00  0.00     0.236 C 
HETATM    4  N   UNL     1      -5.872   0.258 -33.216  1.00  0.00    -0.066 N 
HETATM    5  H   UNL     1      -4.979   0.637 -32.861  1.00  0.00     0.280 HD
HETATM    6  C   UNL     1      -6.693  -0.297 -32.089  1.00  0.00     0.236 C 
HETATM    7  C   UNL     1      -7.277   0.799 -31.207  1.00  0.00     0.037 C 
ENDROOT
BRANCH   4   8
HETATM    8  C   UNL     1      -5.444  -0.874 -34.151  1.00  0.00     0.294 C 
BRANCH   8   9
HETATM    9  C   UNL     1      -4.578  -1.929 -33.488  1.00  0.00     0.075 A 
HETATM   10  N   UNL     1      -3.768  -1.476 -32.488  1.00  0.00    -0.263 NA
HETATM   11  C   UNL     1      -2.979  -2.386 -31.868  1.00  0.00     0.117 A 
HETATM   12  C   UNL     1      -2.961  -3.731 -32.192  1.00  0.00     0.020 A 
HETATM   13  C   UNL     1      -3.806  -4.179 -33.201  1.00  0.00     0.020 A 
HETATM   14  C   UNL     1      -4.644  -3.276 -33.863  1.00  0.00     0.074 A 
BRANCH  14  15
HETATM   15  C   UNL     1      -5.567  -3.730 -34.960  1.00  0.00     0.419 C 
HETATM   16  F   UNL     1      -5.448  -5.069 -35.185  1.00  0.00    -0.166 F 
HETATM   17  F   UNL     1      -6.870  -3.535 -34.623  1.00  0.00    -0.166 F 
HETATM   18  F   UNL     1      -5.371  -3.118 -36.151  1.00  0.00    -0.166 F 
ENDBRANCH  14  15
ENDBRANCH   8   9
ENDBRANCH   4   8
BRANCH   1  19
HETATM   19  C   UNL     1      -9.315   1.416 -32.695  1.00  0.00    -0.024 A 
HETATM   20  C   UNL     1     -10.151   2.074 -33.674  1.00  0.00     0.018 A 
HETATM   21  C   UNL     1     -11.267   1.261 -33.866  1.00  0.00     0.138 A 
HETATM   22  C   UNL     1     -10.134   3.268 -34.423  1.00  0.00     0.017 A 
HETATM   23  N   UNL     1     -12.350   1.501 -34.624  1.00  0.00    -0.242 NA
HETATM   24  N   UNL     1     -11.093   0.114 -33.155  1.00  0.00    -0.350 N 
HETATM   25  C   UNL     1     -12.289   2.670 -35.292  1.00  0.00     0.119 A 
HETATM   26  C   UNL     1     -11.231   3.563 -35.238  1.00  0.00     0.020 A 
HETATM   27  H   UNL     1     -11.748  -0.655 -33.168  1.00  0.00     0.166 HD
HETATM   28  C   UNL     1      -9.918   0.184 -32.459  1.00  0.00     0.098 A 
ENDBRANCH   1  19
TORSDOF 4
ENDMDL
MODEL 3
REMARK VINA RESULT:      -8.5      1.977      2.360
REMARK  4 active torsions:
REMARK  status: ('A' for Active; 'I' for Inactive)
REMARK    1  A    between atoms: C_10  and  C_11 
REMARK    2  A    between atoms: N_14  and  C_16 
REMARK    3  A    between atoms: C_16  and  C_17 
REMARK    4  A    between atoms: C_22  and  C_23 
ROOT
HETATM    1  C   UNL     1      -4.921   0.737 -30.714  1.00  0.00     0.024 C 
HETATM    2  C   UNL     1      -5.576   2.005 -30.131  1.00  0.00     0.037 C 
HETATM    3  C   UNL     1      -5.713   3.086 -31.194  1.00  0.00     0.236 C 
HETATM    4  N   UNL     1      -4.353   3.447 -31.747  1.00  0.00    -0.066 N 
HETATM    5  H   UNL     1      -3.863   3.959 -30.996  1.00  0.00     0.280 HD
HETATM    6  C   UNL     1      -3.538   2.270 -32.201  1.00  0.00     0.236 C 
HETATM    7  C   UNL     1      -3.520   1.149 -31.170  1.00  0.00     0.037 C 
ENDROOT
BRANCH   4   8
HETATM    8  C   UNL     1      -4.461   4.469 -32.879  1.00  0.00     0.294 C 
BRANCH   8   9
HETATM    9  C   UNL     1      -3.709   5.760 -32.620  1.00  0.00     0.075 A 
HETATM   10  N   UNL     1      -4.157   6.496 -31.561  1.00  0.00    -0.263 NA
HETATM   11  C   UNL     1      -3.511   7.656 -31.294  1.00  0.00     0.117 A 
HETATM   12  C   UNL     1      -2.434   8.120 -32.027  1.00  0.00     0.020 A 
HETATM   13  C   UNL     1      -1.977   7.349 -33.091  1.00  0.00     0.020 A 
HETATM   14  C   UNL     1      -2.608   6.140 -33.398  1.00  0.00     0.074 A 
BRANCH  14  15
HETATM   15  C   UNL     1      -2.140   5.286 -34.543  1.00  0.00     0.419 C 
HETATM   16  F   UNL     1      -3.067   5.244 -35.542  1.00  0.00    -0.166 F 
HETATM   17  F   UNL     1      -1.017   5.797 -35.115  1.00  0.00    -0.166 F 
HETATM   18  F   UNL     1      -1.867   4.002 -34.215  1.00  0.00    -0.166 F 
ENDBRANCH  14  15
ENDBRANCH   8   9
ENDBRANCH   4   8
BRANCH   1  19
HETATM   19  C   UNL     1      -5.813   0.080 -31.759  1.00  0.00    -0.024 A 
HETATM   20  C   UNL     1      -5.531  -0.924 -32.759  1.00  0.00     0.018 A 
HETATM   21  C   UNL     1      -6.684  -1.063 -33.531  1.00  0.00     0.138 A 
HETATM   22  C   UNL     1      -4.443  -1.735 -33.143  1.00  0.00     0.017 A 
HETATM   23  N   UNL     1      -6.866  -1.823 -34.624  1.00  0.00    -0.242 NA
HETATM   24  N   UNL     1      -7.664  -0.295 -32.984  1.00  0.00    -0.350 N 
HETATM   25  C   UNL     1      -5.784  -2.551 -34.958  1.00  0.00     0.119 A 
HETATM   26  C   UNL     1      -4.582  -2.554 -34.268  1.00  0.00     0.020 A 
HETATM   27  H   UNL     1      -8.610  -0.262 -33.337  1.00  0.00     0.166 HD
HETATM   28  C   UNL     1      -7.163   0.385 -31.908  1.00  0.00     0.098 A 
ENDBRANCH   1  19
TORSDOF 4
ENDMDL
MODEL 4
REMARK VINA RESULT:      -8.1      3.478      6.713
REMARK  4 active torsions:
REMARK  status: ('A' for Active; 'I' for Inactive)
REMARK    1  A    between atoms: C_10  and  C_11 
REMARK    2  A    between atoms: N_14  and  C_16 
REMARK    3  A    between atoms: C_16  and  C_17 
REMARK    4  A    between atoms: C_22  and  C_23 
ROOT
HETATM    1  C   UNL     1      -6.926   4.279 -32.539  1.00  0.00     0.024 C 
HETATM    2  C   UNL     1      -7.795   3.701 -31.404  1.00  0.00     0.037 C 
HETATM    3  C   UNL     1      -7.509   2.220 -31.197  1.00  0.00     0.236 C 
HETATM    4  N   UNL     1      -7.792   1.454 -32.469  1.00  0.00    -0.066 N 
HETATM    5  H   UNL     1      -8.818   1.450 -32.582  1.00  0.00     0.280 HD
HETATM    6  C   UNL     1      -7.129   2.019 -33.693  1.00  0.00     0.236 C 
HETATM    7  C   UNL     1      -7.324   3.525 -33.810  1.00  0.00     0.037 C 
ENDROOT
BRANCH   4   8
HETATM    8  C   UNL     1      -7.433  -0.026 -32.323  1.00  0.00     0.294 C 
BRANCH   8   9
HETATM    9  C   UNL     1      -5.949  -0.316 -32.439  1.00  0.00     0.075 A 
HETATM   10  N   UNL     1      -5.170   0.220 -31.454  1.00  0.00    -0.263 NA
HETATM   11  C   UNL     1      -3.837  -0.017 -31.520  1.00  0.00     0.117 A 
HETATM   12  C   UNL     1      -3.240  -0.767 -32.517  1.00  0.00     0.020 A 
HETATM   13  C   UNL     1      -4.050  -1.322 -33.502  1.00  0.00     0.020 A 
HETATM   14  C   UNL     1      -5.432  -1.111 -33.470  1.00  0.00     0.074 A 
BRANCH  14  15
HETATM   15  C   UNL     1      -6.334  -1.694 -34.522  1.00  0.00     0.419 C 
HETATM   16  F   UNL     1      -5.645  -2.511 -35.368  1.00  0.00    -0.166 F 
HETATM   17  F   UNL     1      -7.298  -2.478 -33.969  1.00  0.00    -0.166 F 
HETATM   18  F   UNL     1      -6.965  -0.779 -35.295  1.00  0.00    -0.166 F 
ENDBRANCH  14  15
ENDBRANCH   8   9
ENDBRANCH   4   8
BRANCH   1  19
HETATM   19  C   UNL     1      -5.448   4.262 -32.171  1.00  0.00    -0.024 A 
HETATM   20  C   UNL     1      -4.271   4.605 -32.936  1.00  0.00     0.018 A 
HETATM   21  C   UNL     1      -3.167   4.281 -32.148  1.00  0.00     0.138 A 
HETATM   22  C   UNL     1      -3.973   5.132 -34.209  1.00  0.00     0.017 A 
HETATM   23  N   UNL     1      -1.865   4.351 -32.472  1.00  0.00    -0.242 NA
HETATM   24  N   UNL     1      -3.612   3.879 -30.927  1.00  0.00    -0.350 N 
HETATM   25  C   UNL     1      -1.645   4.834 -33.710  1.00  0.00     0.119 A 
HETATM   26  C   UNL     1      -2.632   5.237 -34.594  1.00  0.00     0.020 A 
HETATM   27  H   UNL     1      -2.998   3.634 -30.162  1.00  0.00     0.166 HD
HETATM   28  C   UNL     1      -4.979   3.878 -30.919  1.00  0.00     0.098 A 
ENDBRANCH   1  19
TORSDOF 4
ENDMDL
MODEL 5
REMARK VINA RESULT:      -7.9      2.275      2.690
REMARK  4 active torsions:
REMARK  status: ('A' for Active; 'I' for Inactive)
REMARK    1  A    between atoms: C_10  and  C_11 
REMARK    2  A    between atoms: N_14  and  C_16 
REMARK    3  A    between atoms: C_16  and  C_17 
REMARK    4  A    between atoms: C_22  and  C_23 
ROOT
HETATM    1  C   UNL     1      -4.906   0.757 -30.817  1.00  0.00     0.024 C 
HETATM    2  C   UNL     1      -5.560   2.079 -30.366  1.00  0.00     0.037 C 
HETATM    3  C   UNL     1      -5.681   3.054 -31.529  1.00  0.00     0.236 C 
HETATM    4  N   UNL     1      -4.313   3.353 -32.100  1.00  0.00    -0.066 N 
HETATM    5  H   UNL     1      -3.827   3.933 -31.397  1.00  0.00     0.280 HD
HETATM    6  C   UNL     1      -3.500   2.135 -32.430  1.00  0.00     0.236 C 
HETATM    7  C   UNL     1      -3.498   1.117 -31.297  1.00  0.00     0.037 C 
ENDROOT
BRANCH   4   8
HETATM    8  C   UNL     1      -4.404   4.262 -33.326  1.00  0.00     0.294 C 
BRANCH   8   9
HETATM    9  C   UNL     1      -3.249   5.236 -33.460  1.00  0.00     0.075 A 
HETATM   10  N   UNL     1      -2.236   4.833 -34.281  1.00  0.00    -0.263 NA
HETATM   11  C   UNL     1      -1.186   5.675 -34.429  1.00  0.00     0.117 A 
HETATM   12  C   UNL     1      -1.095   6.906 -33.804  1.00  0.00     0.020 A 
HETATM   13  C   UNL     1      -2.145   7.310 -32.986  1.00  0.00     0.020 A 
HETATM   14  C   UNL     1      -3.254   6.476 -32.810  1.00  0.00     0.074 A 
BRANCH  14  15
HETATM   15  C   UNL     1      -4.402   6.884 -31.930  1.00  0.00     0.419 C 
HETATM   16  F   UNL     1      -4.423   6.162 -30.774  1.00  0.00    -0.166 F 
HETATM   17  F   UNL     1      -4.292   8.183 -31.541  1.00  0.00    -0.166 F 
HETATM   18  F   UNL     1      -5.624   6.744 -32.495  1.00  0.00    -0.166 F 
ENDBRANCH  14  15
ENDBRANCH   8   9
ENDBRANCH   4   8
BRANCH   1  19
HETATM   19  C   UNL     1      -5.792   0.007 -31.803  1.00  0.00    -0.024 A 
HETATM   20  C   UNL     1      -5.481  -1.012 -32.780  1.00  0.00     0.018 A 
HETATM   21  C   UNL     1      -6.651  -1.253 -33.501  1.00  0.00     0.138 A 
HETATM   22  C   UNL     1      -4.358  -1.765 -33.180  1.00  0.00     0.017 A 
HETATM   23  N   UNL     1      -6.823  -2.061 -34.560  1.00  0.00    -0.242 NA
HETATM   24  N   UNL     1      -7.658  -0.530 -32.941  1.00  0.00    -0.350 N 
HETATM   25  C   UNL     1      -5.709  -2.730 -34.912  1.00  0.00     0.119 A 
HETATM   26  C   UNL     1      -4.485  -2.631 -34.270  1.00  0.00     0.020 A 
HETATM   27  H   UNL     1      -8.617  -0.571 -33.258  1.00  0.00     0.166 HD
HETATM   28  C   UNL     1      -7.163   0.219 -31.910  1.00  0.00     0.098 A 
ENDBRANCH   1  19
TORSDOF 4
ENDMDL
MODEL 6
REMARK VINA RESULT:      -7.8      4.790      7.104
REMARK  4 active torsions:
REMARK  status: ('A' for Active; 'I' for Inactive)
REMARK    1  A    between atoms: C_10  and  C_11 
REMARK    2  A    between atoms: N_14  and  C_16 
REMARK    3  A    between atoms: C_16  and  C_17 
REMARK    4  A    between atoms: C_22  and  C_23 
ROOT
HETATM    1  C   UNL     1      -4.170   0.764 -31.589  1.00  0.00     0.024 C 
HETATM    2  C   UNL     1      -4.906   0.677 -30.237  1.00  0.00     0.037 C 
HETATM    3  C   UNL     1      -6.365   0.285 -30.434  1.00  0.00     0.236 C 
HETATM    4  N   UNL     1      -7.062   1.303 -31.307  1.00  0.00    -0.066 N 
HETATM    5  H   UNL     1      -7.155   2.159 -30.736  1.00  0.00     0.280 HD
HETATM    6  C   UNL     1      -6.351   1.605 -32.595  1.00  0.00     0.236 C 
HETATM    7  C   UNL     1      -4.866   1.869 -32.385  1.00  0.00     0.037 C 
ENDROOT
BRANCH   4   8
HETATM    8  C   UNL     1      -8.507   0.896 -31.598  1.00  0.00     0.294 C 
BRANCH   8   9
HETATM    9  C   UNL     1      -9.459   2.067 -31.752  1.00  0.00     0.075 A 
HETATM   10  N   UNL     1      -9.279   3.089 -30.865  1.00  0.00    -0.263 NA
HETATM   11  C   UNL     1     -10.108   4.155 -30.970  1.00  0.00     0.117 A 
HETATM   12  C   UNL     1     -11.108   4.258 -31.920  1.00  0.00     0.020 A 
HETATM   13  C   UNL     1     -11.266   3.216 -32.829  1.00  0.00     0.020 A 
HETATM   14  C   UNL     1     -10.427   2.099 -32.763  1.00  0.00     0.074 A 
BRANCH  14  15
HETATM   15  C   UNL     1     -10.576   0.957 -33.729  1.00  0.00     0.419 C 
HETATM   16  F   UNL     1     -11.538   1.215 -34.659  1.00  0.00    -0.166 F 
HETATM   17  F   UNL     1      -9.433   0.756 -34.439  1.00  0.00    -0.166 F 
HETATM   18  F   UNL     1     -10.898  -0.227 -33.157  1.00  0.00    -0.166 F 
ENDBRANCH  14  15
ENDBRANCH   8   9
ENDBRANCH   4   8
BRANCH   1  19
HETATM   19  C   UNL     1      -4.072  -0.601 -32.258  1.00  0.00    -0.024 A 
HETATM   20  C   UNL     1      -4.857  -1.206 -33.310  1.00  0.00     0.018 A 
HETATM   21  C   UNL     1      -4.413  -2.521 -33.442  1.00  0.00     0.138 A 
HETATM   22  C   UNL     1      -5.910  -0.833 -34.170  1.00  0.00     0.017 A 
HETATM   23  N   UNL     1      -4.900  -3.487 -34.239  1.00  0.00    -0.242 NA
HETATM   24  N   UNL     1      -3.342  -2.699 -32.621  1.00  0.00    -0.350 N 
HETATM   25  C   UNL     1      -5.922  -3.079 -35.015  1.00  0.00     0.119 A 
HETATM   26  C   UNL     1      -6.448  -1.797 -35.029  1.00  0.00     0.020 A 
HETATM   27  H   UNL     1      -2.814  -3.559 -32.572  1.00  0.00     0.166 HD
HETATM   28  C   UNL     1      -3.114  -1.550 -31.915  1.00  0.00     0.098 A 
ENDBRANCH   1  19
TORSDOF 4
ENDMDL
MODEL 7
REMARK VINA RESULT:      -7.7      3.008      7.679
REMARK  4 active torsions:
REMARK  status: ('A' for Active; 'I' for Inactive)
REMARK    1  A    between atoms: C_10  and  C_11 
REMARK    2  A    between atoms: N_14  and  C_16 
REMARK    3  A    between atoms: C_16  and  C_17 
REMARK    4  A    between atoms: C_22  and  C_23 
ROOT
HETATM    1  C   UNL     1      -2.911   5.865 -33.167  1.00  0.00     0.024 C 
HETATM    2  C   UNL     1      -4.444   5.784 -33.315  1.00  0.00     0.037 C 
HETATM    3  C   UNL     1      -5.030   4.743 -32.371  1.00  0.00     0.236 C 
HETATM    4  N   UNL     1      -4.437   3.384 -32.664  1.00  0.00    -0.066 N 
HETATM    5  H   UNL     1      -4.833   3.085 -33.570  1.00  0.00     0.280 HD
HETATM    6  C   UNL     1      -2.936   3.360 -32.712  1.00  0.00     0.236 C 
HETATM    7  C   UNL     1      -2.369   4.490 -33.563  1.00  0.00     0.037 C 
ENDROOT
BRANCH   4   8
HETATM    8  C   UNL     1      -4.939   2.329 -31.677  1.00  0.00     0.294 C 
BRANCH   8   9
HETATM    9  C   UNL     1      -5.752   1.221 -32.318  1.00  0.00     0.075 A 
HETATM   10  N   UNL     1      -6.949   1.606 -32.849  1.00  0.00    -0.263 NA
HETATM   11  C   UNL     1      -7.706   0.645 -33.433  1.00  0.00     0.117 A 
HETATM   12  C   UNL     1      -7.327  -0.682 -33.521  1.00  0.00     0.020 A 
HETATM   13  C   UNL     1      -6.095  -1.054 -32.992  1.00  0.00     0.020 A 
HETATM   14  C   UNL     1      -5.277  -0.095 -32.387  1.00  0.00     0.074 A 
BRANCH  14  15
HETATM   15  C   UNL     1      -3.942  -0.466 -31.804  1.00  0.00     0.419 C 
HETATM   16  F   UNL     1      -3.753  -1.816 -31.818  1.00  0.00    -0.166 F 
HETATM   17  F   UNL     1      -2.920   0.049 -32.539  1.00  0.00    -0.166 F 
HETATM   18  F   UNL     1      -3.752  -0.062 -30.526  1.00  0.00    -0.166 F 
ENDBRANCH  14  15
ENDBRANCH   8   9
ENDBRANCH   4   8
BRANCH   1  19
HETATM   19  C   UNL     1      -2.513   6.385 -31.791  1.00  0.00    -0.024 A 
HETATM   20  C   UNL     1      -1.388   6.067 -30.940  1.00  0.00     0.018 A 
HETATM   21  C   UNL     1      -1.588   6.741 -29.736  1.00  0.00     0.138 A 
HETATM   22  C   UNL     1      -0.222   5.278 -31.007  1.00  0.00     0.017 A 
HETATM   23  N   UNL     1      -0.845   6.686 -28.619  1.00  0.00    -0.242 NA
HETATM   24  N   UNL     1      -2.692   7.526 -29.860  1.00  0.00    -0.350 N 
HETATM   25  C   UNL     1       0.239   5.894 -28.733  1.00  0.00     0.119 A 
HETATM   26  C   UNL     1       0.595   5.193 -29.875  1.00  0.00     0.020 A 
HETATM   27  H   UNL     1      -3.018   8.150 -29.134  1.00  0.00     0.166 HD
HETATM   28  C   UNL     1      -3.250   7.337 -31.094  1.00  0.00     0.098 A 
ENDBRANCH   1  19
TORSDOF 4
ENDMDL
MODEL 8
REMARK VINA RESULT:      -7.7      5.258      7.421
REMARK  4 active torsions:
REMARK  status: ('A' for Active; 'I' for Inactive)
REMARK    1  A    between atoms: C_10  and  C_11 
REMARK    2  A    between atoms: N_14  and  C_16 
REMARK    3  A    between atoms: C_16  and  C_17 
REMARK    4  A    between atoms: C_22  and  C_23 
ROOT
HETATM    1  C   UNL     1      -8.863   1.121 -32.233  1.00  0.00     0.024 C 
HETATM    2  C   UNL     1      -7.945   0.295 -31.309  1.00  0.00     0.037 C 
HETATM    3  C   UNL     1      -6.597   0.037 -31.968  1.00  0.00     0.236 C 
HETATM    4  N   UNL     1      -6.790  -0.714 -33.266  1.00  0.00    -0.066 N 
HETATM    5  H   UNL     1      -7.077  -1.671 -33.006  1.00  0.00     0.280 HD
HETATM    6  C   UNL     1      -7.794  -0.097 -34.196  1.00  0.00     0.236 C 
HETATM    7  C   UNL     1      -9.090   0.269 -33.483  1.00  0.00     0.037 C 
ENDROOT
BRANCH   4   8
HETATM    8  C   UNL     1      -5.462  -0.916 -33.999  1.00  0.00     0.294 C 
BRANCH   8   9
HETATM    9  C   UNL     1      -4.631  -2.066 -33.465  1.00  0.00     0.075 A 
HETATM   10  N   UNL     1      -3.800  -1.756 -32.428  1.00  0.00    -0.263 NA
HETATM   11  C   UNL     1      -3.040  -2.756 -31.920  1.00  0.00     0.117 A 
HETATM   12  C   UNL     1      -3.071  -4.056 -32.392  1.00  0.00     0.020 A 
HETATM   13  C   UNL     1      -3.937  -4.360 -33.436  1.00  0.00     0.020 A 
HETATM   14  C   UNL     1      -4.746  -3.361 -33.986  1.00  0.00     0.074 A 
BRANCH  14  15
HETATM   15  C   UNL     1      -5.690  -3.658 -35.118  1.00  0.00     0.419 C 
HETATM   16  F   UNL     1      -5.338  -2.982 -36.248  1.00  0.00    -0.166 F 
HETATM   17  F   UNL     1      -5.654  -4.974 -35.460  1.00  0.00    -0.166 F 
HETATM   18  F   UNL     1      -6.984  -3.350 -34.869  1.00  0.00    -0.166 F 
ENDBRANCH  14  15
ENDBRANCH   8   9
ENDBRANCH   4   8
BRANCH   1  19
HETATM   19  C   UNL     1      -8.313   2.524 -32.453  1.00  0.00    -0.024 A 
HETATM   20  C   UNL     1      -7.778   3.495 -31.526  1.00  0.00     0.018 A 
HETATM   21  C   UNL     1      -7.542   4.662 -32.252  1.00  0.00     0.138 A 
HETATM   22  C   UNL     1      -7.472   3.565 -30.151  1.00  0.00     0.017 A 
HETATM   23  N   UNL     1      -7.121   5.854 -31.797  1.00  0.00    -0.242 NA
HETATM   24  N   UNL     1      -7.793   4.410 -33.566  1.00  0.00    -0.350 N 
HETATM   25  C   UNL     1      -6.874   5.866 -30.473  1.00  0.00     0.119 A 
HETATM   26  C   UNL     1      -7.019   4.779 -29.627  1.00  0.00     0.020 A 
HETATM   27  H   UNL     1      -7.651   5.089 -34.301  1.00  0.00     0.166 HD
HETATM   28  C   UNL     1      -8.241   3.126 -33.705  1.00  0.00     0.098 A 
ENDBRANCH   1  19
TORSDOF 4
ENDMDL
MODEL 9
REMARK VINA RESULT:      -7.6      3.198      7.506
REMARK  4 active torsions:
REMARK  status: ('A' for Active; 'I' for Inactive)
REMARK    1  A    between atoms: C_10  and  C_11 
REMARK    2  A    between atoms: N_14  and  C_16 
REMARK    3  A    between atoms: C_16  and  C_17 
REMARK    4  A    between atoms: C_22  and  C_23 
ROOT
HETATM    1  C   UNL     1      -5.745   6.028 -32.073  1.00  0.00     0.024 C 
HETATM    2  C   UNL     1      -6.625   5.012 -31.318  1.00  0.00     0.037 C 
HETATM    3  C   UNL     1      -5.965   3.640 -31.279  1.00  0.00     0.236 C 
HETATM    4  N   UNL     1      -5.731   3.137 -32.685  1.00  0.00    -0.066 N 
HETATM    5  H   UNL     1      -6.662   2.905 -33.068  1.00  0.00     0.280 HD
HETATM    6  C   UNL     1      -5.021   4.110 -33.582  1.00  0.00     0.236 C 
HETATM    7  C   UNL     1      -5.623   5.507 -33.507  1.00  0.00     0.037 C 
ENDROOT
BRANCH   4   8
HETATM    8  C   UNL     1      -4.991   1.798 -32.686  1.00  0.00     0.294 C 
BRANCH   8   9
HETATM    9  C   UNL     1      -5.696   0.702 -33.461  1.00  0.00     0.075 A 
HETATM   10  N   UNL     1      -6.809   1.095 -34.148  1.00  0.00    -0.263 NA
HETATM   11  C   UNL     1      -7.467   0.146 -34.855  1.00  0.00     0.117 A 
HETATM   12  C   UNL     1      -7.070  -1.178 -34.919  1.00  0.00     0.020 A 
HETATM   13  C   UNL     1      -5.923  -1.557 -34.229  1.00  0.00     0.020 A 
HETATM   14  C   UNL     1      -5.206  -0.609 -33.492  1.00  0.00     0.074 A 
BRANCH  14  15
HETATM   15  C   UNL     1      -3.965  -0.989 -32.734  1.00  0.00     0.419 C 
HETATM   16  F   UNL     1      -3.666  -2.308 -32.899  1.00  0.00    -0.166 F 
HETATM   17  F   UNL     1      -2.877  -0.313 -33.193  1.00  0.00    -0.166 F 
HETATM   18  F   UNL     1      -4.030  -0.771 -31.400  1.00  0.00    -0.166 F 
ENDBRANCH  14  15
ENDBRANCH   8   9
ENDBRANCH   4   8
BRANCH   1  19
HETATM   19  C   UNL     1      -4.442   6.294 -31.331  1.00  0.00    -0.024 A 
HETATM   20  C   UNL     1      -3.115   6.605 -31.814  1.00  0.00     0.018 A 
HETATM   21  C   UNL     1      -2.273   6.622 -30.702  1.00  0.00     0.138 A 
HETATM   22  C   UNL     1      -2.491   6.860 -33.052  1.00  0.00     0.017 A 
HETATM   23  N   UNL     1      -0.940   6.789 -30.672  1.00  0.00    -0.242 NA
HETATM   24  N   UNL     1      -3.031   6.457 -29.585  1.00  0.00    -0.350 N 
HETATM   25  C   UNL     1      -0.397   6.999 -31.886  1.00  0.00     0.119 A 
HETATM   26  C   UNL     1      -1.106   7.052 -33.076  1.00  0.00     0.020 A 
HETATM   27  H   UNL     1      -2.654   6.479 -28.647  1.00  0.00     0.166 HD
HETATM   28  C   UNL     1      -4.338   6.275 -29.943  1.00  0.00     0.098 A 
ENDBRANCH   1  19
TORSDOF 4
ENDMDL
MODEL 10
REMARK VINA RESULT:      -7.5     18.033     19.771
REMARK  4 active torsions:
REMARK  status: ('A' for Active; 'I' for Inactive)
REMARK    1  A    between atoms: C_10  and  C_11 
REMARK    2  A    between atoms: N_14  and  C_16 
REMARK    3  A    between atoms: C_16  and  C_17 
REMARK    4  A    between atoms: C_22  and  C_23 
ROOT
HETATM    1  C   UNL     1      -8.409 -13.407 -37.999  1.00  0.00     0.024 C 
HETATM    2  C   UNL     1      -7.478 -12.229 -38.352  1.00  0.00     0.037 C 
HETATM    3  C   UNL     1      -6.652 -12.539 -39.594  1.00  0.00     0.236 C 
HETATM    4  N   UNL     1      -5.814 -13.776 -39.364  1.00  0.00    -0.066 N 
HETATM    5  H   UNL     1      -5.078 -13.505 -38.692  1.00  0.00     0.280 HD
HETATM    6  C   UNL     1      -6.583 -14.960 -38.854  1.00  0.00     0.236 C 
HETATM    7  C   UNL     1      -7.497 -14.596 -37.692  1.00  0.00     0.037 C 
ENDROOT
BRANCH   4   8
HETATM    8  C   UNL     1      -5.036 -14.167 -40.622  1.00  0.00     0.294 C 
BRANCH   8   9
HETATM    9  C   UNL     1      -3.529 -14.110 -40.459  1.00  0.00     0.075 A 
HETATM   10  N   UNL     1      -3.086 -13.492 -39.325  1.00  0.00    -0.263 NA
HETATM   11  C   UNL     1      -1.746 -13.421 -39.140  1.00  0.00     0.117 A 
HETATM   12  C   UNL     1      -0.822 -13.941 -40.028  1.00  0.00     0.020 A 
HETATM   13  C   UNL     1      -1.290 -14.584 -41.169  1.00  0.00     0.020 A 
HETATM   14  C   UNL     1      -2.665 -14.689 -41.397  1.00  0.00     0.074 A 
BRANCH  14  15
HETATM   15  C   UNL     1      -3.202 -15.375 -42.622  1.00  0.00     0.419 C 
HETATM   16  F   UNL     1      -3.793 -14.487 -43.469  1.00  0.00    -0.166 F 
HETATM   17  F   UNL     1      -2.203 -15.952 -43.343  1.00  0.00    -0.166 F 
HETATM   18  F   UNL     1      -4.117 -16.341 -42.372  1.00  0.00    -0.166 F 
ENDBRANCH  14  15
ENDBRANCH   8   9
ENDBRANCH   4   8
BRANCH   1  19
HETATM   19  C   UNL     1      -9.469 -13.618 -39.073  1.00  0.00    -0.024 A 
HETATM   20  C   UNL     1      -9.986 -14.825 -39.678  1.00  0.00     0.018 A 
HETATM   21  C   UNL     1     -10.850 -14.429 -40.697  1.00  0.00     0.138 A 
HETATM   22  C   UNL     1      -9.831 -16.218 -39.521  1.00  0.00     0.017 A 
HETATM   23  N   UNL     1     -11.502 -15.202 -41.583  1.00  0.00    -0.242 NA
HETATM   24  N   UNL     1     -10.968 -13.074 -40.661  1.00  0.00    -0.350 N 
HETATM   25  C   UNL     1     -11.291 -16.520 -41.402  1.00  0.00     0.119 A 
HETATM   26  C   UNL     1     -10.495 -17.070 -40.409  1.00  0.00     0.020 A 
HETATM   27  H   UNL     1     -11.577 -12.550 -41.274  1.00  0.00     0.166 HD
HETATM   28  C   UNL     1     -10.158 -12.573 -39.680  1.00  0.00     0.098 A 
ENDBRANCH   1  19
TORSDOF 4
ENDMDL
