MODEL 1
REMARK VINA RESULT:      -9.9      0.000      0.000
REMARK  6 active torsions:
REMARK  status: ('A' for Active; 'I' for Inactive)
REMARK    1  A    between atoms: C_2  and  N_3 
REMARK    2  A    between atoms: C_11  and  C_12 
REMARK    3  A    between atoms: C_14  and  C_15 
REMARK    4  A    between atoms: C_15  and  O_16 
REMARK    5  A    between atoms: O_16  and  C_17 
REMARK    6  A    between atoms: C_25  and  O_26 
ROOT
HETATM    1  N   UNL     1      -0.778   6.290 -28.805  1.00  0.00    -0.067 N 
HETATM    2  H   UNL     1      -1.056   5.338 -28.530  1.00  0.00     0.280 HD
HETATM    3  C   UNL     1      -2.077   7.075 -28.985  1.00  0.00     0.281 C 
HETATM    4  C   UNL     1      -2.804   6.635 -30.208  1.00  0.00     0.018 A 
HETATM    5  C   UNL     1      -2.266   5.867 -31.225  1.00  0.00    -0.023 A 
HETATM    6  C   UNL     1      -3.220   5.654 -32.272  1.00  0.00     0.073 A 
HETATM    7  C   UNL     1      -4.419   6.270 -32.002  1.00  0.00     0.088 A 
HETATM    8  N   UNL     1      -5.472   6.239 -32.845  1.00  0.00    -0.358 N 
HETATM    9  C   UNL     1      -5.517   5.217 -33.874  1.00  0.00     0.219 C 
HETATM   10  N   UNL     1      -4.180   4.922 -34.329  1.00  0.00    -0.332 N 
HETATM   11  C   UNL     1      -3.073   4.935 -33.524  1.00  0.00     0.256 C 
HETATM   12  O   UNL     1      -2.029   4.384 -33.853  1.00  0.00    -0.267 OA
HETATM   13  S   UNL     1      -4.417   7.085 -30.511  1.00  0.00    -0.074 SA
HETATM   14  C   UNL     1      -0.857   5.365 -31.161  1.00  0.00     0.068 C 
HETATM   15  C   UNL     1      -0.026   6.154 -30.135  1.00  0.00     0.240 C 
HETATM   16  H   UNL     1      -6.379   6.548 -32.509  1.00  0.00     0.162 HD
HETATM   17  H   UNL     1      -4.083   4.384 -35.178  1.00  0.00     0.165 HD
ENDROOT
BRANCH   9  18
HETATM   18  C   UNL     1      -6.300   4.002 -33.396  1.00  0.00    -0.016 A 
HETATM   19  C   UNL     1      -5.601   2.845 -33.000  1.00  0.00     0.023 A 
HETATM   20  C   UNL     1      -6.267   1.692 -32.538  1.00  0.00    -0.000 A 
HETATM   21  C   UNL     1      -7.668   1.697 -32.462  1.00  0.00     0.076 A 
HETATM   22  C   UNL     1      -8.374   2.837 -32.854  1.00  0.00     0.038 A 
HETATM   23  C   UNL     1      -7.699   3.973 -33.315  1.00  0.00     0.014 A 
BRANCH  20  24
HETATM   24  C   UNL     1      -5.457   0.469 -32.159  1.00  0.00     0.217 C 
BRANCH  24  25
HETATM   25  O   UNL     1      -4.791  -0.027 -33.325  1.00  0.00    -0.347 OA
BRANCH  25  26
HETATM   26  C   UNL     1      -5.198  -1.245 -33.798  1.00  0.00     0.070 A 
HETATM   27  C   UNL     1      -4.235  -2.256 -33.711  1.00  0.00     0.063 A 
HETATM   28  C   UNL     1      -4.524  -3.545 -34.159  1.00  0.00     0.075 A 
HETATM   29 CL   UNL     1      -3.324  -4.774 -34.039  1.00  0.00    -0.081 Cl
HETATM   30  C   UNL     1      -5.776  -3.826 -34.698  1.00  0.00     0.138 A 
HETATM   31  F   UNL     1      -6.078  -5.056 -35.137  1.00  0.00    -0.204 F 
HETATM   32  C   UNL     1      -6.740  -2.827 -34.794  1.00  0.00     0.047 A 
HETATM   33  C   UNL     1      -6.452  -1.534 -34.346  1.00  0.00     0.040 A 
ENDBRANCH  25  26
ENDBRANCH  24  25
ENDBRANCH  20  24
BRANCH  21  34
HETATM   34  O   UNL     1      -8.261   0.542 -32.027  1.00  0.00    -0.355 OA
HETATM   35  C   UNL     1      -9.484   0.167 -32.651  1.00  0.00     0.210 C 
ENDBRANCH  21  34
ENDBRANCH   9  18
BRANCH   1  36
HETATM   36  C   UNL     1       0.113   6.850 -27.725  1.00  0.00     0.231 C 
HETATM   37  C   UNL     1       0.955   7.998 -28.250  1.00  0.00     0.034 C 
ENDBRANCH   1  36
TORSDOF 6
ENDMDL
MODEL 2
REMARK VINA RESULT:      -9.9      2.106      2.593
REMARK  6 active torsions:
REMARK  status: ('A' for Active; 'I' for Inactive)
REMARK    1  A    between atoms: C_2  and  N_3 
REMARK    2  A    between atoms: C_11  and  C_12 
REMARK    3  A    between atoms: C_14  and  C_15 
REMARK    4  A    between atoms: C_15  and  O_16 
REMARK    5  A    between atoms: O_16  and  C_17 
REMARK    6  A    between atoms: C_25  and  O_26 
ROOT
HETATM    1  N   UNL     1       0.019   8.183 -26.902  1.00  0.00    -0.067 N 
HETATM    2  H   UNL     1      -0.209   7.304 -26.419  1.00  0.00     0.280 HD
HETATM    3  C   UNL     1      -1.265   8.628 -27.602  1.00  0.00     0.281 C 
HETATM    4  C   UNL     1      -1.573   7.747 -28.763  1.00  0.00     0.018 A 
HETATM    5  C   UNL     1      -0.691   6.856 -29.347  1.00  0.00    -0.023 A 
HETATM    6  C   UNL     1      -1.292   6.193 -30.466  1.00  0.00     0.073 A 
HETATM    7  C   UNL     1      -2.583   6.615 -30.676  1.00  0.00     0.088 A 
HETATM    8  N   UNL     1      -3.355   6.160 -31.684  1.00  0.00    -0.358 N 
HETATM    9  C   UNL     1      -2.996   4.913 -32.334  1.00  0.00     0.219 C 
HETATM   10  N   UNL     1      -1.561   4.771 -32.361  1.00  0.00    -0.332 N 
HETATM   11  C   UNL     1      -0.725   5.209 -31.371  1.00  0.00     0.256 C 
HETATM   12  O   UNL     1       0.427   4.803 -31.270  1.00  0.00    -0.267 OA
HETATM   13  S   UNL     1      -3.084   7.781 -29.546  1.00  0.00    -0.074 SA
HETATM   14  C   UNL     1       0.696   6.669 -28.815  1.00  0.00     0.068 C 
HETATM   15  C   UNL     1       1.116   7.847 -27.920  1.00  0.00     0.240 C 
HETATM   16  H   UNL     1      -4.349   6.367 -31.673  1.00  0.00     0.162 HD
HETATM   17  H   UNL     1      -1.174   4.056 -32.960  1.00  0.00     0.165 HD
ENDROOT
BRANCH   9  18
HETATM   18  C   UNL     1      -3.731   3.741 -31.697  1.00  0.00    -0.016 A 
HETATM   19  C   UNL     1      -3.279   2.430 -31.943  1.00  0.00     0.023 A 
HETATM   20  C   UNL     1      -3.910   1.304 -31.374  1.00  0.00    -0.000 A 
HETATM   21  C   UNL     1      -5.016   1.493 -30.533  1.00  0.00     0.076 A 
HETATM   22  C   UNL     1      -5.477   2.788 -30.283  1.00  0.00     0.038 A 
HETATM   23  C   UNL     1      -4.843   3.896 -30.858  1.00  0.00     0.014 A 
BRANCH  20  24
HETATM   24  C   UNL     1      -3.392  -0.081 -31.705  1.00  0.00     0.217 C 
BRANCH  24  25
HETATM   25  O   UNL     1      -3.414  -0.259 -33.126  1.00  0.00    -0.347 OA
BRANCH  25  26
HETATM   26  C   UNL     1      -4.406  -1.052 -33.634  1.00  0.00     0.070 A 
HETATM   27  C   UNL     1      -4.085  -2.412 -33.706  1.00  0.00     0.063 A 
HETATM   28  C   UNL     1      -5.011  -3.329 -34.206  1.00  0.00     0.075 A 
HETATM   29 CL   UNL     1      -4.595  -4.998 -34.283  1.00  0.00    -0.081 Cl
HETATM   30  C   UNL     1      -6.258  -2.887 -34.638  1.00  0.00     0.138 A 
HETATM   31  F   UNL     1      -7.164  -3.747 -35.123  1.00  0.00    -0.204 F 
HETATM   32  C   UNL     1      -6.586  -1.537 -34.576  1.00  0.00     0.047 A 
HETATM   33  C   UNL     1      -5.660  -0.616 -34.076  1.00  0.00     0.040 A 
ENDBRANCH  25  26
ENDBRANCH  24  25
ENDBRANCH  20  24
BRANCH  21  34
HETATM   34  O   UNL     1      -5.601   0.363 -30.028  1.00  0.00    -0.355 OA
HETATM   35  C   UNL     1      -6.827  -0.051 -30.620  1.00  0.00     0.210 C 
ENDBRANCH  21  34
ENDBRANCH   9  18
BRANCH   1  36
HETATM   36  C   UNL     1       0.510   9.171 -25.873  1.00  0.00     0.231 C 
HETATM   37  C   UNL     1       1.934   8.861 -25.450  1.00  0.00     0.034 C 
ENDBRANCH   1  36
TORSDOF 6
ENDMDL
MODEL 3
REMARK VINA RESULT:      -9.5      2.659      3.572
REMARK  6 active torsions:
REMARK  status: ('A' for Active; 'I' for Inactive)
REMARK    1  A    between atoms: C_2  and  N_3 
REMARK    2  A    between atoms: C_11  and  C_12 
REMARK    3  A    between atoms: C_14  and  C_15 
REMARK    4  A    between atoms: C_15  and  O_16 
REMARK    5  A    between atoms: O_16  and  C_17 
REMARK    6  A    between atoms: C_25  and  O_26 
ROOT
HETATM    1  N   UNL     1      -2.009   6.376 -32.201  1.00  0.00    -0.067 N 
HETATM    2  H   UNL     1      -2.699   6.602 -32.930  1.00  0.00     0.280 HD
HETATM    3  C   UNL     1      -1.937   4.850 -32.145  1.00  0.00     0.281 C 
HETATM    4  C   UNL     1      -3.173   4.278 -31.543  1.00  0.00     0.018 A 
HETATM    5  C   UNL     1      -4.122   4.992 -30.834  1.00  0.00    -0.023 A 
HETATM    6  C   UNL     1      -5.166   4.135 -30.359  1.00  0.00     0.073 A 
HETATM    7  C   UNL     1      -4.955   2.826 -30.721  1.00  0.00     0.088 A 
HETATM    8  N   UNL     1      -5.783   1.820 -30.372  1.00  0.00    -0.358 N 
HETATM    9  C   UNL     1      -7.136   2.138 -29.955  1.00  0.00     0.219 C 
HETATM   10  N   UNL     1      -7.148   3.400 -29.255  1.00  0.00    -0.332 N 
HETATM   11  C   UNL     1      -6.336   4.457 -29.562  1.00  0.00     0.256 C 
HETATM   12  O   UNL     1      -6.580   5.594 -29.174  1.00  0.00    -0.267 OA
HETATM   13  S   UNL     1      -3.534   2.617 -31.629  1.00  0.00    -0.074 SA
HETATM   14  C   UNL     1      -3.997   6.471 -30.637  1.00  0.00     0.068 C 
HETATM   15  C   UNL     1      -2.558   6.952 -30.890  1.00  0.00     0.240 C 
HETATM   16  H   UNL     1      -5.676   0.917 -30.823  1.00  0.00     0.162 HD
HETATM   17  H   UNL     1      -7.981   3.639 -28.738  1.00  0.00     0.165 HD
ENDROOT
BRANCH   9  18
HETATM   18  C   UNL     1      -8.097   2.064 -31.134  1.00  0.00    -0.016 A 
HETATM   19  C   UNL     1      -7.792   1.217 -32.217  1.00  0.00     0.023 A 
HETATM   20  C   UNL     1      -8.646   1.097 -33.333  1.00  0.00    -0.000 A 
HETATM   21  C   UNL     1      -9.838   1.835 -33.364  1.00  0.00     0.076 A 
HETATM   22  C   UNL     1     -10.151   2.681 -32.298  1.00  0.00     0.038 A 
HETATM   23  C   UNL     1      -9.292   2.794 -31.198  1.00  0.00     0.014 A 
BRANCH  20  24
HETATM   24  C   UNL     1      -8.243   0.192 -34.480  1.00  0.00     0.217 C 
BRANCH  24  25
HETATM   25  O   UNL     1      -6.842   0.351 -34.728  1.00  0.00    -0.347 OA
BRANCH  25  26
HETATM   26  C   UNL     1      -6.039  -0.721 -34.449  1.00  0.00     0.070 A 
HETATM   27  C   UNL     1      -6.486  -1.937 -34.978  1.00  0.00     0.063 A 
HETATM   28  C   UNL     1      -5.757  -3.108 -34.764  1.00  0.00     0.075 A 
HETATM   29 CL   UNL     1      -6.325  -4.592 -35.427  1.00  0.00    -0.081 Cl
HETATM   30  C   UNL     1      -4.582  -3.065 -34.020  1.00  0.00     0.138 A 
HETATM   31  F   UNL     1      -3.865  -4.176 -33.800  1.00  0.00    -0.204 F 
HETATM   32  C   UNL     1      -4.131  -1.863 -33.485  1.00  0.00     0.047 A 
HETATM   33  C   UNL     1      -4.860  -0.688 -33.697  1.00  0.00     0.040 A 
ENDBRANCH  25  26
ENDBRANCH  24  25
ENDBRANCH  20  24
BRANCH  21  34
HETATM   34  O   UNL     1     -10.616   1.696 -34.483  1.00  0.00    -0.355 OA
HETATM   35  C   UNL     1     -12.008   1.480 -34.281  1.00  0.00     0.210 C 
ENDBRANCH  21  34
ENDBRANCH   9  18
BRANCH   1  36
HETATM   36  C   UNL     1      -0.699   7.022 -32.578  1.00  0.00     0.231 C 
HETATM   37  C   UNL     1       0.371   6.738 -31.539  1.00  0.00     0.034 C 
ENDBRANCH   1  36
TORSDOF 6
ENDMDL
MODEL 4
REMARK VINA RESULT:      -9.2      1.961      2.646
REMARK  6 active torsions:
REMARK  status: ('A' for Active; 'I' for Inactive)
REMARK    1  A    between atoms: C_2  and  N_3 
REMARK    2  A    between atoms: C_11  and  C_12 
REMARK    3  A    between atoms: C_14  and  C_15 
REMARK    4  A    between atoms: C_15  and  O_16 
REMARK    5  A    between atoms: O_16  and  C_17 
REMARK    6  A    between atoms: C_25  and  O_26 
ROOT
HETATM    1  N   UNL     1      -0.573   8.883 -27.675  1.00  0.00    -0.067 N 
HETATM    2  H   UNL     1      -1.113   8.169 -27.167  1.00  0.00     0.280 HD
HETATM    3  C   UNL     1      -1.494   9.402 -28.779  1.00  0.00     0.281 C 
HETATM    4  C   UNL     1      -1.675   8.381 -29.848  1.00  0.00     0.018 A 
HETATM    5  C   UNL     1      -0.895   7.252 -30.017  1.00  0.00    -0.023 A 
HETATM    6  C   UNL     1      -1.313   6.501 -31.162  1.00  0.00     0.073 A 
HETATM    7  C   UNL     1      -2.374   7.096 -31.803  1.00  0.00     0.088 A 
HETATM    8  N   UNL     1      -2.934   6.597 -32.924  1.00  0.00    -0.358 N 
HETATM    9  C   UNL     1      -2.708   5.203 -33.261  1.00  0.00     0.219 C 
HETATM   10  N   UNL     1      -1.385   4.807 -32.840  1.00  0.00    -0.332 N 
HETATM   11  C   UNL     1      -0.764   5.276 -31.715  1.00  0.00     0.256 C 
HETATM   12  O   UNL     1       0.199   4.700 -31.221  1.00  0.00    -0.267 OA
HETATM   13  S   UNL     1      -2.879   8.529 -31.042  1.00  0.00    -0.074 SA
HETATM   14  C   UNL     1       0.224   6.931 -29.075  1.00  0.00     0.068 C 
HETATM   15  C   UNL     1       0.648   8.167 -28.264  1.00  0.00     0.240 C 
HETATM   16  H   UNL     1      -3.823   6.974 -33.237  1.00  0.00     0.162 HD
HETATM   17  H   UNL     1      -1.025   3.933 -33.193  1.00  0.00     0.165 HD
ENDROOT
BRANCH   9  18
HETATM   18  C   UNL     1      -3.828   4.327 -32.719  1.00  0.00    -0.016 A 
HETATM   19  C   UNL     1      -3.531   3.019 -32.289  1.00  0.00     0.023 A 
HETATM   20  C   UNL     1      -4.522   2.161 -31.768  1.00  0.00    -0.000 A 
HETATM   21  C   UNL     1      -5.842   2.625 -31.666  1.00  0.00     0.076 A 
HETATM   22  C   UNL     1      -6.151   3.920 -32.091  1.00  0.00     0.038 A 
HETATM   23  C   UNL     1      -5.157   4.759 -32.611  1.00  0.00     0.014 A 
BRANCH  20  24
HETATM   24  C   UNL     1      -4.142   0.755 -31.354  1.00  0.00     0.217 C 
BRANCH  24  25
HETATM   25  O   UNL     1      -3.319   0.176 -32.373  1.00  0.00    -0.347 OA
BRANCH  25  26
HETATM   26  C   UNL     1      -3.424  -1.176 -32.559  1.00  0.00     0.070 A 
HETATM   27  C   UNL     1      -4.253  -1.555 -33.620  1.00  0.00     0.063 A 
HETATM   28  C   UNL     1      -4.444  -2.906 -33.916  1.00  0.00     0.075 A 
HETATM   29 CL   UNL     1      -5.466  -3.349 -35.229  1.00  0.00    -0.081 Cl
HETATM   30  C   UNL     1      -3.811  -3.879 -33.148  1.00  0.00     0.138 A 
HETATM   31  F   UNL     1      -3.980  -5.182 -33.411  1.00  0.00    -0.204 F 
HETATM   32  C   UNL     1      -2.990  -3.513 -32.087  1.00  0.00     0.047 A 
HETATM   33  C   UNL     1      -2.796  -2.160 -31.789  1.00  0.00     0.040 A 
ENDBRANCH  25  26
ENDBRANCH  24  25
ENDBRANCH  20  24
BRANCH  21  34
HETATM   34  O   UNL     1      -6.765   1.742 -31.174  1.00  0.00    -0.355 OA
HETATM   35  C   UNL     1      -8.046   1.731 -31.794  1.00  0.00     0.210 C 
ENDBRANCH  21  34
ENDBRANCH   9  18
BRANCH   1  36
HETATM   36  C   UNL     1      -0.162   9.949 -26.690  1.00  0.00     0.231 C 
HETATM   37  C   UNL     1       1.095   9.549 -25.941  1.00  0.00     0.034 C 
ENDBRANCH   1  36
TORSDOF 6
ENDMDL
MODEL 5
REMARK VINA RESULT:      -8.9      5.630      8.599
REMARK  6 active torsions:
REMARK  status: ('A' for Active; 'I' for Inactive)
REMARK    1  A    between atoms: C_2  and  N_3 
REMARK    2  A    between atoms: C_11  and  C_12 
REMARK    3  A    between atoms: C_14  and  C_15 
REMARK    4  A    between atoms: C_15  and  O_16 
REMARK    5  A    between atoms: O_16  and  C_17 
REMARK    6  A    between atoms: C_25  and  O_26 
ROOT
HETATM    1  N   UNL     1      -5.841  -1.725 -34.499  1.00  0.00    -0.067 N 
HETATM    2  H   UNL     1      -5.702  -0.904 -35.102  1.00  0.00     0.280 HD
HETATM    3  C   UNL     1      -7.322  -1.726 -34.119  1.00  0.00     0.281 C 
HETATM    4  C   UNL     1      -7.630  -0.627 -33.163  1.00  0.00     0.018 A 
HETATM    5  C   UNL     1      -6.693   0.101 -32.453  1.00  0.00    -0.023 A 
HETATM    6  C   UNL     1      -7.325   1.057 -31.594  1.00  0.00     0.073 A 
HETATM    7  C   UNL     1      -8.695   1.002 -31.690  1.00  0.00     0.088 A 
HETATM    8  N   UNL     1      -9.519   1.784 -30.962  1.00  0.00    -0.358 N 
HETATM    9  C   UNL     1      -8.987   2.992 -30.357  1.00  0.00     0.219 C 
HETATM   10  N   UNL     1      -7.613   2.780 -29.970  1.00  0.00    -0.332 N 
HETATM   11  C   UNL     1      -6.729   2.001 -30.665  1.00  0.00     0.256 C 
HETATM   12  O   UNL     1      -5.518   2.092 -30.499  1.00  0.00    -0.267 OA
HETATM   13  S   UNL     1      -9.228  -0.168 -32.801  1.00  0.00    -0.074 SA
HETATM   14  C   UNL     1      -5.226  -0.143 -32.620  1.00  0.00     0.068 C 
HETATM   15  C   UNL     1      -4.955  -1.513 -33.265  1.00  0.00     0.240 C 
HETATM   16  H   UNL     1     -10.502   1.828 -31.213  1.00  0.00     0.162 HD
HETATM   17  H   UNL     1      -7.190   3.463 -29.359  1.00  0.00     0.165 HD
ENDROOT
BRANCH   9  18
HETATM   18  C   UNL     1      -9.205   4.194 -31.266  1.00  0.00    -0.016 A 
HETATM   19  C   UNL     1     -10.477   4.403 -31.835  1.00  0.00     0.023 A 
HETATM   20  C   UNL     1     -10.745   5.503 -32.677  1.00  0.00    -0.000 A 
HETATM   21  C   UNL     1      -9.720   6.420 -32.951  1.00  0.00     0.076 A 
HETATM   22  C   UNL     1      -8.453   6.222 -32.395  1.00  0.00     0.038 A 
HETATM   23  C   UNL     1      -8.200   5.123 -31.565  1.00  0.00     0.014 A 
BRANCH  20  24
HETATM   24  C   UNL     1     -12.126   5.653 -33.282  1.00  0.00     0.217 C 
BRANCH  24  25
HETATM   25  O   UNL     1     -12.203   4.855 -34.469  1.00  0.00    -0.347 OA
BRANCH  25  26
HETATM   26  C   UNL     1     -12.691   3.585 -34.329  1.00  0.00     0.070 A 
HETATM   27  C   UNL     1     -13.687   3.447 -33.356  1.00  0.00     0.063 A 
HETATM   28  C   UNL     1     -14.268   2.202 -33.114  1.00  0.00     0.075 A 
HETATM   29 CL   UNL     1     -15.494   2.057 -31.914  1.00  0.00    -0.081 Cl
HETATM   30  C   UNL     1     -13.853   1.091 -33.843  1.00  0.00     0.138 A 
HETATM   31  F   UNL     1     -14.396  -0.116 -33.629  1.00  0.00    -0.204 F 
HETATM   32  C   UNL     1     -12.860   1.215 -34.809  1.00  0.00     0.047 A 
HETATM   33  C   UNL     1     -12.276   2.462 -35.053  1.00  0.00     0.040 A 
ENDBRANCH  25  26
ENDBRANCH  24  25
ENDBRANCH  20  24
BRANCH  21  34
HETATM   34  O   UNL     1     -10.033   7.454 -33.791  1.00  0.00    -0.355 OA
HETATM   35  C   UNL     1      -9.989   8.768 -33.246  1.00  0.00     0.210 C 
ENDBRANCH  21  34
ENDBRANCH   9  18
BRANCH   1  36
HETATM   36  C   UNL     1      -5.422  -2.951 -35.271  1.00  0.00     0.231 C 
HETATM   37  C   UNL     1      -6.305  -4.139 -34.935  1.00  0.00     0.034 C 
ENDBRANCH   1  36
TORSDOF 6
ENDMDL
MODEL 6
REMARK VINA RESULT:      -8.8      4.556      8.026
REMARK  6 active torsions:
REMARK  status: ('A' for Active; 'I' for Inactive)
REMARK    1  A    between atoms: C_2  and  N_3 
REMARK    2  A    between atoms: C_11  and  C_12 
REMARK    3  A    between atoms: C_14  and  C_15 
REMARK    4  A    between atoms: C_15  and  O_16 
REMARK    5  A    between atoms: O_16  and  C_17 
REMARK    6  A    between atoms: C_25  and  O_26 
ROOT
HETATM    1  N   UNL     1     -10.251   6.665 -35.026  1.00  0.00    -0.067 N 
HETATM    2  H   UNL     1      -9.522   6.298 -35.652  1.00  0.00     0.280 HD
HETATM    3  C   UNL     1      -9.738   6.444 -33.603  1.00  0.00     0.281 C 
HETATM    4  C   UNL     1      -9.768   4.999 -33.243  1.00  0.00     0.018 A 
HETATM    5  C   UNL     1     -10.449   4.015 -33.937  1.00  0.00    -0.023 A 
HETATM    6  C   UNL     1     -10.302   2.739 -33.303  1.00  0.00     0.073 A 
HETATM    7  C   UNL     1      -9.530   2.820 -32.169  1.00  0.00     0.088 A 
HETATM    8  N   UNL     1      -9.265   1.759 -31.379  1.00  0.00    -0.358 N 
HETATM    9  C   UNL     1      -9.440   0.422 -31.917  1.00  0.00     0.219 C 
HETATM   10  N   UNL     1     -10.543   0.411 -32.848  1.00  0.00    -0.332 N 
HETATM   11  C   UNL     1     -10.862   1.452 -33.676  1.00  0.00     0.256 C 
HETATM   12  O   UNL     1     -11.584   1.302 -34.655  1.00  0.00    -0.267 OA
HETATM   13  S   UNL     1      -8.974   4.396 -31.864  1.00  0.00    -0.074 SA
HETATM   14  C   UNL     1     -11.217   4.331 -35.183  1.00  0.00     0.068 C 
HETATM   15  C   UNL     1     -11.513   5.836 -35.294  1.00  0.00     0.240 C 
HETATM   16  H   UNL     1      -8.543   1.843 -30.670  1.00  0.00     0.162 HD
HETATM   17  H   UNL     1     -10.900  -0.488 -33.138  1.00  0.00     0.165 HD
ENDROOT
BRANCH   9  18
HETATM   18  C   UNL     1      -8.131  -0.107 -32.488  1.00  0.00    -0.016 A 
HETATM   19  C   UNL     1      -6.948   0.029 -31.735  1.00  0.00     0.023 A 
HETATM   20  C   UNL     1      -5.707  -0.449 -32.204  1.00  0.00    -0.000 A 
HETATM   21  C   UNL     1      -5.647  -1.086 -33.452  1.00  0.00     0.076 A 
HETATM   22  C   UNL     1      -6.812  -1.225 -34.210  1.00  0.00     0.038 A 
HETATM   23  C   UNL     1      -8.037  -0.742 -33.734  1.00  0.00     0.014 A 
BRANCH  20  24
HETATM   24  C   UNL     1      -4.466  -0.241 -31.359  1.00  0.00     0.217 C 
BRANCH  24  25
HETATM   25  O   UNL     1      -4.646   0.924 -30.547  1.00  0.00    -0.347 OA
BRANCH  25  26
HETATM   26  C   UNL     1      -4.275   2.122 -31.095  1.00  0.00     0.070 A 
HETATM   27  C   UNL     1      -4.969   3.230 -30.598  1.00  0.00     0.063 A 
HETATM   28  C   UNL     1      -4.686   4.511 -31.075  1.00  0.00     0.075 A 
HETATM   29 CL   UNL     1      -5.550   5.860 -30.446  1.00  0.00    -0.081 Cl
HETATM   30  C   UNL     1      -3.711   4.685 -32.052  1.00  0.00     0.138 A 
HETATM   31  F   UNL     1      -3.421   5.905 -32.527  1.00  0.00    -0.204 F 
HETATM   32  C   UNL     1      -3.018   3.590 -32.558  1.00  0.00     0.047 A 
HETATM   33  C   UNL     1      -3.301   2.305 -32.082  1.00  0.00     0.040 A 
ENDBRANCH  25  26
ENDBRANCH  24  25
ENDBRANCH  20  24
BRANCH  21  34
HETATM   34  O   UNL     1      -4.412  -1.509 -33.865  1.00  0.00    -0.355 OA
HETATM   35  C   UNL     1      -4.304  -2.856 -34.310  1.00  0.00     0.210 C 
ENDBRANCH  21  34
ENDBRANCH   9  18
BRANCH   1  36
HETATM   36  C   UNL     1     -10.468   8.120 -35.362  1.00  0.00     0.231 C 
HETATM   37  C   UNL     1     -10.528   8.333 -36.863  1.00  0.00     0.034 C 
ENDBRANCH   1  36
TORSDOF 6
ENDMDL
MODEL 7
REMARK VINA RESULT:      -8.8      4.490      8.284
REMARK  6 active torsions:
REMARK  status: ('A' for Active; 'I' for Inactive)
REMARK    1  A    between atoms: C_2  and  N_3 
REMARK    2  A    between atoms: C_11  and  C_12 
REMARK    3  A    between atoms: C_14  and  C_15 
REMARK    4  A    between atoms: C_15  and  O_16 
REMARK    5  A    between atoms: O_16  and  C_17 
REMARK    6  A    between atoms: C_25  and  O_26 
ROOT
HETATM    1  N   UNL     1      -5.772  -1.646 -34.415  1.00  0.00    -0.067 N 
HETATM    2  H   UNL     1      -5.587  -0.805 -34.978  1.00  0.00     0.280 HD
HETATM    3  C   UNL     1      -7.264  -1.615 -34.083  1.00  0.00     0.281 C 
HETATM    4  C   UNL     1      -7.569  -0.546 -33.092  1.00  0.00     0.018 A 
HETATM    5  C   UNL     1      -6.634   0.122 -32.322  1.00  0.00    -0.023 A 
HETATM    6  C   UNL     1      -7.264   1.062 -31.444  1.00  0.00     0.073 A 
HETATM    7  C   UNL     1      -8.631   1.055 -31.586  1.00  0.00     0.088 A 
HETATM    8  N   UNL     1      -9.454   1.833 -30.852  1.00  0.00    -0.358 N 
HETATM    9  C   UNL     1      -8.906   2.996 -30.180  1.00  0.00     0.219 C 
HETATM   10  N   UNL     1      -7.553   2.725 -29.759  1.00  0.00    -0.332 N 
HETATM   11  C   UNL     1      -6.671   1.947 -30.458  1.00  0.00     0.256 C 
HETATM   12  O   UNL     1      -5.464   1.991 -30.249  1.00  0.00    -0.267 OA
HETATM   13  S   UNL     1      -9.164  -0.050 -32.762  1.00  0.00    -0.074 SA
HETATM   14  C   UNL     1      -5.170  -0.163 -32.453  1.00  0.00     0.068 C 
HETATM   15  C   UNL     1      -4.921  -1.514 -33.145  1.00  0.00     0.240 C 
HETATM   16  H   UNL     1     -10.426   1.919 -31.132  1.00  0.00     0.162 HD
HETATM   17  H   UNL     1      -7.129   3.368 -29.106  1.00  0.00     0.165 HD
ENDROOT
BRANCH   9  18
HETATM   18  C   UNL     1      -9.056   4.241 -31.045  1.00  0.00    -0.016 A 
HETATM   19  C   UNL     1      -7.921   5.026 -31.323  1.00  0.00     0.023 A 
HETATM   20  C   UNL     1      -7.993   6.184 -32.125  1.00  0.00    -0.000 A 
HETATM   21  C   UNL     1      -9.229   6.563 -32.669  1.00  0.00     0.076 A 
HETATM   22  C   UNL     1     -10.364   5.794 -32.399  1.00  0.00     0.038 A 
HETATM   23  C   UNL     1     -10.278   4.649 -31.597  1.00  0.00     0.014 A 
BRANCH  20  24
HETATM   24  C   UNL     1      -6.739   7.003 -32.358  1.00  0.00     0.217 C 
BRANCH  24  25
HETATM   25  O   UNL     1      -5.607   6.266 -31.882  1.00  0.00    -0.347 OA
BRANCH  25  26
HETATM   26  C   UNL     1      -4.607   6.020 -32.783  1.00  0.00     0.070 A 
HETATM   27  C   UNL     1      -3.357   6.532 -32.420  1.00  0.00     0.063 A 
HETATM   28  C   UNL     1      -2.252   6.349 -33.253  1.00  0.00     0.075 A 
HETATM   29 CL   UNL     1      -0.722   6.984 -32.784  1.00  0.00    -0.081 Cl
HETATM   30  C   UNL     1      -2.397   5.657 -34.452  1.00  0.00     0.138 A 
HETATM   31  F   UNL     1      -1.351   5.469 -35.269  1.00  0.00    -0.204 F 
HETATM   32  C   UNL     1      -3.636   5.149 -34.825  1.00  0.00     0.047 A 
HETATM   33  C   UNL     1      -4.745   5.331 -33.992  1.00  0.00     0.040 A 
ENDBRANCH  25  26
ENDBRANCH  24  25
ENDBRANCH  20  24
BRANCH  21  34
HETATM   34  O   UNL     1      -9.242   7.707 -33.421  1.00  0.00    -0.355 OA
HETATM   35  C   UNL     1     -10.368   8.565 -33.274  1.00  0.00     0.210 C 
ENDBRANCH  21  34
ENDBRANCH   9  18
BRANCH   1  36
HETATM   36  C   UNL     1      -5.366  -2.852 -35.224  1.00  0.00     0.231 C 
HETATM   37  C   UNL     1      -6.327  -4.006 -35.009  1.00  0.00     0.034 C 
ENDBRANCH   1  36
TORSDOF 6
ENDMDL
MODEL 8
REMARK VINA RESULT:      -8.7      3.679      7.436
REMARK  6 active torsions:
REMARK  status: ('A' for Active; 'I' for Inactive)
REMARK    1  A    between atoms: C_2  and  N_3 
REMARK    2  A    between atoms: C_11  and  C_12 
REMARK    3  A    between atoms: C_14  and  C_15 
REMARK    4  A    between atoms: C_15  and  O_16 
REMARK    5  A    between atoms: O_16  and  C_17 
REMARK    6  A    between atoms: C_25  and  O_26 
ROOT
HETATM    1  N   UNL     1     -12.621   6.598 -34.163  1.00  0.00    -0.067 N 
HETATM    2  H   UNL     1     -11.724   6.772 -34.636  1.00  0.00     0.280 HD
HETATM    3  C   UNL     1     -12.301   6.501 -32.671  1.00  0.00     0.281 C 
HETATM    4  C   UNL     1     -11.574   5.239 -32.360  1.00  0.00     0.018 A 
HETATM    5  C   UNL     1     -11.472   4.147 -33.202  1.00  0.00    -0.023 A 
HETATM    6  C   UNL     1     -10.739   3.083 -32.583  1.00  0.00     0.073 A 
HETATM    7  C   UNL     1     -10.331   3.417 -31.314  1.00  0.00     0.088 A 
HETATM    8  N   UNL     1      -9.646   2.575 -30.513  1.00  0.00    -0.358 N 
HETATM    9  C   UNL     1      -8.958   1.444 -31.108  1.00  0.00     0.219 C 
HETATM   10  N   UNL     1      -9.705   0.961 -32.244  1.00  0.00    -0.332 N 
HETATM   11  C   UNL     1     -10.418   1.762 -33.093  1.00  0.00     0.256 C 
HETATM   12  O   UNL     1     -10.770   1.377 -34.203  1.00  0.00    -0.267 OA
HETATM   13  S   UNL     1     -10.805   4.985 -30.863  1.00  0.00    -0.074 SA
HETATM   14  C   UNL     1     -12.080   4.158 -34.570  1.00  0.00     0.068 C 
HETATM   15  C   UNL     1     -13.144   5.261 -34.703  1.00  0.00     0.240 C 
HETATM   16  H   UNL     1      -9.215   2.942 -29.670  1.00  0.00     0.162 HD
HETATM   17  H   UNL     1      -9.450   0.060 -32.622  1.00  0.00     0.165 HD
ENDROOT
BRANCH   9  18
HETATM   18  C   UNL     1      -7.507   1.792 -31.413  1.00  0.00    -0.016 A 
HETATM   19  C   UNL     1      -6.566   0.754 -31.553  1.00  0.00     0.023 A 
HETATM   20  C   UNL     1      -5.211   1.011 -31.845  1.00  0.00    -0.000 A 
HETATM   21  C   UNL     1      -4.786   2.338 -32.009  1.00  0.00     0.076 A 
HETATM   22  C   UNL     1      -5.709   3.377 -31.869  1.00  0.00     0.038 A 
HETATM   23  C   UNL     1      -7.051   3.108 -31.575  1.00  0.00     0.014 A 
BRANCH  20  24
HETATM   24  C   UNL     1      -4.243  -0.150 -31.951  1.00  0.00     0.217 C 
BRANCH  24  25
HETATM   25  O   UNL     1      -4.047  -0.467 -33.334  1.00  0.00    -0.347 OA
BRANCH  25  26
HETATM   26  C   UNL     1      -4.825  -1.465 -33.856  1.00  0.00     0.070 A 
HETATM   27  C   UNL     1      -4.261  -2.743 -33.781  1.00  0.00     0.063 A 
HETATM   28  C   UNL     1      -4.954  -3.848 -34.279  1.00  0.00     0.075 A 
HETATM   29 CL   UNL     1      -4.242  -5.412 -34.174  1.00  0.00    -0.081 Cl
HETATM   30  C   UNL     1      -6.209  -3.676 -34.854  1.00  0.00     0.138 A 
HETATM   31  F   UNL     1      -6.894  -4.721 -35.339  1.00  0.00    -0.204 F 
HETATM   32  C   UNL     1      -6.777  -2.409 -34.938  1.00  0.00     0.047 A 
HETATM   33  C   UNL     1      -6.085  -1.300 -34.440  1.00  0.00     0.040 A 
ENDBRANCH  25  26
ENDBRANCH  24  25
ENDBRANCH  20  24
BRANCH  21  34
HETATM   34  O   UNL     1      -3.455   2.527 -32.269  1.00  0.00    -0.355 OA
HETATM   35  C   UNL     1      -2.884   3.764 -31.858  1.00  0.00     0.210 C 
ENDBRANCH  21  34
ENDBRANCH   9  18
BRANCH   1  36
HETATM   36  C   UNL     1     -13.558   7.730 -34.500  1.00  0.00     0.231 C 
HETATM   37  C   UNL     1     -14.795   7.224 -35.217  1.00  0.00     0.034 C 
ENDBRANCH   1  36
TORSDOF 6
ENDMDL
MODEL 9
REMARK VINA RESULT:      -8.6      4.461      6.519
REMARK  6 active torsions:
REMARK  status: ('A' for Active; 'I' for Inactive)
REMARK    1  A    between atoms: C_2  and  N_3 
REMARK    2  A    between atoms: C_11  and  C_12 
REMARK    3  A    between atoms: C_14  and  C_15 
REMARK    4  A    between atoms: C_15  and  O_16 
REMARK    5  A    between atoms: O_16  and  C_17 
REMARK    6  A    between atoms: C_25  and  O_26 
ROOT
HETATM    1  N   UNL     1      -8.169   7.127 -30.042  1.00  0.00    -0.067 N 
HETATM    2  H   UNL     1      -7.210   6.820 -30.254  1.00  0.00     0.280 HD
HETATM    3  C   UNL     1      -8.903   5.893 -29.519  1.00  0.00     0.281 C 
HETATM    4  C   UNL     1      -9.161   4.919 -30.616  1.00  0.00     0.018 A 
HETATM    5  C   UNL     1      -9.060   5.192 -31.968  1.00  0.00    -0.023 A 
HETATM    6  C   UNL     1      -9.413   4.048 -32.754  1.00  0.00     0.073 A 
HETATM    7  C   UNL     1      -9.767   2.978 -31.967  1.00  0.00     0.088 A 
HETATM    8  N   UNL     1     -10.165   1.791 -32.469  1.00  0.00    -0.358 N 
HETATM    9  C   UNL     1      -9.842   1.468 -33.847  1.00  0.00     0.219 C 
HETATM   10  N   UNL     1      -9.860   2.669 -34.647  1.00  0.00    -0.332 N 
HETATM   11  C   UNL     1      -9.468   3.900 -34.197  1.00  0.00     0.256 C 
HETATM   12  O   UNL     1      -9.198   4.814 -34.968  1.00  0.00    -0.267 OA
HETATM   13  S   UNL     1      -9.669   3.325 -30.306  1.00  0.00    -0.074 SA
HETATM   14  C   UNL     1      -8.629   6.539 -32.461  1.00  0.00     0.068 C 
HETATM   15  C   UNL     1      -8.773   7.610 -31.367  1.00  0.00     0.240 C 
HETATM   16  H   UNL     1     -10.230   0.992 -31.846  1.00  0.00     0.162 HD
HETATM   17  H   UNL     1      -9.855   2.561 -35.651  1.00  0.00     0.165 HD
ENDROOT
BRANCH   9  18
HETATM   18  C   UNL     1      -8.541   0.680 -33.927  1.00  0.00    -0.016 A 
HETATM   19  C   UNL     1      -7.828   0.409 -32.743  1.00  0.00     0.023 A 
HETATM   20  C   UNL     1      -6.623  -0.325 -32.750  1.00  0.00    -0.000 A 
HETATM   21  C   UNL     1      -6.123  -0.806 -33.968  1.00  0.00     0.076 A 
HETATM   22  C   UNL     1      -6.819  -0.542 -35.150  1.00  0.00     0.038 A 
HETATM   23  C   UNL     1      -8.012   0.192 -35.129  1.00  0.00     0.014 A 
BRANCH  20  24
HETATM   24  C   UNL     1      -5.889  -0.554 -31.445  1.00  0.00     0.217 C 
BRANCH  24  25
HETATM   25  O   UNL     1      -4.743   0.303 -31.399  1.00  0.00    -0.347 OA
BRANCH  25  26
HETATM   26  C   UNL     1      -4.975   1.634 -31.180  1.00  0.00     0.070 A 
HETATM   27  C   UNL     1      -4.430   2.487 -32.145  1.00  0.00     0.063 A 
HETATM   28  C   UNL     1      -4.595   3.869 -32.037  1.00  0.00     0.075 A 
HETATM   29 CL   UNL     1      -3.919   4.899 -33.239  1.00  0.00    -0.081 Cl
HETATM   30  C   UNL     1      -5.303   4.399 -30.963  1.00  0.00     0.138 A 
HETATM   31  F   UNL     1      -5.475   5.723 -30.837  1.00  0.00    -0.204 F 
HETATM   32  C   UNL     1      -5.845   3.560 -29.995  1.00  0.00     0.047 A 
HETATM   33  C   UNL     1      -5.680   2.175 -30.100  1.00  0.00     0.040 A 
ENDBRANCH  25  26
ENDBRANCH  24  25
ENDBRANCH  20  24
BRANCH  21  34
HETATM   34  O   UNL     1      -4.939  -1.492 -33.916  1.00  0.00    -0.355 OA
HETATM   35  C   UNL     1      -4.908  -2.778 -34.524  1.00  0.00     0.210 C 
ENDBRANCH  21  34
ENDBRANCH   9  18
BRANCH   1  36
HETATM   36  C   UNL     1      -8.091   8.247 -29.034  1.00  0.00     0.231 C 
HETATM   37  C   UNL     1      -6.779   8.210 -28.273  1.00  0.00     0.034 C 
ENDBRANCH   1  36
TORSDOF 6
ENDMDL
MODEL 10
REMARK VINA RESULT:      -8.6      2.812      3.924
REMARK  6 active torsions:
REMARK  status: ('A' for Active; 'I' for Inactive)
REMARK    1  A    between atoms: C_2  and  N_3 
REMARK    2  A    between atoms: C_11  and  C_12 
REMARK    3  A    between atoms: C_14  and  C_15 
REMARK    4  A    between atoms: C_15  and  O_16 
REMARK    5  A    between atoms: O_16  and  C_17 
REMARK    6  A    between atoms: C_25  and  O_26 
ROOT
HETATM    1  N   UNL     1      -2.601   5.840 -32.361  1.00  0.00    -0.067 N 
HETATM    2  H   UNL     1      -3.092   5.818 -33.265  1.00  0.00     0.280 HD
HETATM    3  C   UNL     1      -2.845   4.477 -31.713  1.00  0.00     0.281 C 
HETATM    4  C   UNL     1      -4.256   4.347 -31.257  1.00  0.00     0.018 A 
HETATM    5  C   UNL     1      -5.155   5.390 -31.127  1.00  0.00    -0.023 A 
HETATM    6  C   UNL     1      -6.416   4.927 -30.629  1.00  0.00     0.073 A 
HETATM    7  C   UNL     1      -6.408   3.571 -30.403  1.00  0.00     0.088 A 
HETATM    8  N   UNL     1      -7.468   2.898 -29.909  1.00  0.00    -0.358 N 
HETATM    9  C   UNL     1      -8.783   3.508 -29.986  1.00  0.00     0.219 C 
HETATM   10  N   UNL     1      -8.668   4.939 -29.844  1.00  0.00    -0.332 N 
HETATM   11  C   UNL     1      -7.620   5.677 -30.323  1.00  0.00     0.256 C 
HETATM   12  O   UNL     1      -7.699   6.892 -30.468  1.00  0.00    -0.267 OA
HETATM   13  S   UNL     1      -4.919   2.850 -30.791  1.00  0.00    -0.074 SA
HETATM   14  C   UNL     1      -4.775   6.794 -31.482  1.00  0.00     0.068 C 
HETATM   15  C   UNL     1      -3.248   6.965 -31.543  1.00  0.00     0.240 C 
HETATM   16  H   UNL     1      -7.464   1.884 -29.943  1.00  0.00     0.162 HD
HETATM   17  H   UNL     1      -9.515   5.461 -29.674  1.00  0.00     0.165 HD
ENDROOT
BRANCH   9  18
HETATM   18  C   UNL     1      -9.515   3.058 -31.243  1.00  0.00    -0.016 A 
HETATM   19  C   UNL     1      -8.986   1.998 -32.004  1.00  0.00     0.023 A 
HETATM   20  C   UNL     1      -9.623   1.528 -33.172  1.00  0.00    -0.000 A 
HETATM   21  C   UNL     1     -10.822   2.128 -33.585  1.00  0.00     0.076 A 
HETATM   22  C   UNL     1     -11.356   3.182 -32.840  1.00  0.00     0.038 A 
HETATM   23  C   UNL     1     -10.711   3.641 -31.685  1.00  0.00     0.014 A 
BRANCH  20  24
HETATM   24  C   UNL     1      -8.984   0.405 -33.963  1.00  0.00     0.217 C 
BRANCH  24  25
HETATM   25  O   UNL     1      -8.301  -0.471 -33.060  1.00  0.00    -0.347 OA
BRANCH  25  26
HETATM   26  C   UNL     1      -7.217  -1.145 -33.553  1.00  0.00     0.070 A 
HETATM   27  C   UNL     1      -5.979  -0.605 -33.188  1.00  0.00     0.063 A 
HETATM   28  C   UNL     1      -4.795  -1.199 -33.627  1.00  0.00     0.075 A 
HETATM   29 CL   UNL     1      -3.283  -0.518 -33.163  1.00  0.00    -0.081 Cl
HETATM   30  C   UNL     1      -4.846  -2.332 -34.433  1.00  0.00     0.138 A 
HETATM   31  F   UNL     1      -3.723  -2.920 -34.868  1.00  0.00    -0.204 F 
HETATM   32  C   UNL     1      -6.072  -2.874 -34.806  1.00  0.00     0.047 A 
HETATM   33  C   UNL     1      -7.260  -2.281 -34.368  1.00  0.00     0.040 A 
ENDBRANCH  25  26
ENDBRANCH  24  25
ENDBRANCH  20  24
BRANCH  21  34
HETATM   34  O   UNL     1     -11.382   1.646 -34.738  1.00  0.00    -0.355 OA
HETATM   35  C   UNL     1     -12.732   1.201 -34.665  1.00  0.00     0.210 C 
ENDBRANCH  21  34
ENDBRANCH   9  18
BRANCH   1  36
HETATM   36  C   UNL     1      -1.143   6.123 -32.625  1.00  0.00     0.231 C 
HETATM   37  C   UNL     1      -0.553   7.014 -31.549  1.00  0.00     0.034 C 
ENDBRANCH   1  36
TORSDOF 6
ENDMDL
