MODEL 1
REMARK VINA RESULT:      -9.5      0.000      0.000
REMARK  7 active torsions:
REMARK  status: ('A' for Active; 'I' for Inactive)
REMARK    1  A    between atoms: C_3  and  C_4 
REMARK    2  A    between atoms: C_4  and  S_5 
REMARK    3  A    between atoms: S_5  and  C_6 
REMARK    4  A    between atoms: C_6  and  C_7 
REMARK    5  A    between atoms: C_16  and  C_17 
REMARK       I    between atoms: C_17  and  N_18 
REMARK    6  A    between atoms: N_18  and  C_19 
REMARK    7  A    between atoms: C_19  and  C_20 
ROOT
HETATM    1  C   UNL     1      -3.569   1.250 -30.847  1.00  0.00     0.162 C 
HETATM    2  N   UNL     1      -4.904   0.766 -30.401  1.00  0.00    -0.277 NA
HETATM    3  C   UNL     1      -5.965   1.082 -31.269  1.00  0.00     0.036 A 
HETATM    4  C   UNL     1      -5.911   2.212 -32.107  1.00  0.00     0.057 A 
HETATM    5  N   UNL     1      -4.758   3.006 -32.126  1.00  0.00    -0.324 N 
HETATM    6  C   UNL     1      -3.633   2.683 -31.409  1.00  0.00     0.240 C 
HETATM    7  O   UNL     1      -2.705   3.485 -31.300  1.00  0.00    -0.271 OA
HETATM    8  C   UNL     1      -7.166   0.370 -31.189  1.00  0.00     0.027 A 
HETATM    9  C   UNL     1      -8.261   0.721 -31.989  1.00  0.00     0.019 A 
HETATM   10  C   UNL     1      -8.173   1.814 -32.860  1.00  0.00     0.034 A 
HETATM   11  C   UNL     1      -7.000   2.577 -32.897  1.00  0.00     0.048 A 
HETATM   12  H   UNL     1      -4.910  -0.201 -30.094  1.00  0.00     0.128 HD
HETATM   13  H   UNL     1      -4.760   3.907 -32.585  1.00  0.00     0.169 HD
ENDROOT
BRANCH  10  14
HETATM   14  C   UNL     1      -9.297   2.226 -33.745  1.00  0.00     0.252 C 
HETATM   15  N   UNL     1     -10.270   1.284 -33.991  1.00  0.00    -0.353 N 
HETATM   16  H   UNL     1     -10.231   0.367 -33.570  1.00  0.00     0.163 HD
HETATM   17  O   UNL     1      -9.298   3.342 -34.249  1.00  0.00    -0.268 OA
BRANCH  15  18
HETATM   18  C   UNL     1     -11.374   1.579 -34.878  1.00  0.00     0.161 C 
BRANCH  18  19
HETATM   19  C   UNL     1     -12.673   1.733 -34.125  1.00  0.00    -0.040 A 
HETATM   20  C   UNL     1     -12.821   2.747 -33.168  1.00  0.00     0.010 A 
HETATM   21  C   UNL     1     -14.036   2.918 -32.496  1.00  0.00     0.024 A 
HETATM   22  C   UNL     1     -15.109   2.076 -32.780  1.00  0.00     0.034 A 
HETATM   23 CL   UNL     1     -16.604   2.286 -31.953  1.00  0.00    -0.084 Cl
HETATM   24  C   UNL     1     -14.982   1.070 -33.735  1.00  0.00     0.024 A 
HETATM   25  C   UNL     1     -13.772   0.905 -34.410  1.00  0.00     0.010 A 
ENDBRANCH  18  19
ENDBRANCH  15  18
ENDBRANCH  10  14
BRANCH   1  26
HETATM   26  C   UNL     1      -2.983   0.262 -31.878  1.00  0.00     0.103 C 
BRANCH  26  27
HETATM   27  S   UNL     1      -3.787  -1.370 -32.057  1.00  0.00    -0.162 SA
BRANCH  27  28
HETATM   28  C   UNL     1      -4.111  -1.381 -33.849  1.00  0.00     0.112 C 
BRANCH  28  29
HETATM   29  C   UNL     1      -4.899  -2.605 -34.259  1.00  0.00    -0.043 A 
HETATM   30  C   UNL     1      -6.237  -2.527 -34.704  1.00  0.00    -0.055 A 
HETATM   31  C   UNL     1      -6.965  -1.214 -34.816  1.00  0.00     0.049 C 
HETATM   32  C   UNL     1      -6.910  -3.707 -35.065  1.00  0.00     0.007 A 
HETATM   33  C   UNL     1      -6.281  -4.948 -34.972  1.00  0.00     0.001 A 
HETATM   34  C   UNL     1      -4.970  -5.029 -34.517  1.00  0.00     0.001 A 
HETATM   35  C   UNL     1      -4.285  -3.868 -34.162  1.00  0.00     0.008 A 
ENDBRANCH  28  29
ENDBRANCH  27  28
ENDBRANCH  26  27
ENDBRANCH   1  26
TORSDOF 7
ENDMDL
MODEL 2
REMARK VINA RESULT:      -9.4      5.689      9.894
REMARK  7 active torsions:
REMARK  status: ('A' for Active; 'I' for Inactive)
REMARK    1  A    between atoms: C_3  and  C_4 
REMARK    2  A    between atoms: C_4  and  S_5 
REMARK    3  A    between atoms: S_5  and  C_6 
REMARK    4  A    between atoms: C_6  and  C_7 
REMARK    5  A    between atoms: C_16  and  C_17 
REMARK       I    between atoms: C_17  and  N_18 
REMARK    6  A    between atoms: N_18  and  C_19 
REMARK    7  A    between atoms: C_19  and  C_20 
ROOT
HETATM    1  C   UNL     1      -6.152   4.279 -33.812  1.00  0.00     0.162 C 
HETATM    2  N   UNL     1      -4.916   4.875 -34.388  1.00  0.00    -0.277 NA
HETATM    3  C   UNL     1      -3.804   4.874 -33.526  1.00  0.00     0.036 A 
HETATM    4  C   UNL     1      -3.965   4.896 -32.128  1.00  0.00     0.057 A 
HETATM    5  N   UNL     1      -5.252   4.856 -31.578  1.00  0.00    -0.324 N 
HETATM    6  C   UNL     1      -6.377   4.718 -32.352  1.00  0.00     0.240 C 
HETATM    7  O   UNL     1      -7.497   4.867 -31.865  1.00  0.00    -0.271 OA
HETATM    8  C   UNL     1      -2.516   5.024 -34.050  1.00  0.00     0.027 A 
HETATM    9  C   UNL     1      -1.404   5.106 -33.203  1.00  0.00     0.019 A 
HETATM   10  C   UNL     1      -1.575   5.070 -31.814  1.00  0.00     0.034 A 
HETATM   11  C   UNL     1      -2.865   4.991 -31.276  1.00  0.00     0.048 A 
HETATM   12  H   UNL     1      -4.699   4.547 -35.324  1.00  0.00     0.128 HD
HETATM   13  H   UNL     1      -5.398   5.041 -30.595  1.00  0.00     0.169 HD
ENDROOT
BRANCH  10  14
HETATM   14  C   UNL     1      -0.431   5.138 -30.864  1.00  0.00     0.252 C 
HETATM   15  N   UNL     1      -0.692   5.651 -29.613  1.00  0.00    -0.353 N 
HETATM   16  H   UNL     1      -1.622   5.942 -29.350  1.00  0.00     0.163 HD
HETATM   17  O   UNL     1       0.686   4.789 -31.228  1.00  0.00    -0.268 OA
BRANCH  15  18
HETATM   18  C   UNL     1       0.369   5.800 -28.641  1.00  0.00     0.161 C 
BRANCH  18  19
HETATM   19  C   UNL     1       0.436   7.205 -28.094  1.00  0.00    -0.040 A 
HETATM   20  C   UNL     1      -0.590   8.122 -28.366  1.00  0.00     0.010 A 
HETATM   21  C   UNL     1      -0.551   9.412 -27.829  1.00  0.00     0.024 A 
HETATM   22  C   UNL     1       0.515   9.792 -27.015  1.00  0.00     0.034 A 
HETATM   23 CL   UNL     1       0.563  11.381 -26.355  1.00  0.00    -0.084 Cl
HETATM   24  C   UNL     1       1.537   8.891 -26.726  1.00  0.00     0.024 A 
HETATM   25  C   UNL     1       1.492   7.600 -27.257  1.00  0.00     0.010 A 
ENDBRANCH  18  19
ENDBRANCH  15  18
ENDBRANCH  10  14
BRANCH   1  26
HETATM   26  C   UNL     1      -6.089   2.742 -33.938  1.00  0.00     0.103 C 
BRANCH  26  27
HETATM   27  S   UNL     1      -7.418   1.761 -33.154  1.00  0.00    -0.162 SA
BRANCH  27  28
HETATM   28  C   UNL     1      -6.425   0.532 -32.246  1.00  0.00     0.112 C 
BRANCH  28  29
HETATM   29  C   UNL     1      -6.081  -0.653 -33.120  1.00  0.00    -0.043 A 
HETATM   30  C   UNL     1      -4.750  -1.074 -33.333  1.00  0.00    -0.055 A 
HETATM   31  C   UNL     1      -3.582  -0.378 -32.688  1.00  0.00     0.049 C 
HETATM   32  C   UNL     1      -4.505  -2.182 -34.162  1.00  0.00     0.007 A 
HETATM   33  C   UNL     1      -5.553  -2.856 -34.787  1.00  0.00     0.001 A 
HETATM   34  C   UNL     1      -6.863  -2.432 -34.593  1.00  0.00     0.001 A 
HETATM   35  C   UNL     1      -7.125  -1.340 -33.769  1.00  0.00     0.008 A 
ENDBRANCH  28  29
ENDBRANCH  27  28
ENDBRANCH  26  27
ENDBRANCH   1  26
TORSDOF 7
ENDMDL
MODEL 3
REMARK VINA RESULT:      -9.3      5.214      9.265
REMARK  7 active torsions:
REMARK  status: ('A' for Active; 'I' for Inactive)
REMARK    1  A    between atoms: C_3  and  C_4 
REMARK    2  A    between atoms: C_4  and  S_5 
REMARK    3  A    between atoms: S_5  and  C_6 
REMARK    4  A    between atoms: C_6  and  C_7 
REMARK    5  A    between atoms: C_16  and  C_17 
REMARK       I    between atoms: C_17  and  N_18 
REMARK    6  A    between atoms: N_18  and  C_19 
REMARK    7  A    between atoms: C_19  and  C_20 
ROOT
HETATM    1  C   UNL     1      -7.292   1.681 -31.607  1.00  0.00     0.162 C 
HETATM    2  N   UNL     1      -7.156   3.162 -31.527  1.00  0.00    -0.277 NA
HETATM    3  C   UNL     1      -5.833   3.636 -31.590  1.00  0.00     0.036 A 
HETATM    4  C   UNL     1      -4.752   2.842 -31.160  1.00  0.00     0.057 A 
HETATM    5  N   UNL     1      -4.986   1.535 -30.718  1.00  0.00    -0.324 N 
HETATM    6  C   UNL     1      -6.230   0.958 -30.757  1.00  0.00     0.240 C 
HETATM    7  O   UNL     1      -6.443  -0.118 -30.199  1.00  0.00    -0.271 OA
HETATM    8  C   UNL     1      -5.587   4.971 -31.924  1.00  0.00     0.027 A 
HETATM    9  C   UNL     1      -4.283   5.483 -31.913  1.00  0.00     0.019 A 
HETATM   10  C   UNL     1      -3.210   4.665 -31.537  1.00  0.00     0.034 A 
HETATM   11  C   UNL     1      -3.453   3.347 -31.133  1.00  0.00     0.048 A 
HETATM   12  H   UNL     1      -7.794   3.667 -32.135  1.00  0.00     0.128 HD
HETATM   13  H   UNL     1      -4.258   1.011 -30.249  1.00  0.00     0.169 HD
ENDROOT
BRANCH  10  14
HETATM   14  C   UNL     1      -1.802   5.147 -31.521  1.00  0.00     0.252 C 
HETATM   15  N   UNL     1      -1.154   5.131 -30.307  1.00  0.00    -0.353 N 
HETATM   16  H   UNL     1      -1.608   4.784 -29.474  1.00  0.00     0.163 HD
HETATM   17  O   UNL     1      -1.293   5.575 -32.550  1.00  0.00    -0.268 OA
BRANCH  15  18
HETATM   18  C   UNL     1       0.200   5.627 -30.186  1.00  0.00     0.161 C 
BRANCH  18  19
HETATM   19  C   UNL     1       0.376   6.486 -28.958  1.00  0.00    -0.040 A 
HETATM   20  C   UNL     1      -0.029   6.017 -27.700  1.00  0.00     0.010 A 
HETATM   21  C   UNL     1       0.169   6.795 -26.555  1.00  0.00     0.024 A 
HETATM   22  C   UNL     1       0.774   8.045 -26.661  1.00  0.00     0.034 A 
HETATM   23 CL   UNL     1       1.016   9.001 -25.252  1.00  0.00    -0.084 Cl
HETATM   24  C   UNL     1       1.192   8.522 -27.901  1.00  0.00     0.024 A 
HETATM   25  C   UNL     1       1.001   7.741 -29.044  1.00  0.00     0.010 A 
ENDBRANCH  18  19
ENDBRANCH  15  18
ENDBRANCH  10  14
BRANCH   1  26
HETATM   26  C   UNL     1      -7.233   1.239 -33.085  1.00  0.00     0.103 C 
BRANCH  26  27
HETATM   27  S   UNL     1      -7.842  -0.432 -33.507  1.00  0.00    -0.162 SA
BRANCH  27  28
HETATM   28  C   UNL     1      -6.734  -0.845 -34.893  1.00  0.00     0.112 C 
BRANCH  28  29
HETATM   29  C   UNL     1      -6.039  -2.169 -34.667  1.00  0.00    -0.043 A 
HETATM   30  C   UNL     1      -4.768  -2.260 -34.060  1.00  0.00    -0.055 A 
HETATM   31  C   UNL     1      -4.024  -1.042 -33.580  1.00  0.00     0.049 C 
HETATM   32  C   UNL     1      -4.179  -3.524 -33.885  1.00  0.00     0.007 A 
HETATM   33  C   UNL     1      -4.825  -4.682 -34.319  1.00  0.00     0.001 A 
HETATM   34  C   UNL     1      -6.069  -4.593 -34.934  1.00  0.00     0.001 A 
HETATM   35  C   UNL     1      -6.670  -3.347 -35.108  1.00  0.00     0.008 A 
ENDBRANCH  28  29
ENDBRANCH  27  28
ENDBRANCH  26  27
ENDBRANCH   1  26
TORSDOF 7
ENDMDL
MODEL 4
REMARK VINA RESULT:      -9.2      4.257      6.786
REMARK  7 active torsions:
REMARK  status: ('A' for Active; 'I' for Inactive)
REMARK    1  A    between atoms: C_3  and  C_4 
REMARK    2  A    between atoms: C_4  and  S_5 
REMARK    3  A    between atoms: S_5  and  C_6 
REMARK    4  A    between atoms: C_6  and  C_7 
REMARK    5  A    between atoms: C_16  and  C_17 
REMARK       I    between atoms: C_17  and  N_18 
REMARK    6  A    between atoms: N_18  and  C_19 
REMARK    7  A    between atoms: C_19  and  C_20 
ROOT
HETATM    1  C   UNL     1      -4.339   6.611 -33.065  1.00  0.00     0.162 C 
HETATM    2  N   UNL     1      -5.821   6.560 -33.205  1.00  0.00    -0.277 NA
HETATM    3  C   UNL     1      -6.351   5.269 -33.384  1.00  0.00     0.036 A 
HETATM    4  C   UNL     1      -5.590   4.242 -33.974  1.00  0.00     0.057 A 
HETATM    5  N   UNL     1      -4.259   4.487 -34.337  1.00  0.00    -0.324 N 
HETATM    6  C   UNL     1      -3.633   5.678 -34.068  1.00  0.00     0.240 C 
HETATM    7  O   UNL     1      -2.531   5.933 -34.553  1.00  0.00    -0.271 OA
HETATM    8  C   UNL     1      -7.706   5.031 -33.132  1.00  0.00     0.027 A 
HETATM    9  C   UNL     1      -8.270   3.774 -33.381  1.00  0.00     0.019 A 
HETATM   10  C   UNL     1      -7.486   2.745 -33.916  1.00  0.00     0.034 A 
HETATM   11  C   UNL     1      -6.146   2.992 -34.238  1.00  0.00     0.048 A 
HETATM   12  H   UNL     1      -6.319   7.106 -32.509  1.00  0.00     0.128 HD
HETATM   13  H   UNL     1      -3.752   3.828 -34.911  1.00  0.00     0.169 HD
ENDROOT
BRANCH  10  14
HETATM   14  C   UNL     1      -8.025   1.385 -34.188  1.00  0.00     0.252 C 
HETATM   15  N   UNL     1      -7.128   0.436 -34.624  1.00  0.00    -0.353 N 
HETATM   16  H   UNL     1      -6.147   0.652 -34.728  1.00  0.00     0.163 HD
HETATM   17  O   UNL     1      -9.225   1.169 -34.063  1.00  0.00    -0.268 OA
BRANCH  15  18
HETATM   18  C   UNL     1      -7.570  -0.900 -34.958  1.00  0.00     0.161 C 
BRANCH  18  19
HETATM   19  C   UNL     1      -6.508  -1.932 -34.668  1.00  0.00    -0.040 A 
HETATM   20  C   UNL     1      -6.755  -3.291 -34.911  1.00  0.00     0.010 A 
HETATM   21  C   UNL     1      -5.760  -4.246 -34.680  1.00  0.00     0.024 A 
HETATM   22  C   UNL     1      -4.512  -3.846 -34.206  1.00  0.00     0.034 A 
HETATM   23 CL   UNL     1      -3.289  -5.022 -33.921  1.00  0.00    -0.084 Cl
HETATM   24  C   UNL     1      -4.247  -2.500 -33.969  1.00  0.00     0.024 A 
HETATM   25  C   UNL     1      -5.238  -1.546 -34.207  1.00  0.00     0.010 A 
ENDBRANCH  18  19
ENDBRANCH  15  18
ENDBRANCH  10  14
BRANCH   1  26
HETATM   26  C   UNL     1      -3.949   6.278 -31.610  1.00  0.00     0.103 C 
BRANCH  26  27
HETATM   27  S   UNL     1      -3.503   4.550 -31.213  1.00  0.00    -0.162 SA
BRANCH  27  28
HETATM   28  C   UNL     1      -4.953   4.054 -30.230  1.00  0.00     0.112 C 
BRANCH  28  29
HETATM   29  C   UNL     1      -5.383   2.641 -30.555  1.00  0.00    -0.043 A 
HETATM   30  C   UNL     1      -6.711   2.196 -30.382  1.00  0.00    -0.055 A 
HETATM   31  C   UNL     1      -7.797   3.107 -29.875  1.00  0.00     0.049 C 
HETATM   32  C   UNL     1      -7.038   0.867 -30.702  1.00  0.00     0.007 A 
HETATM   33  C   UNL     1      -6.066  -0.018 -31.169  1.00  0.00     0.001 A 
HETATM   34  C   UNL     1      -4.753   0.413 -31.323  1.00  0.00     0.001 A 
HETATM   35  C   UNL     1      -4.414   1.730 -31.018  1.00  0.00     0.008 A 
ENDBRANCH  28  29
ENDBRANCH  27  28
ENDBRANCH  26  27
ENDBRANCH   1  26
TORSDOF 7
ENDMDL
MODEL 5
REMARK VINA RESULT:      -9.1      4.488      8.496
REMARK  7 active torsions:
REMARK  status: ('A' for Active; 'I' for Inactive)
REMARK    1  A    between atoms: C_3  and  C_4 
REMARK    2  A    between atoms: C_4  and  S_5 
REMARK    3  A    between atoms: S_5  and  C_6 
REMARK    4  A    between atoms: C_6  and  C_7 
REMARK    5  A    between atoms: C_16  and  C_17 
REMARK       I    between atoms: C_17  and  N_18 
REMARK    6  A    between atoms: N_18  and  C_19 
REMARK    7  A    between atoms: C_19  and  C_20 
ROOT
HETATM    1  C   UNL     1      -8.697   1.813 -33.419  1.00  0.00     0.162 C 
HETATM    2  N   UNL     1      -8.139   3.137 -33.811  1.00  0.00    -0.277 NA
HETATM    3  C   UNL     1      -6.798   3.343 -33.443  1.00  0.00     0.036 A 
HETATM    4  C   UNL     1      -6.236   2.686 -32.332  1.00  0.00     0.057 A 
HETATM    5  N   UNL     1      -7.005   1.763 -31.612  1.00  0.00    -0.324 N 
HETATM    6  C   UNL     1      -8.275   1.410 -31.993  1.00  0.00     0.240 C 
HETATM    7  O   UNL     1      -8.991   0.740 -31.249  1.00  0.00    -0.271 OA
HETATM    8  C   UNL     1      -6.046   4.337 -34.078  1.00  0.00     0.027 A 
HETATM    9  C   UNL     1      -4.734   4.612 -33.671  1.00  0.00     0.019 A 
HETATM   10  C   UNL     1      -4.169   3.910 -32.599  1.00  0.00     0.034 A 
HETATM   11  C   UNL     1      -4.936   2.962 -31.911  1.00  0.00     0.048 A 
HETATM   12  H   UNL     1      -8.338   3.398 -34.772  1.00  0.00     0.128 HD
HETATM   13  H   UNL     1      -6.685   1.411 -30.719  1.00  0.00     0.169 HD
ENDROOT
BRANCH  10  14
HETATM   14  C   UNL     1      -2.776   4.147 -32.132  1.00  0.00     0.252 C 
HETATM   15  N   UNL     1      -2.090   5.182 -32.725  1.00  0.00    -0.353 N 
HETATM   16  H   UNL     1      -2.523   5.766 -33.426  1.00  0.00     0.163 HD
HETATM   17  O   UNL     1      -2.281   3.406 -31.291  1.00  0.00    -0.268 OA
BRANCH  15  18
HETATM   18  C   UNL     1      -0.715   5.456 -32.369  1.00  0.00     0.161 C 
BRANCH  18  19
HETATM   19  C   UNL     1      -0.616   6.396 -31.192  1.00  0.00    -0.040 A 
HETATM   20  C   UNL     1      -1.506   7.473 -31.069  1.00  0.00     0.010 A 
HETATM   21  C   UNL     1      -1.442   8.323 -29.960  1.00  0.00     0.024 A 
HETATM   22  C   UNL     1      -0.490   8.099 -28.969  1.00  0.00     0.034 A 
HETATM   23 CL   UNL     1      -0.412   9.146 -27.605  1.00  0.00    -0.084 Cl
HETATM   24  C   UNL     1       0.395   7.029 -29.070  1.00  0.00     0.024 A 
HETATM   25  C   UNL     1       0.326   6.175 -30.174  1.00  0.00     0.010 A 
ENDBRANCH  18  19
ENDBRANCH  15  18
ENDBRANCH  10  14
BRANCH   1  26
HETATM   26  C   UNL     1      -8.278   0.751 -34.457  1.00  0.00     0.103 C 
BRANCH  26  27
HETATM   27  S   UNL     1      -7.739  -0.885 -33.842  1.00  0.00    -0.162 SA
BRANCH  27  28
HETATM   28  C   UNL     1      -6.394  -1.249 -35.016  1.00  0.00     0.112 C 
BRANCH  28  29
HETATM   29  C   UNL     1      -5.655  -2.511 -34.631  1.00  0.00    -0.043 A 
HETATM   30  C   UNL     1      -4.481  -2.490 -33.847  1.00  0.00    -0.055 A 
HETATM   31  C   UNL     1      -3.894  -1.206 -33.325  1.00  0.00     0.049 C 
HETATM   32  C   UNL     1      -3.844  -3.702 -33.532  1.00  0.00     0.007 A 
HETATM   33  C   UNL     1      -4.345  -4.918 -33.997  1.00  0.00     0.001 A 
HETATM   34  C   UNL     1      -5.491  -4.940 -34.785  1.00  0.00     0.001 A 
HETATM   35  C   UNL     1      -6.140  -3.747 -35.101  1.00  0.00     0.008 A 
ENDBRANCH  28  29
ENDBRANCH  27  28
ENDBRANCH  26  27
ENDBRANCH   1  26
TORSDOF 7
ENDMDL
MODEL 6
REMARK VINA RESULT:      -9.1      3.284      3.857
REMARK  7 active torsions:
REMARK  status: ('A' for Active; 'I' for Inactive)
REMARK    1  A    between atoms: C_3  and  C_4 
REMARK    2  A    between atoms: C_4  and  S_5 
REMARK    3  A    between atoms: S_5  and  C_6 
REMARK    4  A    between atoms: C_6  and  C_7 
REMARK    5  A    between atoms: C_16  and  C_17 
REMARK       I    between atoms: C_17  and  N_18 
REMARK    6  A    between atoms: N_18  and  C_19 
REMARK    7  A    between atoms: C_19  and  C_20 
ROOT
HETATM    1  C   UNL     1      -6.263   1.082 -30.694  1.00  0.00     0.162 C 
HETATM    2  N   UNL     1      -7.491   0.257 -30.866  1.00  0.00    -0.277 NA
HETATM    3  C   UNL     1      -8.441   0.794 -31.753  1.00  0.00     0.036 A 
HETATM    4  C   UNL     1      -8.534   2.182 -31.971  1.00  0.00     0.057 A 
HETATM    5  N   UNL     1      -7.627   3.044 -31.343  1.00  0.00    -0.324 N 
HETATM    6  C   UNL     1      -6.589   2.583 -30.573  1.00  0.00     0.240 C 
HETATM    7  O   UNL     1      -5.920   3.358 -29.890  1.00  0.00    -0.271 OA
HETATM    8  C   UNL     1      -9.424  -0.033 -32.305  1.00  0.00     0.027 A 
HETATM    9  C   UNL     1     -10.427   0.497 -33.126  1.00  0.00     0.019 A 
HETATM   10  C   UNL     1     -10.474   1.873 -33.380  1.00  0.00     0.034 A 
HETATM   11  C   UNL     1      -9.537   2.720 -32.776  1.00  0.00     0.048 A 
HETATM   12  H   UNL     1      -7.305  -0.729 -31.023  1.00  0.00     0.128 HD
HETATM   13  H   UNL     1      -7.778   4.044 -31.348  1.00  0.00     0.169 HD
ENDROOT
BRANCH  10  14
HETATM   14  C   UNL     1     -11.506   2.492 -34.256  1.00  0.00     0.252 C 
HETATM   15  N   UNL     1     -11.931   3.756 -33.916  1.00  0.00    -0.353 N 
HETATM   16  H   UNL     1     -11.539   4.246 -33.125  1.00  0.00     0.163 HD
HETATM   17  O   UNL     1     -11.966   1.857 -35.198  1.00  0.00    -0.268 OA
BRANCH  15  18
HETATM   18  C   UNL     1     -12.965   4.417 -34.682  1.00  0.00     0.161 C 
BRANCH  18  19
HETATM   19  C   UNL     1     -12.458   5.678 -35.339  1.00  0.00    -0.040 A 
HETATM   20  C   UNL     1     -13.330   6.493 -36.075  1.00  0.00     0.010 A 
HETATM   21  C   UNL     1     -12.873   7.682 -36.653  1.00  0.00     0.024 A 
HETATM   22  C   UNL     1     -11.542   8.063 -36.495  1.00  0.00     0.034 A 
HETATM   23 CL   UNL     1     -10.981   9.525 -37.207  1.00  0.00    -0.084 Cl
HETATM   24  C   UNL     1     -10.665   7.270 -35.759  1.00  0.00     0.024 A 
HETATM   25  C   UNL     1     -11.124   6.087 -35.176  1.00  0.00     0.010 A 
ENDBRANCH  18  19
ENDBRANCH  15  18
ENDBRANCH  10  14
BRANCH   1  26
HETATM   26  C   UNL     1      -5.291   0.805 -31.860  1.00  0.00     0.103 C 
BRANCH  26  27
HETATM   27  S   UNL     1      -4.342  -0.758 -31.835  1.00  0.00    -0.162 SA
BRANCH  27  28
HETATM   28  C   UNL     1      -4.127  -1.039 -33.622  1.00  0.00     0.112 C 
BRANCH  28  29
HETATM   29  C   UNL     1      -4.823  -2.305 -34.069  1.00  0.00    -0.043 A 
HETATM   30  C   UNL     1      -6.142  -2.305 -34.571  1.00  0.00    -0.055 A 
HETATM   31  C   UNL     1      -6.941  -1.036 -34.713  1.00  0.00     0.049 C 
HETATM   32  C   UNL     1      -6.728  -3.520 -34.964  1.00  0.00     0.007 A 
HETATM   33  C   UNL     1      -6.032  -4.722 -34.847  1.00  0.00     0.001 A 
HETATM   34  C   UNL     1      -4.739  -4.728 -34.335  1.00  0.00     0.001 A 
HETATM   35  C   UNL     1      -4.140  -3.531 -33.948  1.00  0.00     0.008 A 
ENDBRANCH  28  29
ENDBRANCH  27  28
ENDBRANCH  26  27
ENDBRANCH   1  26
TORSDOF 7
ENDMDL
MODEL 7
REMARK VINA RESULT:      -9.0      5.582      9.103
REMARK  7 active torsions:
REMARK  status: ('A' for Active; 'I' for Inactive)
REMARK    1  A    between atoms: C_3  and  C_4 
REMARK    2  A    between atoms: C_4  and  S_5 
REMARK    3  A    between atoms: S_5  and  C_6 
REMARK    4  A    between atoms: C_6  and  C_7 
REMARK    5  A    between atoms: C_16  and  C_17 
REMARK       I    between atoms: C_17  and  N_18 
REMARK    6  A    between atoms: N_18  and  C_19 
REMARK    7  A    between atoms: C_19  and  C_20 
ROOT
HETATM    1  C   UNL     1      -3.963   7.017 -31.878  1.00  0.00     0.162 C 
HETATM    2  N   UNL     1      -5.145   6.147 -31.626  1.00  0.00    -0.277 NA
HETATM    3  C   UNL     1      -4.844   4.789 -31.421  1.00  0.00     0.036 A 
HETATM    4  C   UNL     1      -3.693   4.203 -31.982  1.00  0.00     0.057 A 
HETATM    5  N   UNL     1      -2.796   4.996 -32.709  1.00  0.00    -0.324 N 
HETATM    6  C   UNL     1      -2.953   6.354 -32.834  1.00  0.00     0.240 C 
HETATM    7  O   UNL     1      -2.260   6.997 -33.622  1.00  0.00    -0.271 OA
HETATM    8  C   UNL     1      -5.776   3.955 -30.794  1.00  0.00     0.027 A 
HETATM    9  C   UNL     1      -5.528   2.583 -30.653  1.00  0.00     0.019 A 
HETATM   10  C   UNL     1      -4.352   2.025 -31.168  1.00  0.00     0.034 A 
HETATM   11  C   UNL     1      -3.445   2.837 -31.859  1.00  0.00     0.048 A 
HETATM   12  H   UNL     1      -5.794   6.523 -30.942  1.00  0.00     0.128 HD
HETATM   13  H   UNL     1      -2.062   4.572 -33.259  1.00  0.00     0.169 HD
ENDROOT
BRANCH  10  14
HETATM   14  C   UNL     1      -4.027   0.579 -31.035  1.00  0.00     0.252 C 
HETATM   15  N   UNL     1      -3.320   0.004 -32.067  1.00  0.00    -0.353 N 
HETATM   16  H   UNL     1      -3.017   0.548 -32.862  1.00  0.00     0.163 HD
HETATM   17  O   UNL     1      -4.427  -0.049 -30.062  1.00  0.00    -0.268 OA
BRANCH  15  18
HETATM   18  C   UNL     1      -3.001  -1.407 -32.047  1.00  0.00     0.161 C 
BRANCH  18  19
HETATM   19  C   UNL     1      -3.872  -2.193 -32.997  1.00  0.00    -0.040 A 
HETATM   20  C   UNL     1      -3.631  -3.557 -33.215  1.00  0.00     0.010 A 
HETATM   21  C   UNL     1      -4.461  -4.298 -34.063  1.00  0.00     0.024 A 
HETATM   22  C   UNL     1      -5.536  -3.678 -34.697  1.00  0.00     0.034 A 
HETATM   23 CL   UNL     1      -6.555  -4.590 -35.741  1.00  0.00    -0.084 Cl
HETATM   24  C   UNL     1      -5.795  -2.327 -34.483  1.00  0.00     0.024 A 
HETATM   25  C   UNL     1      -4.972  -1.590 -33.629  1.00  0.00     0.010 A 
ENDBRANCH  18  19
ENDBRANCH  15  18
ENDBRANCH  10  14
BRANCH   1  26
HETATM   26  C   UNL     1      -3.307   7.393 -30.533  1.00  0.00     0.103 C 
BRANCH  26  27
HETATM   27  S   UNL     1      -2.268   8.897 -30.475  1.00  0.00    -0.162 SA
BRANCH  27  28
HETATM   28  C   UNL     1      -1.073   8.420 -29.186  1.00  0.00     0.112 C 
BRANCH  28  29
HETATM   29  C   UNL     1      -0.321   7.165 -29.569  1.00  0.00    -0.043 A 
HETATM   30  C   UNL     1       0.074   6.200 -28.616  1.00  0.00    -0.055 A 
HETATM   31  C   UNL     1      -0.244   6.349 -27.152  1.00  0.00     0.049 C 
HETATM   32  C   UNL     1       0.774   5.059 -29.044  1.00  0.00     0.007 A 
HETATM   33  C   UNL     1       1.098   4.879 -30.388  1.00  0.00     0.001 A 
HETATM   34  C   UNL     1       0.726   5.836 -31.326  1.00  0.00     0.001 A 
HETATM   35  C   UNL     1       0.025   6.970 -30.920  1.00  0.00     0.008 A 
ENDBRANCH  28  29
ENDBRANCH  27  28
ENDBRANCH  26  27
ENDBRANCH   1  26
TORSDOF 7
ENDMDL
MODEL 8
REMARK VINA RESULT:      -9.0      5.328      9.418
REMARK  7 active torsions:
REMARK  status: ('A' for Active; 'I' for Inactive)
REMARK    1  A    between atoms: C_3  and  C_4 
REMARK    2  A    between atoms: C_4  and  S_5 
REMARK    3  A    between atoms: S_5  and  C_6 
REMARK    4  A    between atoms: C_6  and  C_7 
REMARK    5  A    between atoms: C_16  and  C_17 
REMARK       I    between atoms: C_17  and  N_18 
REMARK    6  A    between atoms: N_18  and  C_19 
REMARK    7  A    between atoms: C_19  and  C_20 
ROOT
HETATM    1  C   UNL     1      -2.349   6.809 -31.808  1.00  0.00     0.162 C 
HETATM    2  N   UNL     1      -2.994   6.501 -33.115  1.00  0.00    -0.277 NA
HETATM    3  C   UNL     1      -3.853   5.388 -33.100  1.00  0.00     0.036 A 
HETATM    4  C   UNL     1      -3.668   4.335 -32.183  1.00  0.00     0.057 A 
HETATM    5  N   UNL     1      -2.649   4.420 -31.227  1.00  0.00    -0.324 N 
HETATM    6  C   UNL     1      -1.860   5.535 -31.093  1.00  0.00     0.240 C 
HETATM    7  O   UNL     1      -0.862   5.516 -30.373  1.00  0.00    -0.271 OA
HETATM    8  C   UNL     1      -4.806   5.229 -34.111  1.00  0.00     0.027 A 
HETATM    9  C   UNL     1      -5.616   4.087 -34.159  1.00  0.00     0.019 A 
HETATM   10  C   UNL     1      -5.458   3.073 -33.206  1.00  0.00     0.034 A 
HETATM   11  C   UNL     1      -4.460   3.188 -32.231  1.00  0.00     0.048 A 
HETATM   12  H   UNL     1      -3.394   7.312 -33.577  1.00  0.00     0.128 HD
HETATM   13  H   UNL     1      -2.389   3.612 -30.677  1.00  0.00     0.169 HD
ENDROOT
BRANCH  10  14
HETATM   14  C   UNL     1      -6.299   1.845 -33.197  1.00  0.00     0.252 C 
HETATM   15  N   UNL     1      -6.318   1.097 -34.352  1.00  0.00    -0.353 N 
HETATM   16  H   UNL     1      -5.766   1.359 -35.156  1.00  0.00     0.163 HD
HETATM   17  O   UNL     1      -6.966   1.571 -32.206  1.00  0.00    -0.268 OA
BRANCH  15  18
HETATM   18  C   UNL     1      -7.144  -0.087 -34.451  1.00  0.00     0.161 C 
BRANCH  18  19
HETATM   19  C   UNL     1      -6.329  -1.352 -34.334  1.00  0.00    -0.040 A 
HETATM   20  C   UNL     1      -6.835  -2.568 -34.816  1.00  0.00     0.010 A 
HETATM   21  C   UNL     1      -6.066  -3.734 -34.745  1.00  0.00     0.024 A 
HETATM   22  C   UNL     1      -4.788  -3.690 -34.194  1.00  0.00     0.034 A 
HETATM   23 CL   UNL     1      -3.844  -5.126 -34.106  1.00  0.00    -0.084 Cl
HETATM   24  C   UNL     1      -4.266  -2.489 -33.720  1.00  0.00     0.024 A 
HETATM   25  C   UNL     1      -5.030  -1.323 -33.798  1.00  0.00     0.010 A 
ENDBRANCH  18  19
ENDBRANCH  15  18
ENDBRANCH  10  14
BRANCH   1  26
HETATM   26  C   UNL     1      -3.330   7.612 -30.928  1.00  0.00     0.103 C 
BRANCH  26  27
HETATM   27  S   UNL     1      -2.681   9.058 -30.017  1.00  0.00    -0.162 SA
BRANCH  27  28
HETATM   28  C   UNL     1      -2.709   8.413 -28.314  1.00  0.00     0.112 C 
BRANCH  28  29
HETATM   29  C   UNL     1      -1.331   7.979 -27.867  1.00  0.00    -0.043 A 
HETATM   30  C   UNL     1      -1.129   7.127 -26.759  1.00  0.00    -0.055 A 
HETATM   31  C   UNL     1      -2.279   6.578 -25.957  1.00  0.00     0.049 C 
HETATM   32  C   UNL     1       0.180   6.768 -26.398  1.00  0.00     0.007 A 
HETATM   33  C   UNL     1       1.278   7.256 -27.106  1.00  0.00     0.001 A 
HETATM   34  C   UNL     1       1.084   8.110 -28.186  1.00  0.00     0.001 A 
HETATM   35  C   UNL     1      -0.209   8.470 -28.562  1.00  0.00     0.008 A 
ENDBRANCH  28  29
ENDBRANCH  27  28
ENDBRANCH  26  27
ENDBRANCH   1  26
TORSDOF 7
ENDMDL
MODEL 9
REMARK VINA RESULT:      -9.0      4.427      7.593
REMARK  7 active torsions:
REMARK  status: ('A' for Active; 'I' for Inactive)
REMARK    1  A    between atoms: C_3  and  C_4 
REMARK    2  A    between atoms: C_4  and  S_5 
REMARK    3  A    between atoms: S_5  and  C_6 
REMARK    4  A    between atoms: C_6  and  C_7 
REMARK    5  A    between atoms: C_16  and  C_17 
REMARK       I    between atoms: C_17  and  N_18 
REMARK    6  A    between atoms: N_18  and  C_19 
REMARK    7  A    between atoms: C_19  and  C_20 
ROOT
HETATM    1  C   UNL     1      -2.783   6.154 -31.895  1.00  0.00     0.162 C 
HETATM    2  N   UNL     1      -3.958   6.225 -32.806  1.00  0.00    -0.277 NA
HETATM    3  C   UNL     1      -4.681   5.025 -32.931  1.00  0.00     0.036 A 
HETATM    4  C   UNL     1      -4.061   3.776 -32.739  1.00  0.00     0.057 A 
HETATM    5  N   UNL     1      -2.714   3.722 -32.359  1.00  0.00    -0.324 N 
HETATM    6  C   UNL     1      -1.983   4.851 -32.086  1.00  0.00     0.240 C 
HETATM    7  O   UNL     1      -0.763   4.788 -31.933  1.00  0.00    -0.271 OA
HETATM    8  C   UNL     1      -5.993   5.049 -33.414  1.00  0.00     0.027 A 
HETATM    9  C   UNL     1      -6.701   3.859 -33.621  1.00  0.00     0.019 A 
HETATM   10  C   UNL     1      -6.089   2.624 -33.372  1.00  0.00     0.034 A 
HETATM   11  C   UNL     1      -4.753   2.585 -32.955  1.00  0.00     0.048 A 
HETATM   12  H   UNL     1      -4.548   7.037 -32.654  1.00  0.00     0.128 HD
HETATM   13  H   UNL     1      -2.206   2.848 -32.382  1.00  0.00     0.169 HD
ENDROOT
BRANCH  10  14
HETATM   14  C   UNL     1      -6.796   1.328 -33.559  1.00  0.00     0.252 C 
HETATM   15  N   UNL     1      -6.555   0.653 -34.734  1.00  0.00    -0.353 N 
HETATM   16  H   UNL     1      -5.910   1.012 -35.423  1.00  0.00     0.163 HD
HETATM   17  O   UNL     1      -7.583   0.934 -32.706  1.00  0.00    -0.268 OA
BRANCH  15  18
HETATM   18  C   UNL     1      -7.234  -0.591 -35.023  1.00  0.00     0.161 C 
BRANCH  18  19
HETATM   19  C   UNL     1      -6.379  -1.789 -34.687  1.00  0.00    -0.040 A 
HETATM   20  C   UNL     1      -6.799  -3.080 -35.038  1.00  0.00     0.010 A 
HETATM   21  C   UNL     1      -5.991  -4.188 -34.763  1.00  0.00     0.024 A 
HETATM   22  C   UNL     1      -4.759  -4.010 -34.137  1.00  0.00     0.034 A 
HETATM   23 CL   UNL     1      -3.767  -5.375 -33.798  1.00  0.00    -0.084 Cl
HETATM   24  C   UNL     1      -4.323  -2.734 -33.791  1.00  0.00     0.024 A 
HETATM   25  C   UNL     1      -5.126  -1.627 -34.073  1.00  0.00     0.010 A 
ENDBRANCH  18  19
ENDBRANCH  15  18
ENDBRANCH  10  14
BRANCH   1  26
HETATM   26  C   UNL     1      -3.255   6.319 -30.435  1.00  0.00     0.103 C 
BRANCH  26  27
HETATM   27  S   UNL     1      -5.021   6.688 -30.139  1.00  0.00    -0.162 SA
BRANCH  27  28
HETATM   28  C   UNL     1      -5.565   5.116 -29.398  1.00  0.00     0.112 C 
BRANCH  28  29
HETATM   29  C   UNL     1      -6.968   4.757 -29.834  1.00  0.00    -0.043 A 
HETATM   30  C   UNL     1      -7.393   3.420 -29.988  1.00  0.00    -0.055 A 
HETATM   31  C   UNL     1      -6.479   2.256 -29.710  1.00  0.00     0.049 C 
HETATM   32  C   UNL     1      -8.711   3.161 -30.401  1.00  0.00     0.007 A 
HETATM   33  C   UNL     1      -9.594   4.204 -30.677  1.00  0.00     0.001 A 
HETATM   34  C   UNL     1      -9.173   5.523 -30.544  1.00  0.00     0.001 A 
HETATM   35  C   UNL     1      -7.871   5.797 -30.128  1.00  0.00     0.008 A 
ENDBRANCH  28  29
ENDBRANCH  27  28
ENDBRANCH  26  27
ENDBRANCH   1  26
TORSDOF 7
ENDMDL
MODEL 10
REMARK VINA RESULT:      -8.9      3.798      7.792
REMARK  7 active torsions:
REMARK  status: ('A' for Active; 'I' for Inactive)
REMARK    1  A    between atoms: C_3  and  C_4 
REMARK    2  A    between atoms: C_4  and  S_5 
REMARK    3  A    between atoms: S_5  and  C_6 
REMARK    4  A    between atoms: C_6  and  C_7 
REMARK    5  A    between atoms: C_16  and  C_17 
REMARK       I    between atoms: C_17  and  N_18 
REMARK    6  A    between atoms: N_18  and  C_19 
REMARK    7  A    between atoms: C_19  and  C_20 
ROOT
HETATM    1  C   UNL     1     -11.787   5.365 -31.580  1.00  0.00     0.162 C 
HETATM    2  N   UNL     1     -10.379   5.840 -31.672  1.00  0.00    -0.277 NA
HETATM    3  C   UNL     1      -9.408   4.828 -31.564  1.00  0.00     0.036 A 
HETATM    4  C   UNL     1      -9.666   3.640 -30.853  1.00  0.00     0.057 A 
HETATM    5  N   UNL     1     -10.931   3.431 -30.291  1.00  0.00    -0.324 N 
HETATM    6  C   UNL     1     -11.969   4.311 -30.471  1.00  0.00     0.240 C 
HETATM    7  O   UNL     1     -13.009   4.198 -29.823  1.00  0.00    -0.271 OA
HETATM    8  C   UNL     1      -8.106   5.059 -32.022  1.00  0.00     0.027 A 
HETATM    9  C   UNL     1      -7.105   4.095 -31.851  1.00  0.00     0.019 A 
HETATM   10  C   UNL     1      -7.392   2.894 -31.190  1.00  0.00     0.034 A 
HETATM   11  C   UNL     1      -8.672   2.681 -30.666  1.00  0.00     0.048 A 
HETATM   12  H   UNL     1     -10.210   6.479 -32.442  1.00  0.00     0.128 HD
HETATM   13  H   UNL     1     -11.087   2.675 -29.638  1.00  0.00     0.169 HD
ENDROOT
BRANCH  10  14
HETATM   14  C   UNL     1      -6.375   1.826 -30.992  1.00  0.00     0.252 C 
HETATM   15  N   UNL     1      -5.855   1.246 -32.127  1.00  0.00    -0.353 N 
HETATM   16  H   UNL     1      -6.135   1.551 -33.048  1.00  0.00     0.163 HD
HETATM   17  O   UNL     1      -6.073   1.473 -29.858  1.00  0.00    -0.268 OA
BRANCH  15  18
HETATM   18  C   UNL     1      -4.897   0.166 -32.032  1.00  0.00     0.161 C 
BRANCH  18  19
HETATM   19  C   UNL     1      -5.278  -1.003 -32.907  1.00  0.00    -0.040 A 
HETATM   20  C   UNL     1      -6.590  -1.134 -33.382  1.00  0.00     0.010 A 
HETATM   21  C   UNL     1      -6.938  -2.195 -34.225  1.00  0.00     0.024 A 
HETATM   22  C   UNL     1      -5.973  -3.127 -34.599  1.00  0.00     0.034 A 
HETATM   23 CL   UNL     1      -6.401  -4.432 -35.637  1.00  0.00    -0.084 Cl
HETATM   24  C   UNL     1      -4.662  -3.006 -34.146  1.00  0.00     0.024 A 
HETATM   25  C   UNL     1      -4.314  -1.942 -33.310  1.00  0.00     0.010 A 
ENDBRANCH  18  19
ENDBRANCH  15  18
ENDBRANCH  10  14
BRANCH   1  26
HETATM   26  C   UNL     1     -12.237   4.825 -32.954  1.00  0.00     0.103 C 
BRANCH  26  27
HETATM   27  S   UNL     1     -11.208   5.221 -34.413  1.00  0.00    -0.162 SA
BRANCH  27  28
HETATM   28  C   UNL     1     -11.448   3.712 -35.404  1.00  0.00     0.112 C 
BRANCH  28  29
HETATM   29  C   UNL     1     -11.008   2.479 -34.646  1.00  0.00    -0.043 A 
HETATM   30  C   UNL     1     -11.927   1.522 -34.163  1.00  0.00    -0.055 A 
HETATM   31  C   UNL     1     -13.409   1.656 -34.386  1.00  0.00     0.049 C 
HETATM   32  C   UNL     1     -11.447   0.402 -33.463  1.00  0.00     0.007 A 
HETATM   33  C   UNL     1     -10.083   0.236 -33.224  1.00  0.00     0.001 A 
HETATM   34  C   UNL     1      -9.178   1.186 -33.683  1.00  0.00     0.001 A 
HETATM   35  C   UNL     1      -9.636   2.299 -34.386  1.00  0.00     0.008 A 
ENDBRANCH  28  29
ENDBRANCH  27  28
ENDBRANCH  26  27
ENDBRANCH   1  26
TORSDOF 7
ENDMDL
