MODEL 1
REMARK VINA RESULT:      -8.5      0.000      0.000
REMARK  1 active torsions:
REMARK  status: ('A' for Active; 'I' for Inactive)
REMARK    1  A    between atoms: C_5  and  N_6 
ROOT
HETATM    1  N   UNL     1      -4.755   2.084 -31.332  1.00  0.00    -0.320 N 
HETATM    2  C   UNL     1      -5.651   2.411 -30.258  1.00  0.00     0.141 C 
HETATM    3  N   UNL     1      -6.507   1.569 -29.749  1.00  0.00    -0.380 N 
HETATM    4  H   UNL     1      -6.566   0.628 -30.116  1.00  0.00     0.158 HD
HETATM    5  H   UNL     1      -7.100   1.861 -28.986  1.00  0.00     0.158 HD
HETATM    6  S   UNL     1      -5.452   4.031 -29.682  1.00  0.00    -0.086 SA
HETATM    7  C   UNL     1      -4.402   4.426 -31.115  1.00  0.00     0.093 C 
HETATM    8  C   UNL     1      -3.687   3.090 -31.415  1.00  0.00     0.121 C 
HETATM    9  C   UNL     1      -3.300   5.454 -31.052  1.00  0.00     0.158 C 
HETATM   10  S   UNL     1      -2.283   4.974 -32.466  1.00  0.00     0.147 S 
HETATM   11  O   UNL     1      -2.625   5.817 -33.589  1.00  0.00    -0.228 OA
HETATM   12  O   UNL     1      -0.925   4.796 -32.004  1.00  0.00    -0.228 OA
HETATM   13  C   UNL     1      -3.003   3.343 -32.739  1.00  0.00     0.167 C 
ENDROOT
BRANCH   1  14
HETATM   14  C   UNL     1      -4.525   0.789 -31.841  1.00  0.00     0.048 A 
HETATM   15  C   UNL     1      -5.303   0.287 -32.928  1.00  0.00     0.001 A 
HETATM   16  C   UNL     1      -5.110  -1.052 -33.356  1.00  0.00    -0.024 A 
HETATM   17  C   UNL     1      -6.257   1.062 -33.630  1.00  0.00     0.014 A 
HETATM   18  C   UNL     1      -5.880  -1.574 -34.408  1.00  0.00     0.012 A 
HETATM   19  C   UNL     1      -4.143  -1.850 -32.733  1.00  0.00     0.012 A 
HETATM   20  C   UNL     1      -6.831  -0.791 -35.058  1.00  0.00     0.001 A 
HETATM   21  C   UNL     1      -7.015   0.531 -34.674  1.00  0.00     0.001 A 
HETATM   22  C   UNL     1      -3.368  -1.350 -31.694  1.00  0.00     0.003 A 
HETATM   23  C   UNL     1      -3.560  -0.043 -31.250  1.00  0.00     0.030 A 
ENDBRANCH   1  14
TORSDOF 1
ENDMDL
MODEL 2
REMARK VINA RESULT:      -8.2      2.175      2.453
REMARK  1 active torsions:
REMARK  status: ('A' for Active; 'I' for Inactive)
REMARK    1  A    between atoms: C_5  and  N_6 
ROOT
HETATM    1  N   UNL     1      -5.914   1.712 -31.477  1.00  0.00    -0.320 N 
HETATM    2  C   UNL     1      -6.362   1.731 -30.112  1.00  0.00     0.141 C 
HETATM    3  N   UNL     1      -6.223   0.727 -29.291  1.00  0.00    -0.380 N 
HETATM    4  H   UNL     1      -5.781  -0.125 -29.610  1.00  0.00     0.158 HD
HETATM    5  H   UNL     1      -6.550   0.812 -28.340  1.00  0.00     0.158 HD
HETATM    6  S   UNL     1      -7.076   3.241 -29.657  1.00  0.00    -0.086 SA
HETATM    7  C   UNL     1      -7.114   3.764 -31.400  1.00  0.00     0.093 C 
HETATM    8  C   UNL     1      -5.868   3.082 -32.006  1.00  0.00     0.121 C 
HETATM    9  C   UNL     1      -7.009   5.210 -31.812  1.00  0.00     0.158 C 
HETATM   10  S   UNL     1      -6.497   5.052 -33.538  1.00  0.00     0.147 S 
HETATM   11  O   UNL     1      -7.664   5.187 -34.380  1.00  0.00    -0.228 OA
HETATM   12  O   UNL     1      -5.299   5.840 -33.726  1.00  0.00    -0.228 OA
HETATM   13  C   UNL     1      -6.026   3.312 -33.492  1.00  0.00     0.167 C 
ENDROOT
BRANCH   1  14
HETATM   14  C   UNL     1      -5.096   0.720 -32.056  1.00  0.00     0.048 A 
HETATM   15  C   UNL     1      -5.659  -0.280 -32.905  1.00  0.00     0.001 A 
HETATM   16  C   UNL     1      -4.826  -1.317 -33.398  1.00  0.00    -0.024 A 
HETATM   17  C   UNL     1      -7.016  -0.289 -33.310  1.00  0.00     0.014 A 
HETATM   18  C   UNL     1      -5.363  -2.325 -34.216  1.00  0.00     0.012 A 
HETATM   19  C   UNL     1      -3.464  -1.331 -33.073  1.00  0.00     0.012 A 
HETATM   20  C   UNL     1      -6.710  -2.318 -34.572  1.00  0.00     0.001 A 
HETATM   21  C   UNL     1      -7.536  -1.296 -34.125  1.00  0.00     0.001 A 
HETATM   22  C   UNL     1      -2.913  -0.340 -32.269  1.00  0.00     0.003 A 
HETATM   23  C   UNL     1      -3.723   0.673 -31.762  1.00  0.00     0.030 A 
ENDBRANCH   1  14
TORSDOF 1
ENDMDL
MODEL 3
REMARK VINA RESULT:      -7.6      1.947      3.174
REMARK  1 active torsions:
REMARK  status: ('A' for Active; 'I' for Inactive)
REMARK    1  A    between atoms: C_5  and  N_6 
ROOT
HETATM    1  N   UNL     1      -7.346   1.803 -32.362  1.00  0.00    -0.320 N 
HETATM    2  C   UNL     1      -8.315   1.821 -31.301  1.00  0.00     0.141 C 
HETATM    3  N   UNL     1      -9.140   0.840 -31.060  1.00  0.00    -0.380 N 
HETATM    4  H   UNL     1      -9.120   0.012 -31.640  1.00  0.00     0.158 HD
HETATM    5  H   UNL     1      -9.788   0.913 -30.289  1.00  0.00     0.158 HD
HETATM    6  S   UNL     1      -8.248   3.266 -30.350  1.00  0.00    -0.086 SA
HETATM    7  C   UNL     1      -7.154   4.041 -31.581  1.00  0.00     0.093 C 
HETATM    8  C   UNL     1      -6.342   2.853 -32.138  1.00  0.00     0.121 C 
HETATM    9  C   UNL     1      -6.125   5.079 -31.208  1.00  0.00     0.158 C 
HETATM   10  S   UNL     1      -5.010   5.000 -32.627  1.00  0.00     0.147 S 
HETATM   11  O   UNL     1      -5.347   6.068 -33.540  1.00  0.00    -0.228 OA
HETATM   12  O   UNL     1      -3.667   4.785 -32.133  1.00  0.00    -0.228 OA
HETATM   13  C   UNL     1      -5.609   3.447 -33.320  1.00  0.00     0.167 C 
ENDROOT
BRANCH   1  14
HETATM   14  C   UNL     1      -7.008   0.680 -33.145  1.00  0.00     0.048 A 
HETATM   15  C   UNL     1      -5.884  -0.131 -32.804  1.00  0.00     0.001 A 
HETATM   16  C   UNL     1      -5.516  -1.199 -33.663  1.00  0.00    -0.024 A 
HETATM   17  C   UNL     1      -5.114   0.054 -31.631  1.00  0.00     0.014 A 
HETATM   18  C   UNL     1      -4.400  -1.995 -33.359  1.00  0.00     0.012 A 
HETATM   19  C   UNL     1      -6.273  -1.462 -34.811  1.00  0.00     0.012 A 
HETATM   20  C   UNL     1      -3.646  -1.767 -32.210  1.00  0.00     0.001 A 
HETATM   21  C   UNL     1      -4.008  -0.747 -31.341  1.00  0.00     0.001 A 
HETATM   22  C   UNL     1      -7.383  -0.688 -35.126  1.00  0.00     0.003 A 
HETATM   23  C   UNL     1      -7.745   0.376 -34.302  1.00  0.00     0.030 A 
ENDBRANCH   1  14
TORSDOF 1
ENDMDL
MODEL 4
REMARK VINA RESULT:      -7.6      1.914      2.143
REMARK  1 active torsions:
REMARK  status: ('A' for Active; 'I' for Inactive)
REMARK    1  A    between atoms: C_5  and  N_6 
ROOT
HETATM    1  N   UNL     1      -5.618   3.648 -32.238  1.00  0.00    -0.320 N 
HETATM    2  C   UNL     1      -6.600   4.682 -32.063  1.00  0.00     0.141 C 
HETATM    3  N   UNL     1      -7.843   4.453 -31.746  1.00  0.00    -0.380 N 
HETATM    4  H   UNL     1      -8.161   3.503 -31.614  1.00  0.00     0.158 HD
HETATM    5  H   UNL     1      -8.478   5.229 -31.626  1.00  0.00     0.158 HD
HETATM    6  S   UNL     1      -5.950   6.272 -32.281  1.00  0.00    -0.086 SA
HETATM    7  C   UNL     1      -4.419   5.567 -32.968  1.00  0.00     0.093 C 
HETATM    8  C   UNL     1      -4.269   4.229 -32.212  1.00  0.00     0.121 C 
HETATM    9  C   UNL     1      -3.081   6.248 -32.828  1.00  0.00     0.158 C 
HETATM   10  S   UNL     1      -1.948   4.871 -33.120  1.00  0.00     0.147 S 
HETATM   11  O   UNL     1      -1.512   4.914 -34.497  1.00  0.00    -0.228 OA
HETATM   12  O   UNL     1      -1.026   4.803 -32.007  1.00  0.00    -0.228 OA
HETATM   13  C   UNL     1      -3.143   3.533 -32.943  1.00  0.00     0.167 C 
ENDROOT
BRANCH   1  14
HETATM   14  C   UNL     1      -5.792   2.289 -31.901  1.00  0.00     0.048 A 
HETATM   15  C   UNL     1      -6.274   1.356 -32.868  1.00  0.00     0.001 A 
HETATM   16  C   UNL     1      -6.525   0.018 -32.472  1.00  0.00    -0.024 A 
HETATM   17  C   UNL     1      -6.501   1.686 -34.226  1.00  0.00     0.014 A 
HETATM   18  C   UNL     1      -7.021  -0.911 -33.402  1.00  0.00     0.012 A 
HETATM   19  C   UNL     1      -6.270  -0.379 -31.154  1.00  0.00     0.012 A 
HETATM   20  C   UNL     1      -7.260  -0.545 -34.725  1.00  0.00     0.001 A 
HETATM   21  C   UNL     1      -6.993   0.752 -35.140  1.00  0.00     0.001 A 
HETATM   22  C   UNL     1      -5.775   0.525 -30.222  1.00  0.00     0.003 A 
HETATM   23  C   UNL     1      -5.541   1.847 -30.591  1.00  0.00     0.030 A 
ENDBRANCH   1  14
TORSDOF 1
ENDMDL
MODEL 5
REMARK VINA RESULT:      -7.6      5.048      6.637
REMARK  1 active torsions:
REMARK  status: ('A' for Active; 'I' for Inactive)
REMARK    1  A    between atoms: C_5  and  N_6 
ROOT
HETATM    1  N   UNL     1      -8.664   2.557 -33.858  1.00  0.00    -0.320 N 
HETATM    2  C   UNL     1      -8.175   3.902 -33.990  1.00  0.00     0.141 C 
HETATM    3  N   UNL     1      -6.912   4.221 -33.936  1.00  0.00    -0.380 N 
HETATM    4  H   UNL     1      -6.218   3.500 -33.789  1.00  0.00     0.158 HD
HETATM    5  H   UNL     1      -6.636   5.186 -34.049  1.00  0.00     0.158 HD
HETATM    6  S   UNL     1      -9.437   5.054 -34.268  1.00  0.00    -0.086 SA
HETATM    7  C   UNL     1     -10.691   3.801 -33.854  1.00  0.00     0.093 C 
HETATM    8  C   UNL     1     -10.051   2.481 -34.336  1.00  0.00     0.121 C 
HETATM    9  C   UNL     1     -12.073   3.810 -34.457  1.00  0.00     0.158 C 
HETATM   10  S   UNL     1     -12.592   2.101 -34.182  1.00  0.00     0.147 S 
HETATM   11  O   UNL     1     -13.414   2.053 -32.994  1.00  0.00    -0.228 OA
HETATM   12  O   UNL     1     -13.014   1.549 -35.451  1.00  0.00    -0.228 OA
HETATM   13  C   UNL     1     -10.973   1.417 -33.782  1.00  0.00     0.167 C 
ENDROOT
BRANCH   1  14
HETATM   14  C   UNL     1      -7.868   1.393 -33.859  1.00  0.00     0.048 A 
HETATM   15  C   UNL     1      -7.174   0.987 -32.679  1.00  0.00     0.001 A 
HETATM   16  C   UNL     1      -6.309  -0.136 -32.738  1.00  0.00    -0.024 A 
HETATM   17  C   UNL     1      -7.315   1.634 -31.428  1.00  0.00     0.014 A 
HETATM   18  C   UNL     1      -5.599  -0.539 -31.596  1.00  0.00     0.012 A 
HETATM   19  C   UNL     1      -6.170  -0.847 -33.936  1.00  0.00     0.012 A 
HETATM   20  C   UNL     1      -5.739   0.138 -30.386  1.00  0.00     0.001 A 
HETATM   21  C   UNL     1      -6.604   1.221 -30.300  1.00  0.00     0.001 A 
HETATM   22  C   UNL     1      -6.868  -0.465 -35.076  1.00  0.00     0.003 A 
HETATM   23  C   UNL     1      -7.706   0.647 -35.038  1.00  0.00     0.030 A 
ENDBRANCH   1  14
TORSDOF 1
ENDMDL
MODEL 6
REMARK VINA RESULT:      -7.4      4.330      5.579
REMARK  1 active torsions:
REMARK  status: ('A' for Active; 'I' for Inactive)
REMARK    1  A    between atoms: C_5  and  N_6 
ROOT
HETATM    1  N   UNL     1      -9.528   1.582 -33.146  1.00  0.00    -0.320 N 
HETATM    2  C   UNL     1     -10.743   0.816 -33.169  1.00  0.00     0.141 C 
HETATM    3  N   UNL     1     -10.821  -0.429 -32.790  1.00  0.00    -0.380 N 
HETATM    4  H   UNL     1      -9.992  -0.906 -32.460  1.00  0.00     0.158 HD
HETATM    5  H   UNL     1     -11.711  -0.906 -32.820  1.00  0.00     0.158 HD
HETATM    6  S   UNL     1     -12.107   1.730 -33.720  1.00  0.00    -0.086 SA
HETATM    7  C   UNL     1     -11.003   3.066 -34.275  1.00  0.00     0.093 C 
HETATM    8  C   UNL     1      -9.838   3.014 -33.263  1.00  0.00     0.121 C 
HETATM    9  C   UNL     1     -11.433   4.511 -34.302  1.00  0.00     0.158 C 
HETATM   10  S   UNL     1      -9.838   5.358 -34.325  1.00  0.00     0.147 S 
HETATM   11  O   UNL     1      -9.524   5.717 -35.689  1.00  0.00    -0.228 OA
HETATM   12  O   UNL     1      -9.819   6.313 -33.239  1.00  0.00    -0.228 OA
HETATM   13  C   UNL     1      -8.811   3.952 -33.856  1.00  0.00     0.167 C 
ENDROOT
BRANCH   1  14
HETATM   14  C   UNL     1      -8.321   1.184 -32.534  1.00  0.00     0.048 A 
HETATM   15  C   UNL     1      -7.453   0.253 -33.179  1.00  0.00     0.001 A 
HETATM   16  C   UNL     1      -6.293  -0.197 -32.497  1.00  0.00    -0.024 A 
HETATM   17  C   UNL     1      -7.670  -0.242 -34.487  1.00  0.00     0.014 A 
HETATM   18  C   UNL     1      -5.437  -1.131 -33.102  1.00  0.00     0.012 A 
HETATM   19  C   UNL     1      -5.999   0.298 -31.220  1.00  0.00     0.012 A 
HETATM   20  C   UNL     1      -5.696  -1.619 -34.381  1.00  0.00     0.001 A 
HETATM   21  C   UNL     1      -6.809  -1.169 -35.077  1.00  0.00     0.001 A 
HETATM   22  C   UNL     1      -6.832   1.226 -30.607  1.00  0.00     0.003 A 
HETATM   23  C   UNL     1      -7.985   1.662 -31.256  1.00  0.00     0.030 A 
ENDBRANCH   1  14
TORSDOF 1
ENDMDL
MODEL 7
REMARK VINA RESULT:      -6.9     16.507     18.012
REMARK  1 active torsions:
REMARK  status: ('A' for Active; 'I' for Inactive)
REMARK    1  A    between atoms: C_5  and  N_6 
ROOT
HETATM    1  N   UNL     1      -6.151 -14.090 -38.634  1.00  0.00    -0.320 N 
HETATM    2  C   UNL     1      -5.851 -13.416 -37.402  1.00  0.00     0.141 C 
HETATM    3  N   UNL     1      -6.745 -13.137 -36.495  1.00  0.00    -0.380 N 
HETATM    4  H   UNL     1      -7.711 -13.395 -36.645  1.00  0.00     0.158 HD
HETATM    5  H   UNL     1      -6.463 -12.671 -35.644  1.00  0.00     0.158 HD
HETATM    6  S   UNL     1      -4.169 -13.044 -37.228  1.00  0.00    -0.086 SA
HETATM    7  C   UNL     1      -3.881 -13.467 -38.975  1.00  0.00     0.093 C 
HETATM    8  C   UNL     1      -4.911 -14.586 -39.247  1.00  0.00     0.121 C 
HETATM    9  C   UNL     1      -2.566 -14.017 -39.468  1.00  0.00     0.158 C 
HETATM   10  S   UNL     1      -3.062 -14.782 -41.027  1.00  0.00     0.147 S 
HETATM   11  O   UNL     1      -2.765 -13.868 -42.106  1.00  0.00    -0.228 OA
HETATM   12  O   UNL     1      -2.612 -16.157 -41.018  1.00  0.00    -0.228 OA
HETATM   13  C   UNL     1      -4.843 -14.772 -40.747  1.00  0.00     0.167 C 
ENDROOT
BRANCH   1  14
HETATM   14  C   UNL     1      -7.375 -14.717 -38.948  1.00  0.00     0.048 A 
HETATM   15  C   UNL     1      -8.472 -13.957 -39.453  1.00  0.00     0.001 A 
HETATM   16  C   UNL     1      -9.717 -14.601 -39.671  1.00  0.00    -0.024 A 
HETATM   17  C   UNL     1      -8.387 -12.581 -39.775  1.00  0.00     0.014 A 
HETATM   18  C   UNL     1     -10.817 -13.867 -40.145  1.00  0.00     0.012 A 
HETATM   19  C   UNL     1      -9.846 -15.972 -39.419  1.00  0.00     0.012 A 
HETATM   20  C   UNL     1     -10.706 -12.507 -40.425  1.00  0.00     0.001 A 
HETATM   21  C   UNL     1      -9.488 -11.864 -40.247  1.00  0.00     0.001 A 
HETATM   22  C   UNL     1      -8.768 -16.715 -38.954  1.00  0.00     0.003 A 
HETATM   23  C   UNL     1      -7.545 -16.093 -38.717  1.00  0.00     0.030 A 
ENDBRANCH   1  14
TORSDOF 1
ENDMDL
MODEL 8
REMARK VINA RESULT:      -6.9      3.962      5.352
REMARK  1 active torsions:
REMARK  status: ('A' for Active; 'I' for Inactive)
REMARK    1  A    between atoms: C_5  and  N_6 
ROOT
HETATM    1  N   UNL     1      -7.150   2.870 -33.365  1.00  0.00    -0.320 N 
HETATM    2  C   UNL     1      -6.405   4.024 -33.787  1.00  0.00     0.141 C 
HETATM    3  N   UNL     1      -5.262   3.957 -34.411  1.00  0.00    -0.380 N 
HETATM    4  H   UNL     1      -4.853   3.056 -34.617  1.00  0.00     0.158 HD
HETATM    5  H   UNL     1      -4.796   4.809 -34.691  1.00  0.00     0.158 HD
HETATM    6  S   UNL     1      -7.202   5.515 -33.416  1.00  0.00    -0.086 SA
HETATM    7  C   UNL     1      -8.391   4.632 -32.358  1.00  0.00     0.093 C 
HETATM    8  C   UNL     1      -8.532   3.257 -33.048  1.00  0.00     0.121 C 
HETATM    9  C   UNL     1      -9.805   5.113 -32.154  1.00  0.00     0.158 C 
HETATM   10  S   UNL     1     -10.617   3.605 -31.580  1.00  0.00     0.147 S 
HETATM   11  O   UNL     1     -10.693   3.642 -30.137  1.00  0.00    -0.228 OA
HETATM   12  O   UNL     1     -11.769   3.366 -32.420  1.00  0.00    -0.228 OA
HETATM   13  C   UNL     1      -9.324   2.440 -32.052  1.00  0.00     0.167 C 
ENDROOT
BRANCH   1  14
HETATM   14  C   UNL     1      -6.873   1.537 -33.731  1.00  0.00     0.048 A 
HETATM   15  C   UNL     1      -5.913   0.769 -33.005  1.00  0.00     0.001 A 
HETATM   16  C   UNL     1      -5.589  -0.537 -33.455  1.00  0.00    -0.024 A 
HETATM   17  C   UNL     1      -5.269   1.230 -31.832  1.00  0.00     0.014 A 
HETATM   18  C   UNL     1      -4.631  -1.302 -32.770  1.00  0.00     0.012 A 
HETATM   19  C   UNL     1      -6.233  -1.066 -34.581  1.00  0.00     0.012 A 
HETATM   20  C   UNL     1      -3.995  -0.806 -31.634  1.00  0.00     0.001 A 
HETATM   21  C   UNL     1      -4.320   0.458 -31.160  1.00  0.00     0.001 A 
HETATM   22  C   UNL     1      -7.187  -0.326 -35.269  1.00  0.00     0.003 A 
HETATM   23  C   UNL     1      -7.501   0.965 -34.850  1.00  0.00     0.030 A 
ENDBRANCH   1  14
TORSDOF 1
ENDMDL
MODEL 9
REMARK VINA RESULT:      -6.9      4.798      6.601
REMARK  1 active torsions:
REMARK  status: ('A' for Active; 'I' for Inactive)
REMARK    1  A    between atoms: C_5  and  N_6 
ROOT
HETATM    1  N   UNL     1      -8.858   2.028 -33.774  1.00  0.00    -0.320 N 
HETATM    2  C   UNL     1      -7.966   1.105 -34.420  1.00  0.00     0.141 C 
HETATM    3  N   UNL     1      -8.288   0.404 -35.470  1.00  0.00    -0.380 N 
HETATM    4  H   UNL     1      -9.213   0.493 -35.870  1.00  0.00     0.158 HD
HETATM    5  H   UNL     1      -7.608  -0.219 -35.883  1.00  0.00     0.158 HD
HETATM    6  S   UNL     1      -6.402   1.048 -33.680  1.00  0.00    -0.086 SA
HETATM    7  C   UNL     1      -7.024   2.001 -32.259  1.00  0.00     0.093 C 
HETATM    8  C   UNL     1      -8.098   2.918 -32.885  1.00  0.00     0.121 C 
HETATM    9  C   UNL     1      -6.143   2.922 -31.455  1.00  0.00     0.158 C 
HETATM   10  S   UNL     1      -7.369   3.984 -30.659  1.00  0.00     0.147 S 
HETATM   11  O   UNL     1      -7.604   3.495 -29.320  1.00  0.00    -0.228 OA
HETATM   12  O   UNL     1      -7.025   5.360 -30.943  1.00  0.00    -0.228 OA
HETATM   13  C   UNL     1      -8.781   3.534 -31.685  1.00  0.00     0.167 C 
ENDROOT
BRANCH   1  14
HETATM   14  C   UNL     1     -10.101   2.457 -34.283  1.00  0.00     0.048 A 
HETATM   15  C   UNL     1     -11.263   1.639 -34.148  1.00  0.00     0.001 A 
HETATM   16  C   UNL     1     -12.477   2.057 -34.751  1.00  0.00    -0.024 A 
HETATM   17  C   UNL     1     -11.283   0.425 -33.420  1.00  0.00     0.014 A 
HETATM   18  C   UNL     1     -13.626   1.256 -34.651  1.00  0.00     0.012 A 
HETATM   19  C   UNL     1     -12.529   3.275 -35.440  1.00  0.00     0.012 A 
HETATM   20  C   UNL     1     -13.603   0.052 -33.951  1.00  0.00     0.001 A 
HETATM   21  C   UNL     1     -12.434  -0.361 -33.328  1.00  0.00     0.001 A 
HETATM   22  C   UNL     1     -11.404   4.083 -35.546  1.00  0.00     0.003 A 
HETATM   23  C   UNL     1     -10.200   3.676 -34.976  1.00  0.00     0.030 A 
ENDBRANCH   1  14
TORSDOF 1
ENDMDL
MODEL 10
REMARK VINA RESULT:      -6.8      3.583      4.390
REMARK  1 active torsions:
REMARK  status: ('A' for Active; 'I' for Inactive)
REMARK    1  A    between atoms: C_5  and  N_6 
ROOT
HETATM    1  N   UNL     1      -6.100   3.012 -32.366  1.00  0.00    -0.320 N 
HETATM    2  C   UNL     1      -5.434   4.117 -32.999  1.00  0.00     0.141 C 
HETATM    3  N   UNL     1      -4.182   4.094 -33.363  1.00  0.00    -0.380 N 
HETATM    4  H   UNL     1      -3.626   3.266 -33.198  1.00  0.00     0.158 HD
HETATM    5  H   UNL     1      -3.780   4.903 -33.815  1.00  0.00     0.158 HD
HETATM    6  S   UNL     1      -6.478   5.473 -33.263  1.00  0.00    -0.086 SA
HETATM    7  C   UNL     1      -7.749   4.718 -32.200  1.00  0.00     0.093 C 
HETATM    8  C   UNL     1      -7.556   3.203 -32.430  1.00  0.00     0.121 C 
HETATM    9  C   UNL     1      -9.223   4.960 -32.406  1.00  0.00     0.158 C 
HETATM   10  S   UNL     1      -9.941   3.553 -31.530  1.00  0.00     0.147 S 
HETATM   11  O   UNL     1     -10.339   3.984 -30.209  1.00  0.00    -0.228 OA
HETATM   12  O   UNL     1     -10.838   2.870 -32.435  1.00  0.00    -0.228 OA
HETATM   13  C   UNL     1      -8.437   2.569 -31.378  1.00  0.00     0.167 C 
ENDROOT
BRANCH   1  14
HETATM   14  C   UNL     1      -5.580   1.708 -32.237  1.00  0.00     0.048 A 
HETATM   15  C   UNL     1      -5.916   0.694 -33.184  1.00  0.00     0.001 A 
HETATM   16  C   UNL     1      -5.451  -0.629 -32.975  1.00  0.00    -0.024 A 
HETATM   17  C   UNL     1      -6.680   0.938 -34.351  1.00  0.00     0.014 A 
HETATM   18  C   UNL     1      -5.789  -1.647 -33.882  1.00  0.00     0.012 A 
HETATM   19  C   UNL     1      -4.648  -0.919 -31.865  1.00  0.00     0.012 A 
HETATM   20  C   UNL     1      -6.568  -1.378 -35.005  1.00  0.00     0.001 A 
HETATM   21  C   UNL     1      -7.007  -0.083 -35.245  1.00  0.00     0.001 A 
HETATM   22  C   UNL     1      -4.299   0.076 -30.959  1.00  0.00     0.003 A 
HETATM   23  C   UNL     1      -4.764   1.376 -31.141  1.00  0.00     0.030 A 
ENDBRANCH   1  14
TORSDOF 1
ENDMDL
