MODEL 1
REMARK VINA RESULT:      -9.3      0.000      0.000
REMARK  9 active torsions:
REMARK  status: ('A' for Active; 'I' for Inactive)
REMARK    1  A    between atoms: C_2  and  O_3 
REMARK    2  A    between atoms: O_3  and  C_4 
REMARK    3  A    between atoms: C_4  and  C_5 
REMARK    4  A    between atoms: C_8  and  N_9 
REMARK       I    between atoms: N_9  and  C_10 
REMARK    5  A    between atoms: C_10  and  C_11 
REMARK    6  A    between atoms: C_11  and  C_12 
REMARK    7  A    between atoms: N_13  and  C_14 
REMARK    8  A    between atoms: C_14  and  C_15 
REMARK    9  A    between atoms: N_23  and  C_24 
ROOT
HETATM    1  C   UNL     1      -6.130   2.562 -32.626  1.00  0.00     0.191 C 
HETATM    2  N   UNL     1      -5.040   1.626 -32.423  1.00  0.00    -0.315 N 
HETATM    3  C   UNL     1      -3.829   2.309 -32.294  1.00  0.00     0.333 C 
HETATM    4  O   UNL     1      -2.846   1.803 -31.774  1.00  0.00    -0.246 OA
HETATM    5  N   UNL     1      -3.987   3.566 -32.848  1.00  0.00    -0.232 N 
HETATM    6  C   UNL     1      -5.314   3.725 -33.198  1.00  0.00     0.256 C 
HETATM    7  O   UNL     1      -5.848   4.640 -33.813  1.00  0.00    -0.270 OA
ENDROOT
BRANCH   1   8
HETATM    8  C   UNL     1      -6.768   2.960 -31.297  1.00  0.00     0.138 C 
BRANCH   8   9
HETATM    9  C   UNL     1      -8.281   2.973 -31.366  1.00  0.00     0.224 C 
HETATM   10  N   UNL     1      -8.779   2.661 -32.619  1.00  0.00    -0.327 N 
HETATM   11  H   UNL     1      -8.117   2.555 -33.377  1.00  0.00     0.169 HD
HETATM   12  O   UNL     1      -8.941   3.214 -30.362  1.00  0.00    -0.273 OA
BRANCH  10  13
HETATM   13  C   UNL     1     -10.128   2.397 -32.956  1.00  0.00     0.034 A 
HETATM   14  C   UNL     1     -11.128   3.370 -33.004  1.00  0.00     0.030 A 
HETATM   15  C   UNL     1     -12.455   3.023 -33.300  1.00  0.00     0.020 A 
HETATM   16  C   UNL     1     -12.797   1.691 -33.557  1.00  0.00     0.039 A 
HETATM   17  C   UNL     1     -11.796   0.714 -33.520  1.00  0.00     0.020 A 
HETATM   18  C   UNL     1     -10.474   1.064 -33.220  1.00  0.00     0.030 A 
BRANCH  16  19
HETATM   19  C   UNL     1     -14.188   1.267 -33.877  1.00  0.00     0.293 C 
HETATM   20  O   UNL     1     -14.600   1.130 -35.018  1.00  0.00    -0.259 OA
BRANCH  19  21
HETATM   21  O   UNL     1     -14.895   1.049 -32.741  1.00  0.00    -0.318 OA
BRANCH  21  22
HETATM   22  C   UNL     1     -15.353   2.224 -32.054  1.00  0.00     0.174 C 
HETATM   23  C   UNL     1     -16.819   2.482 -32.348  1.00  0.00     0.034 C 
ENDBRANCH  21  22
ENDBRANCH  19  21
ENDBRANCH  16  19
ENDBRANCH  10  13
ENDBRANCH   8   9
ENDBRANCH   1   8
BRANCH   2  24
HETATM   24  C   UNL     1      -5.248   0.282 -31.909  1.00  0.00     0.168 C 
BRANCH  24  25
HETATM   25  C   UNL     1      -5.457  -0.788 -32.950  1.00  0.00    -0.023 A 
HETATM   26  C   UNL     1      -4.377  -1.585 -33.327  1.00  0.00     0.125 A 
HETATM   27  N   UNL     1      -4.435  -2.578 -34.244  1.00  0.00    -0.273 NA
HETATM   28  C   UNL     1      -5.631  -2.787 -34.834  1.00  0.00     0.116 A 
HETATM   29  C   UNL     1      -6.772  -2.069 -34.524  1.00  0.00     0.020 A 
HETATM   30  C   UNL     1      -6.685  -1.069 -33.557  1.00  0.00     0.012 A 
ENDBRANCH  24  25
ENDBRANCH   2  24
BRANCH   5  31
HETATM   31  C   UNL     1      -2.933   4.505 -33.085  1.00  0.00     0.047 A 
HETATM   32  C   UNL     1      -2.273   5.160 -32.028  1.00  0.00     0.037 A 
HETATM   33  C   UNL     1      -1.216   6.064 -32.245  1.00  0.00    -0.060 A 
HETATM   34  C   UNL     1      -0.561   6.765 -31.090  1.00  0.00     0.048 C 
HETATM   35  C   UNL     1      -0.812   6.340 -33.549  1.00  0.00     0.007 A 
HETATM   36  C   UNL     1      -1.448   5.714 -34.614  1.00  0.00     0.003 A 
HETATM   37  C   UNL     1      -2.495   4.813 -34.384  1.00  0.00     0.030 A 
ENDBRANCH   5  31
TORSDOF 9
ENDMDL
MODEL 2
REMARK VINA RESULT:      -8.9      2.469      9.536
REMARK  9 active torsions:
REMARK  status: ('A' for Active; 'I' for Inactive)
REMARK    1  A    between atoms: C_2  and  O_3 
REMARK    2  A    between atoms: O_3  and  C_4 
REMARK    3  A    between atoms: C_4  and  C_5 
REMARK    4  A    between atoms: C_8  and  N_9 
REMARK       I    between atoms: N_9  and  C_10 
REMARK    5  A    between atoms: C_10  and  C_11 
REMARK    6  A    between atoms: C_11  and  C_12 
REMARK    7  A    between atoms: N_13  and  C_14 
REMARK    8  A    between atoms: C_14  and  C_15 
REMARK    9  A    between atoms: N_23  and  C_24 
ROOT
HETATM    1  C   UNL     1      -6.858   1.176 -32.630  1.00  0.00     0.191 C 
HETATM    2  N   UNL     1      -6.906   0.197 -33.700  1.00  0.00    -0.315 N 
HETATM    3  C   UNL     1      -8.108   0.302 -34.402  1.00  0.00     0.333 C 
HETATM    4  O   UNL     1      -8.246  -0.143 -35.531  1.00  0.00    -0.246 OA
HETATM    5  N   UNL     1      -9.019   0.954 -33.592  1.00  0.00    -0.232 N 
HETATM    6  C   UNL     1      -8.365   1.377 -32.451  1.00  0.00     0.256 C 
HETATM    7  O   UNL     1      -8.826   1.891 -31.440  1.00  0.00    -0.270 OA
ENDROOT
BRANCH   1   8
HETATM    8  C   UNL     1      -6.197   2.471 -33.098  1.00  0.00     0.138 C 
BRANCH   8   9
HETATM    9  C   UNL     1      -5.044   2.884 -32.208  1.00  0.00     0.224 C 
HETATM   10  N   UNL     1      -4.303   3.937 -32.717  1.00  0.00    -0.327 N 
HETATM   11  H   UNL     1      -4.523   4.261 -33.650  1.00  0.00     0.169 HD
HETATM   12  O   UNL     1      -4.860   2.320 -31.136  1.00  0.00    -0.273 OA
BRANCH  10  13
HETATM   13  C   UNL     1      -3.302   4.676 -32.045  1.00  0.00     0.034 A 
HETATM   14  C   UNL     1      -3.559   5.607 -31.037  1.00  0.00     0.030 A 
HETATM   15  C   UNL     1      -2.515   6.337 -30.449  1.00  0.00     0.020 A 
HETATM   16  C   UNL     1      -1.193   6.140 -30.862  1.00  0.00     0.039 A 
HETATM   17  C   UNL     1      -0.930   5.200 -31.864  1.00  0.00     0.020 A 
HETATM   18  C   UNL     1      -1.975   4.477 -32.452  1.00  0.00     0.030 A 
BRANCH  16  19
HETATM   19  C   UNL     1      -0.048   6.886 -30.272  1.00  0.00     0.293 C 
HETATM   20  O   UNL     1       0.972   7.143 -30.891  1.00  0.00    -0.259 OA
BRANCH  19  21
HETATM   21  O   UNL     1      -0.315   7.237 -28.990  1.00  0.00    -0.318 OA
BRANCH  21  22
HETATM   22  C   UNL     1       0.780   7.122 -28.069  1.00  0.00     0.174 C 
HETATM   23  C   UNL     1       1.410   8.479 -27.812  1.00  0.00     0.034 C 
ENDBRANCH  21  22
ENDBRANCH  19  21
ENDBRANCH  16  19
ENDBRANCH  10  13
ENDBRANCH   8   9
ENDBRANCH   1   8
BRANCH   2  24
HETATM   24  C   UNL     1      -5.708  -0.402 -34.268  1.00  0.00     0.168 C 
BRANCH  24  25
HETATM   25  C   UNL     1      -5.715  -1.907 -34.361  1.00  0.00    -0.023 A 
HETATM   26  C   UNL     1      -4.514  -2.599 -34.206  1.00  0.00     0.125 A 
HETATM   27  N   UNL     1      -4.389  -3.945 -34.263  1.00  0.00    -0.273 NA
HETATM   28  C   UNL     1      -5.516  -4.647 -34.502  1.00  0.00     0.116 A 
HETATM   29  C   UNL     1      -6.762  -4.066 -34.654  1.00  0.00     0.020 A 
HETATM   30  C   UNL     1      -6.863  -2.679 -34.565  1.00  0.00     0.012 A 
ENDBRANCH  24  25
ENDBRANCH   2  24
BRANCH   5  31
HETATM   31  C   UNL     1     -10.418   1.095 -33.864  1.00  0.00     0.047 A 
HETATM   32  C   UNL     1     -10.917   2.148 -34.654  1.00  0.00     0.037 A 
HETATM   33  C   UNL     1     -12.286   2.282 -34.953  1.00  0.00    -0.060 A 
HETATM   34  C   UNL     1     -12.778   3.439 -35.773  1.00  0.00     0.048 C 
HETATM   35  C   UNL     1     -13.189   1.354 -34.441  1.00  0.00     0.007 A 
HETATM   36  C   UNL     1     -12.728   0.306 -33.653  1.00  0.00     0.003 A 
HETATM   37  C   UNL     1     -11.363   0.182 -33.367  1.00  0.00     0.030 A 
ENDBRANCH   5  31
TORSDOF 9
ENDMDL
MODEL 3
REMARK VINA RESULT:      -8.9      1.536      5.296
REMARK  9 active torsions:
REMARK  status: ('A' for Active; 'I' for Inactive)
REMARK    1  A    between atoms: C_2  and  O_3 
REMARK    2  A    between atoms: O_3  and  C_4 
REMARK    3  A    between atoms: C_4  and  C_5 
REMARK    4  A    between atoms: C_8  and  N_9 
REMARK       I    between atoms: N_9  and  C_10 
REMARK    5  A    between atoms: C_10  and  C_11 
REMARK    6  A    between atoms: C_11  and  C_12 
REMARK    7  A    between atoms: N_13  and  C_14 
REMARK    8  A    between atoms: C_14  and  C_15 
REMARK    9  A    between atoms: N_23  and  C_24 
ROOT
HETATM    1  C   UNL     1      -5.780   2.617 -31.434  1.00  0.00     0.191 C 
HETATM    2  N   UNL     1      -4.336   2.752 -31.465  1.00  0.00    -0.315 N 
HETATM    3  C   UNL     1      -3.758   1.656 -32.108  1.00  0.00     0.333 C 
HETATM    4  O   UNL     1      -2.629   1.692 -32.572  1.00  0.00    -0.246 OA
HETATM    5  N   UNL     1      -4.673   0.620 -32.089  1.00  0.00    -0.232 N 
HETATM    6  C   UNL     1      -5.860   1.094 -31.564  1.00  0.00     0.256 C 
HETATM    7  O   UNL     1      -6.878   0.479 -31.274  1.00  0.00    -0.270 OA
ENDROOT
BRANCH   1   8
HETATM    8  C   UNL     1      -6.422   3.291 -32.646  1.00  0.00     0.138 C 
BRANCH   8   9
HETATM    9  C   UNL     1      -7.927   3.129 -32.665  1.00  0.00     0.224 C 
HETATM   10  N   UNL     1      -8.374   2.232 -33.621  1.00  0.00    -0.327 N 
HETATM   11  H   UNL     1      -7.693   1.854 -34.267  1.00  0.00     0.169 HD
HETATM   12  O   UNL     1      -8.623   3.739 -31.862  1.00  0.00    -0.273 OA
BRANCH  10  13
HETATM   13  C   UNL     1      -9.684   1.718 -33.757  1.00  0.00     0.034 A 
HETATM   14  C   UNL     1     -10.696   2.337 -34.494  1.00  0.00     0.030 A 
HETATM   15  C   UNL     1     -11.987   1.790 -34.543  1.00  0.00     0.020 A 
HETATM   16  C   UNL     1     -12.281   0.607 -33.855  1.00  0.00     0.039 A 
HETATM   17  C   UNL     1     -11.267  -0.022 -33.125  1.00  0.00     0.020 A 
HETATM   18  C   UNL     1      -9.982   0.530 -33.074  1.00  0.00     0.030 A 
BRANCH  16  19
HETATM   19  C   UNL     1     -13.633  -0.017 -33.874  1.00  0.00     0.293 C 
HETATM   20  O   UNL     1     -13.878  -1.097 -33.360  1.00  0.00    -0.259 OA
BRANCH  19  21
HETATM   21  O   UNL     1     -14.521   0.783 -34.514  1.00  0.00    -0.318 OA
BRANCH  21  22
HETATM   22  C   UNL     1     -15.621   1.255 -33.722  1.00  0.00     0.174 C 
HETATM   23  C   UNL     1     -15.122   1.993 -32.494  1.00  0.00     0.034 C 
ENDBRANCH  21  22
ENDBRANCH  19  21
ENDBRANCH  16  19
ENDBRANCH  10  13
ENDBRANCH   8   9
ENDBRANCH   1   8
BRANCH   2  24
HETATM   24  C   UNL     1      -3.667   4.037 -31.337  1.00  0.00     0.168 C 
BRANCH  24  25
HETATM   25  C   UNL     1      -3.064   4.586 -32.605  1.00  0.00    -0.023 A 
HETATM   26  C   UNL     1      -1.701   4.876 -32.635  1.00  0.00     0.125 A 
HETATM   27  N   UNL     1      -1.042   5.366 -33.710  1.00  0.00    -0.273 NA
HETATM   28  C   UNL     1      -1.778   5.596 -34.817  1.00  0.00     0.116 A 
HETATM   29  C   UNL     1      -3.132   5.329 -34.905  1.00  0.00     0.020 A 
HETATM   30  C   UNL     1      -3.778   4.801 -33.788  1.00  0.00     0.012 A 
ENDBRANCH  24  25
ENDBRANCH   2  24
BRANCH   5  31
HETATM   31  C   UNL     1      -4.401  -0.732 -32.477  1.00  0.00     0.047 A 
HETATM   32  C   UNL     1      -5.013  -1.317 -33.602  1.00  0.00     0.037 A 
HETATM   33  C   UNL     1      -4.734  -2.634 -34.012  1.00  0.00    -0.060 A 
HETATM   34  C   UNL     1      -5.434  -3.228 -35.199  1.00  0.00     0.048 C 
HETATM   35  C   UNL     1      -3.834  -3.400 -33.275  1.00  0.00     0.007 A 
HETATM   36  C   UNL     1      -3.218  -2.853 -32.156  1.00  0.00     0.003 A 
HETATM   37  C   UNL     1      -3.501  -1.540 -31.762  1.00  0.00     0.030 A 
ENDBRANCH   5  31
TORSDOF 9
ENDMDL
MODEL 4
REMARK VINA RESULT:      -8.8      1.821      5.685
REMARK  9 active torsions:
REMARK  status: ('A' for Active; 'I' for Inactive)
REMARK    1  A    between atoms: C_2  and  O_3 
REMARK    2  A    between atoms: O_3  and  C_4 
REMARK    3  A    between atoms: C_4  and  C_5 
REMARK    4  A    between atoms: C_8  and  N_9 
REMARK       I    between atoms: N_9  and  C_10 
REMARK    5  A    between atoms: C_10  and  C_11 
REMARK    6  A    between atoms: C_11  and  C_12 
REMARK    7  A    between atoms: N_13  and  C_14 
REMARK    8  A    between atoms: C_14  and  C_15 
REMARK    9  A    between atoms: N_23  and  C_24 
ROOT
HETATM    1  C   UNL     1      -5.664   4.588 -31.886  1.00  0.00     0.191 C 
HETATM    2  N   UNL     1      -4.245   4.709 -32.163  1.00  0.00    -0.315 N 
HETATM    3  C   UNL     1      -3.731   3.492 -32.614  1.00  0.00     0.333 C 
HETATM    4  O   UNL     1      -2.684   3.417 -33.238  1.00  0.00    -0.246 OA
HETATM    5  N   UNL     1      -4.598   2.491 -32.218  1.00  0.00    -0.232 N 
HETATM    6  C   UNL     1      -5.711   3.076 -31.645  1.00  0.00     0.256 C 
HETATM    7  O   UNL     1      -6.654   2.548 -31.071  1.00  0.00    -0.270 OA
ENDROOT
BRANCH   1   8
HETATM    8  C   UNL     1      -6.499   4.960 -33.110  1.00  0.00     0.138 C 
BRANCH   8   9
HETATM    9  C   UNL     1      -7.923   4.457 -33.011  1.00  0.00     0.224 C 
HETATM   10  N   UNL     1      -8.163   3.325 -33.773  1.00  0.00    -0.327 N 
HETATM   11  H   UNL     1      -7.424   3.004 -34.385  1.00  0.00     0.169 HD
HETATM   12  O   UNL     1      -8.728   5.024 -32.283  1.00  0.00    -0.273 OA
BRANCH  10  13
HETATM   13  C   UNL     1      -9.317   2.508 -33.741  1.00  0.00     0.034 A 
HETATM   14  C   UNL     1      -9.384   1.272 -33.096  1.00  0.00     0.030 A 
HETATM   15  C   UNL     1     -10.552   0.495 -33.149  1.00  0.00     0.020 A 
HETATM   16  C   UNL     1     -11.674   0.952 -33.850  1.00  0.00     0.039 A 
HETATM   17  C   UNL     1     -11.614   2.195 -34.489  1.00  0.00     0.020 A 
HETATM   18  C   UNL     1     -10.445   2.964 -34.437  1.00  0.00     0.030 A 
BRANCH  16  19
HETATM   19  C   UNL     1     -12.937   0.170 -33.938  1.00  0.00     0.293 C 
HETATM   20  O   UNL     1     -13.101  -0.902 -33.377  1.00  0.00    -0.259 OA
BRANCH  19  21
HETATM   21  O   UNL     1     -13.850   0.821 -34.700  1.00  0.00    -0.318 OA
BRANCH  21  22
HETATM   22  C   UNL     1     -15.204   0.780 -34.225  1.00  0.00     0.174 C 
HETATM   23  C   UNL     1     -15.387   1.711 -33.040  1.00  0.00     0.034 C 
ENDBRANCH  21  22
ENDBRANCH  19  21
ENDBRANCH  16  19
ENDBRANCH  10  13
ENDBRANCH   8   9
ENDBRANCH   1   8
BRANCH   2  24
HETATM   24  C   UNL     1      -3.609   5.988 -32.438  1.00  0.00     0.168 C 
BRANCH  24  25
HETATM   25  C   UNL     1      -2.532   6.401 -31.467  1.00  0.00    -0.023 A 
HETATM   26  C   UNL     1      -1.197   6.303 -31.857  1.00  0.00     0.125 A 
HETATM   27  N   UNL     1      -0.142   6.645 -31.081  1.00  0.00    -0.273 NA
HETATM   28  C   UNL     1      -0.424   7.098 -29.842  1.00  0.00     0.116 A 
HETATM   29  C   UNL     1      -1.711   7.252 -29.358  1.00  0.00     0.020 A 
HETATM   30  C   UNL     1      -2.777   6.914 -30.190  1.00  0.00     0.012 A 
ENDBRANCH  24  25
ENDBRANCH   2  24
BRANCH   5  31
HETATM   31  C   UNL     1      -4.341   1.085 -32.318  1.00  0.00     0.047 A 
HETATM   32  C   UNL     1      -5.048   0.265 -33.218  1.00  0.00     0.037 A 
HETATM   33  C   UNL     1      -4.786  -1.112 -33.348  1.00  0.00    -0.060 A 
HETATM   34  C   UNL     1      -5.587  -1.954 -34.297  1.00  0.00     0.048 C 
HETATM   35  C   UNL     1      -3.805  -1.697 -32.551  1.00  0.00     0.007 A 
HETATM   36  C   UNL     1      -3.094  -0.915 -31.649  1.00  0.00     0.003 A 
HETATM   37  C   UNL     1      -3.361   0.455 -31.533  1.00  0.00     0.030 A 
ENDBRANCH   5  31
TORSDOF 9
ENDMDL
MODEL 5
REMARK VINA RESULT:      -8.7      2.579      9.190
REMARK  9 active torsions:
REMARK  status: ('A' for Active; 'I' for Inactive)
REMARK    1  A    between atoms: C_2  and  O_3 
REMARK    2  A    between atoms: O_3  and  C_4 
REMARK    3  A    between atoms: C_4  and  C_5 
REMARK    4  A    between atoms: C_8  and  N_9 
REMARK       I    between atoms: N_9  and  C_10 
REMARK    5  A    between atoms: C_10  and  C_11 
REMARK    6  A    between atoms: C_11  and  C_12 
REMARK    7  A    between atoms: N_13  and  C_14 
REMARK    8  A    between atoms: C_14  and  C_15 
REMARK    9  A    between atoms: N_23  and  C_24 
ROOT
HETATM    1  C   UNL     1      -8.564   2.420 -33.705  1.00  0.00     0.191 C 
HETATM    2  N   UNL     1      -9.553   1.365 -33.580  1.00  0.00    -0.315 N 
HETATM    3  C   UNL     1      -8.929   0.139 -33.344  1.00  0.00     0.333 C 
HETATM    4  O   UNL     1      -9.522  -0.813 -32.860  1.00  0.00    -0.246 OA
HETATM    5  N   UNL     1      -7.614   0.243 -33.758  1.00  0.00    -0.232 N 
HETATM    6  C   UNL     1      -7.373   1.554 -34.122  1.00  0.00     0.256 C 
HETATM    7  O   UNL     1      -6.378   2.042 -34.644  1.00  0.00    -0.270 OA
ENDROOT
BRANCH   1   8
HETATM    8  C   UNL     1      -8.295   3.085 -32.356  1.00  0.00     0.138 C 
BRANCH   8   9
HETATM    9  C   UNL     1      -7.411   4.307 -32.482  1.00  0.00     0.224 C 
HETATM   10  N   UNL     1      -6.091   4.071 -32.136  1.00  0.00    -0.327 N 
HETATM   11  H   UNL     1      -5.860   3.166 -31.747  1.00  0.00     0.169 HD
HETATM   12  O   UNL     1      -7.875   5.365 -32.889  1.00  0.00    -0.273 OA
BRANCH  10  13
HETATM   13  C   UNL     1      -4.992   4.939 -32.333  1.00  0.00     0.034 A 
HETATM   14  C   UNL     1      -4.150   4.897 -33.446  1.00  0.00     0.030 A 
HETATM   15  C   UNL     1      -3.049   5.761 -33.549  1.00  0.00     0.020 A 
HETATM   16  C   UNL     1      -2.779   6.686 -32.535  1.00  0.00     0.039 A 
HETATM   17  C   UNL     1      -3.626   6.739 -31.423  1.00  0.00     0.020 A 
HETATM   18  C   UNL     1      -4.721   5.871 -31.322  1.00  0.00     0.030 A 
BRANCH  16  19
HETATM   19  C   UNL     1      -1.626   7.626 -32.593  1.00  0.00     0.293 C 
HETATM   20  O   UNL     1      -1.754   8.840 -32.613  1.00  0.00    -0.259 OA
BRANCH  19  21
HETATM   21  O   UNL     1      -0.454   6.946 -32.601  1.00  0.00    -0.318 OA
BRANCH  21  22
HETATM   22  C   UNL     1       0.238   6.874 -31.345  1.00  0.00     0.174 C 
HETATM   23  C   UNL     1       0.151   5.474 -30.764  1.00  0.00     0.034 C 
ENDBRANCH  21  22
ENDBRANCH  19  21
ENDBRANCH  16  19
ENDBRANCH  10  13
ENDBRANCH   8   9
ENDBRANCH   1   8
BRANCH   2  24
HETATM   24  C   UNL     1     -10.938   1.629 -33.225  1.00  0.00     0.168 C 
BRANCH  24  25
HETATM   25  C   UNL     1     -11.585   2.786 -33.944  1.00  0.00    -0.023 A 
HETATM   26  C   UNL     1     -11.845   2.673 -35.309  1.00  0.00     0.125 A 
HETATM   27  N   UNL     1     -12.423   3.635 -36.065  1.00  0.00    -0.273 NA
HETATM   28  C   UNL     1     -12.752   4.782 -35.435  1.00  0.00     0.116 A 
HETATM   29  C   UNL     1     -12.558   4.995 -34.082  1.00  0.00     0.020 A 
HETATM   30  C   UNL     1     -11.982   3.976 -33.326  1.00  0.00     0.012 A 
ENDBRANCH  24  25
ENDBRANCH   2  24
BRANCH   5  31
HETATM   31  C   UNL     1      -6.690  -0.846 -33.862  1.00  0.00     0.047 A 
HETATM   32  C   UNL     1      -6.994  -2.010 -34.591  1.00  0.00     0.037 A 
HETATM   33  C   UNL     1      -6.083  -3.075 -34.725  1.00  0.00    -0.060 A 
HETATM   34  C   UNL     1      -6.463  -4.312 -35.486  1.00  0.00     0.048 C 
HETATM   35  C   UNL     1      -4.840  -2.991 -34.104  1.00  0.00     0.007 A 
HETATM   36  C   UNL     1      -4.512  -1.856 -33.371  1.00  0.00     0.003 A 
HETATM   37  C   UNL     1      -5.425  -0.802 -33.250  1.00  0.00     0.030 A 
ENDBRANCH   5  31
TORSDOF 9
ENDMDL
MODEL 6
REMARK VINA RESULT:      -8.6      3.282      8.682
REMARK  9 active torsions:
REMARK  status: ('A' for Active; 'I' for Inactive)
REMARK    1  A    between atoms: C_2  and  O_3 
REMARK    2  A    between atoms: O_3  and  C_4 
REMARK    3  A    between atoms: C_4  and  C_5 
REMARK    4  A    between atoms: C_8  and  N_9 
REMARK       I    between atoms: N_9  and  C_10 
REMARK    5  A    between atoms: C_10  and  C_11 
REMARK    6  A    between atoms: C_11  and  C_12 
REMARK    7  A    between atoms: N_13  and  C_14 
REMARK    8  A    between atoms: C_14  and  C_15 
REMARK    9  A    between atoms: N_23  and  C_24 
ROOT
HETATM    1  C   UNL     1      -6.853   0.901 -32.428  1.00  0.00     0.191 C 
HETATM    2  N   UNL     1      -6.882   0.075 -33.621  1.00  0.00    -0.315 N 
HETATM    3  C   UNL     1      -8.041   0.323 -34.357  1.00  0.00     0.333 C 
HETATM    4  O   UNL     1      -8.137   0.039 -35.541  1.00  0.00    -0.246 OA
HETATM    5  N   UNL     1      -8.969   0.901 -33.510  1.00  0.00    -0.232 N 
HETATM    6  C   UNL     1      -8.359   1.141 -32.293  1.00  0.00     0.256 C 
HETATM    7  O   UNL     1      -8.853   1.536 -31.245  1.00  0.00    -0.270 OA
ENDROOT
BRANCH   1   8
HETATM    8  C   UNL     1      -6.123   2.217 -32.687  1.00  0.00     0.138 C 
BRANCH   8   9
HETATM    9  C   UNL     1      -5.518   2.798 -31.427  1.00  0.00     0.224 C 
HETATM   10  N   UNL     1      -5.743   4.156 -31.281  1.00  0.00    -0.327 N 
HETATM   11  H   UNL     1      -6.186   4.646 -32.047  1.00  0.00     0.169 HD
HETATM   12  O   UNL     1      -4.926   2.073 -30.636  1.00  0.00    -0.273 OA
BRANCH  10  13
HETATM   13  C   UNL     1      -5.485   4.943 -30.133  1.00  0.00     0.034 A 
HETATM   14  C   UNL     1      -6.249   4.900 -28.966  1.00  0.00     0.030 A 
HETATM   15  C   UNL     1      -5.960   5.746 -27.885  1.00  0.00     0.020 A 
HETATM   16  C   UNL     1      -4.894   6.648 -27.959  1.00  0.00     0.039 A 
HETATM   17  C   UNL     1      -4.118   6.688 -29.123  1.00  0.00     0.020 A 
HETATM   18  C   UNL     1      -4.414   5.844 -30.201  1.00  0.00     0.030 A 
BRANCH  16  19
HETATM   19  C   UNL     1      -4.542   7.568 -26.842  1.00  0.00     0.293 C 
HETATM   20  O   UNL     1      -5.365   8.011 -26.056  1.00  0.00    -0.259 OA
BRANCH  19  21
HETATM   21  O   UNL     1      -3.209   7.815 -26.828  1.00  0.00    -0.318 OA
BRANCH  21  22
HETATM   22  C   UNL     1      -2.466   7.175 -25.780  1.00  0.00     0.174 C 
HETATM   23  C   UNL     1      -1.250   6.462 -26.342  1.00  0.00     0.034 C 
ENDBRANCH  21  22
ENDBRANCH  19  21
ENDBRANCH  16  19
ENDBRANCH  10  13
ENDBRANCH   8   9
ENDBRANCH   1   8
BRANCH   2  24
HETATM   24  C   UNL     1      -5.678  -0.493 -34.208  1.00  0.00     0.168 C 
BRANCH  24  25
HETATM   25  C   UNL     1      -5.668  -1.994 -34.345  1.00  0.00    -0.023 A 
HETATM   26  C   UNL     1      -4.468  -2.681 -34.170  1.00  0.00     0.125 A 
HETATM   27  N   UNL     1      -4.328  -4.024 -34.263  1.00  0.00    -0.273 NA
HETATM   28  C   UNL     1      -5.441  -4.728 -34.558  1.00  0.00     0.116 A 
HETATM   29  C   UNL     1      -6.686  -4.153 -34.734  1.00  0.00     0.020 A 
HETATM   30  C   UNL     1      -6.802  -2.770 -34.609  1.00  0.00     0.012 A 
ENDBRANCH  24  25
ENDBRANCH   2  24
BRANCH   5  31
HETATM   31  C   UNL     1     -10.346   1.136 -33.826  1.00  0.00     0.047 A 
HETATM   32  C   UNL     1     -10.751   2.239 -34.601  1.00  0.00     0.037 A 
HETATM   33  C   UNL     1     -12.097   2.466 -34.943  1.00  0.00    -0.060 A 
HETATM   34  C   UNL     1     -12.487   3.673 -35.745  1.00  0.00     0.048 C 
HETATM   35  C   UNL     1     -13.073   1.582 -34.489  1.00  0.00     0.007 A 
HETATM   36  C   UNL     1     -12.706   0.487 -33.717  1.00  0.00     0.003 A 
HETATM   37  C   UNL     1     -11.362   0.270 -33.388  1.00  0.00     0.030 A 
ENDBRANCH   5  31
TORSDOF 9
ENDMDL
MODEL 7
REMARK VINA RESULT:      -8.4      2.866      3.469
REMARK  9 active torsions:
REMARK  status: ('A' for Active; 'I' for Inactive)
REMARK    1  A    between atoms: C_2  and  O_3 
REMARK    2  A    between atoms: O_3  and  C_4 
REMARK    3  A    between atoms: C_4  and  C_5 
REMARK    4  A    between atoms: C_8  and  N_9 
REMARK       I    between atoms: N_9  and  C_10 
REMARK    5  A    between atoms: C_10  and  C_11 
REMARK    6  A    between atoms: C_11  and  C_12 
REMARK    7  A    between atoms: N_13  and  C_14 
REMARK    8  A    between atoms: C_14  and  C_15 
REMARK    9  A    between atoms: N_23  and  C_24 
ROOT
HETATM    1  C   UNL     1      -6.188   2.741 -33.169  1.00  0.00     0.191 C 
HETATM    2  N   UNL     1      -5.074   1.944 -32.691  1.00  0.00    -0.315 N 
HETATM    3  C   UNL     1      -3.962   2.754 -32.455  1.00  0.00     0.333 C 
HETATM    4  O   UNL     1      -3.040   2.404 -31.733  1.00  0.00    -0.246 OA
HETATM    5  N   UNL     1      -4.128   3.925 -33.170  1.00  0.00    -0.232 N 
HETATM    6  C   UNL     1      -5.388   3.915 -33.738  1.00  0.00     0.256 C 
HETATM    7  O   UNL     1      -5.886   4.704 -34.531  1.00  0.00    -0.270 OA
ENDROOT
BRANCH   1   8
HETATM    8  C   UNL     1      -7.069   3.206 -32.011  1.00  0.00     0.138 C 
BRANCH   8   9
HETATM    9  C   UNL     1      -8.076   4.252 -32.437  1.00  0.00     0.224 C 
HETATM   10  N   UNL     1      -8.724   3.945 -33.622  1.00  0.00    -0.327 N 
HETATM   11  H   UNL     1      -8.409   3.131 -34.134  1.00  0.00     0.169 HD
HETATM   12  O   UNL     1      -8.275   5.238 -31.737  1.00  0.00    -0.273 OA
BRANCH  10  13
HETATM   13  C   UNL     1      -9.845   4.607 -34.175  1.00  0.00     0.034 A 
HETATM   14  C   UNL     1     -11.149   4.111 -34.131  1.00  0.00     0.030 A 
HETATM   15  C   UNL     1     -12.203   4.804 -34.745  1.00  0.00     0.020 A 
HETATM   16  C   UNL     1     -11.964   6.011 -35.411  1.00  0.00     0.039 A 
HETATM   17  C   UNL     1     -10.660   6.517 -35.448  1.00  0.00     0.020 A 
HETATM   18  C   UNL     1      -9.610   5.820 -34.837  1.00  0.00     0.030 A 
BRANCH  16  19
HETATM   19  C   UNL     1     -13.045   6.787 -36.078  1.00  0.00     0.293 C 
HETATM   20  O   UNL     1     -14.228   6.502 -35.986  1.00  0.00    -0.259 OA
BRANCH  19  21
HETATM   21  O   UNL     1     -12.526   7.834 -36.766  1.00  0.00    -0.318 OA
BRANCH  21  22
HETATM   22  C   UNL     1     -13.413   8.472 -37.698  1.00  0.00     0.174 C 
HETATM   23  C   UNL     1     -12.744   8.637 -39.050  1.00  0.00     0.034 C 
ENDBRANCH  21  22
ENDBRANCH  19  21
ENDBRANCH  16  19
ENDBRANCH  10  13
ENDBRANCH   8   9
ENDBRANCH   1   8
BRANCH   2  24
HETATM   24  C   UNL     1      -5.253   0.644 -32.062  1.00  0.00     0.168 C 
BRANCH  24  25
HETATM   25  C   UNL     1      -5.469  -0.511 -33.007  1.00  0.00    -0.023 A 
HETATM   26  C   UNL     1      -4.369  -1.265 -33.414  1.00  0.00     0.125 A 
HETATM   27  N   UNL     1      -4.431  -2.325 -34.253  1.00  0.00    -0.273 NA
HETATM   28  C   UNL     1      -5.652  -2.651 -34.726  1.00  0.00     0.116 A 
HETATM   29  C   UNL     1      -6.812  -1.984 -34.375  1.00  0.00     0.020 A 
HETATM   30  C   UNL     1      -6.719  -0.911 -33.490  1.00  0.00     0.012 A 
ENDBRANCH  24  25
ENDBRANCH   2  24
BRANCH   5  31
HETATM   31  C   UNL     1      -3.130   4.937 -33.347  1.00  0.00     0.047 A 
HETATM   32  C   UNL     1      -3.018   6.030 -32.467  1.00  0.00     0.037 A 
HETATM   33  C   UNL     1      -2.023   7.015 -32.613  1.00  0.00    -0.060 A 
HETATM   34  C   UNL     1      -1.960   8.181 -31.669  1.00  0.00     0.048 C 
HETATM   35  C   UNL     1      -1.124   6.924 -33.672  1.00  0.00     0.007 A 
HETATM   36  C   UNL     1      -1.213   5.860 -34.562  1.00  0.00     0.003 A 
HETATM   37  C   UNL     1      -2.204   4.884 -34.403  1.00  0.00     0.030 A 
ENDBRANCH   5  31
TORSDOF 9
ENDMDL
MODEL 8
REMARK VINA RESULT:      -8.3      2.435      9.137
REMARK  9 active torsions:
REMARK  status: ('A' for Active; 'I' for Inactive)
REMARK    1  A    between atoms: C_2  and  O_3 
REMARK    2  A    between atoms: O_3  and  C_4 
REMARK    3  A    between atoms: C_4  and  C_5 
REMARK    4  A    between atoms: C_8  and  N_9 
REMARK       I    between atoms: N_9  and  C_10 
REMARK    5  A    between atoms: C_10  and  C_11 
REMARK    6  A    between atoms: C_11  and  C_12 
REMARK    7  A    between atoms: N_13  and  C_14 
REMARK    8  A    between atoms: C_14  and  C_15 
REMARK    9  A    between atoms: N_23  and  C_24 
ROOT
HETATM    1  C   UNL     1      -8.148   3.919 -33.344  1.00  0.00     0.191 C 
HETATM    2  N   UNL     1      -9.135   2.918 -32.982  1.00  0.00    -0.315 N 
HETATM    3  C   UNL     1      -8.511   1.711 -32.665  1.00  0.00     0.333 C 
HETATM    4  O   UNL     1      -9.062   0.844 -32.004  1.00  0.00    -0.246 OA
HETATM    5  N   UNL     1      -7.249   1.722 -33.229  1.00  0.00    -0.232 N 
HETATM    6  C   UNL     1      -7.027   2.971 -33.778  1.00  0.00     0.256 C 
HETATM    7  O   UNL     1      -6.089   3.360 -34.462  1.00  0.00    -0.270 OA
ENDROOT
BRANCH   1   8
HETATM    8  C   UNL     1      -7.718   4.734 -32.126  1.00  0.00     0.138 C 
BRANCH   8   9
HETATM    9  C   UNL     1      -6.305   4.414 -31.689  1.00  0.00     0.224 C 
HETATM   10  N   UNL     1      -5.342   5.170 -32.337  1.00  0.00    -0.327 N 
HETATM   11  H   UNL     1      -5.645   5.774 -33.090  1.00  0.00     0.169 HD
HETATM   12  O   UNL     1      -6.103   3.579 -30.816  1.00  0.00    -0.273 OA
BRANCH  10  13
HETATM   13  C   UNL     1      -3.967   5.251 -32.015  1.00  0.00     0.034 A 
HETATM   14  C   UNL     1      -2.971   4.493 -32.634  1.00  0.00     0.030 A 
HETATM   15  C   UNL     1      -1.632   4.595 -32.228  1.00  0.00     0.020 A 
HETATM   16  C   UNL     1      -1.271   5.464 -31.193  1.00  0.00     0.039 A 
HETATM   17  C   UNL     1      -2.264   6.234 -30.576  1.00  0.00     0.020 A 
HETATM   18  C   UNL     1      -3.600   6.126 -30.983  1.00  0.00     0.030 A 
BRANCH  16  19
HETATM   19  C   UNL     1       0.133   5.612 -30.722  1.00  0.00     0.293 C 
HETATM   20  O   UNL     1       0.986   4.752 -30.880  1.00  0.00    -0.259 OA
BRANCH  19  21
HETATM   21  O   UNL     1       0.314   6.816 -30.125  1.00  0.00    -0.318 OA
BRANCH  21  22
HETATM   22  C   UNL     1       0.633   6.780 -28.726  1.00  0.00     0.174 C 
HETATM   23  C   UNL     1       1.082   8.146 -28.242  1.00  0.00     0.034 C 
ENDBRANCH  21  22
ENDBRANCH  19  21
ENDBRANCH  16  19
ENDBRANCH  10  13
ENDBRANCH   8   9
ENDBRANCH   1   8
BRANCH   2  24
HETATM   24  C   UNL     1     -10.467   3.267 -32.513  1.00  0.00     0.168 C 
BRANCH  24  25
HETATM   25  C   UNL     1     -11.609   2.657 -33.286  1.00  0.00    -0.023 A 
HETATM   26  C   UNL     1     -12.900   2.743 -32.766  1.00  0.00     0.125 A 
HETATM   27  N   UNL     1     -14.005   2.241 -33.363  1.00  0.00    -0.273 NA
HETATM   28  C   UNL     1     -13.821   1.605 -34.539  1.00  0.00     0.116 A 
HETATM   29  C   UNL     1     -12.589   1.477 -35.155  1.00  0.00     0.020 A 
HETATM   30  C   UNL     1     -11.473   2.025 -34.527  1.00  0.00     0.012 A 
ENDBRANCH  24  25
ENDBRANCH   2  24
BRANCH   5  31
HETATM   31  C   UNL     1      -6.361   0.601 -33.297  1.00  0.00     0.047 A 
HETATM   32  C   UNL     1      -5.241   0.490 -32.451  1.00  0.00     0.037 A 
HETATM   33  C   UNL     1      -4.377  -0.620 -32.486  1.00  0.00    -0.060 A 
HETATM   34  C   UNL     1      -3.176  -0.681 -31.588  1.00  0.00     0.048 C 
HETATM   35  C   UNL     1      -4.620  -1.644 -33.399  1.00  0.00     0.007 A 
HETATM   36  C   UNL     1      -5.714  -1.561 -34.252  1.00  0.00     0.003 A 
HETATM   37  C   UNL     1      -6.569  -0.453 -34.202  1.00  0.00     0.030 A 
ENDBRANCH   5  31
TORSDOF 9
ENDMDL
MODEL 9
REMARK VINA RESULT:      -8.3      1.302      1.618
REMARK  9 active torsions:
REMARK  status: ('A' for Active; 'I' for Inactive)
REMARK    1  A    between atoms: C_2  and  O_3 
REMARK    2  A    between atoms: O_3  and  C_4 
REMARK    3  A    between atoms: C_4  and  C_5 
REMARK    4  A    between atoms: C_8  and  N_9 
REMARK       I    between atoms: N_9  and  C_10 
REMARK    5  A    between atoms: C_10  and  C_11 
REMARK    6  A    between atoms: C_11  and  C_12 
REMARK    7  A    between atoms: N_13  and  C_14 
REMARK    8  A    between atoms: C_14  and  C_15 
REMARK    9  A    between atoms: N_23  and  C_24 
ROOT
HETATM    1  C   UNL     1      -6.106   2.918 -32.764  1.00  0.00     0.191 C 
HETATM    2  N   UNL     1      -5.057   1.954 -32.490  1.00  0.00    -0.315 N 
HETATM    3  C   UNL     1      -3.827   2.600 -32.351  1.00  0.00     0.333 C 
HETATM    4  O   UNL     1      -2.878   2.083 -31.782  1.00  0.00    -0.246 OA
HETATM    5  N   UNL     1      -3.924   3.837 -32.961  1.00  0.00    -0.232 N 
HETATM    6  C   UNL     1      -5.234   4.027 -33.358  1.00  0.00     0.256 C 
HETATM    7  O   UNL     1      -5.717   4.933 -34.026  1.00  0.00    -0.270 OA
ENDROOT
BRANCH   1   8
HETATM    8  C   UNL     1      -6.769   3.393 -31.473  1.00  0.00     0.138 C 
BRANCH   8   9
HETATM    9  C   UNL     1      -8.116   4.038 -31.720  1.00  0.00     0.224 C 
HETATM   10  N   UNL     1      -9.168   3.137 -31.722  1.00  0.00    -0.327 N 
HETATM   11  H   UNL     1      -8.945   2.152 -31.663  1.00  0.00     0.169 HD
HETATM   12  O   UNL     1      -8.201   5.252 -31.863  1.00  0.00    -0.273 OA
BRANCH  10  13
HETATM   13  C   UNL     1     -10.549   3.443 -31.725  1.00  0.00     0.034 A 
HETATM   14  C   UNL     1     -11.234   3.985 -30.636  1.00  0.00     0.030 A 
HETATM   15  C   UNL     1     -12.616   4.217 -30.699  1.00  0.00     0.020 A 
HETATM   16  C   UNL     1     -13.333   3.911 -31.861  1.00  0.00     0.039 A 
HETATM   17  C   UNL     1     -12.648   3.377 -32.959  1.00  0.00     0.020 A 
HETATM   18  C   UNL     1     -11.269   3.143 -32.890  1.00  0.00     0.030 A 
BRANCH  16  19
HETATM   19  C   UNL     1     -14.799   4.136 -31.982  1.00  0.00     0.293 C 
HETATM   20  O   UNL     1     -15.282   5.148 -32.466  1.00  0.00    -0.259 OA
BRANCH  19  21
HETATM   21  O   UNL     1     -15.489   3.072 -31.503  1.00  0.00    -0.318 OA
BRANCH  21  22
HETATM   22  C   UNL     1     -16.460   2.502 -32.393  1.00  0.00     0.174 C 
HETATM   23  C   UNL     1     -17.868   2.786 -31.905  1.00  0.00     0.034 C 
ENDBRANCH  21  22
ENDBRANCH  19  21
ENDBRANCH  16  19
ENDBRANCH  10  13
ENDBRANCH   8   9
ENDBRANCH   1   8
BRANCH   2  24
HETATM   24  C   UNL     1      -5.328   0.641 -31.928  1.00  0.00     0.168 C 
BRANCH  24  25
HETATM   25  C   UNL     1      -5.525  -0.468 -32.930  1.00  0.00    -0.023 A 
HETATM   26  C   UNL     1      -4.438  -1.271 -33.273  1.00  0.00     0.125 A 
HETATM   27  N   UNL     1      -4.486  -2.297 -34.153  1.00  0.00    -0.273 NA
HETATM   28  C   UNL     1      -5.678  -2.535 -34.740  1.00  0.00     0.116 A 
HETATM   29  C   UNL     1      -6.825  -1.814 -34.462  1.00  0.00     0.020 A 
HETATM   30  C   UNL     1      -6.749  -0.778 -33.532  1.00  0.00     0.012 A 
ENDBRANCH  24  25
ENDBRANCH   2  24
BRANCH   5  31
HETATM   31  C   UNL     1      -2.831   4.729 -33.204  1.00  0.00     0.047 A 
HETATM   32  C   UNL     1      -2.260   5.500 -32.173  1.00  0.00     0.037 A 
HETATM   33  C   UNL     1      -1.166   6.359 -32.392  1.00  0.00    -0.060 A 
HETATM   34  C   UNL     1      -0.610   7.186 -31.269  1.00  0.00     0.048 C 
HETATM   35  C   UNL     1      -0.633   6.470 -33.673  1.00  0.00     0.007 A 
HETATM   36  C   UNL     1      -1.178   5.727 -34.713  1.00  0.00     0.003 A 
HETATM   37  C   UNL     1      -2.263   4.872 -34.481  1.00  0.00     0.030 A 
ENDBRANCH   5  31
TORSDOF 9
ENDMDL
MODEL 10
REMARK VINA RESULT:      -8.3      3.730      8.219
REMARK  9 active torsions:
REMARK  status: ('A' for Active; 'I' for Inactive)
REMARK    1  A    between atoms: C_2  and  O_3 
REMARK    2  A    between atoms: O_3  and  C_4 
REMARK    3  A    between atoms: C_4  and  C_5 
REMARK    4  A    between atoms: C_8  and  N_9 
REMARK       I    between atoms: N_9  and  C_10 
REMARK    5  A    between atoms: C_10  and  C_11 
REMARK    6  A    between atoms: C_11  and  C_12 
REMARK    7  A    between atoms: N_13  and  C_14 
REMARK    8  A    between atoms: C_14  and  C_15 
REMARK    9  A    between atoms: N_23  and  C_24 
ROOT
HETATM    1  C   UNL     1      -6.530   1.275 -32.248  1.00  0.00     0.191 C 
HETATM    2  N   UNL     1      -6.379   1.572 -33.660  1.00  0.00    -0.315 N 
HETATM    3  C   UNL     1      -6.481   0.404 -34.417  1.00  0.00     0.333 C 
HETATM    4  O   UNL     1      -6.742   0.419 -35.610  1.00  0.00    -0.246 OA
HETATM    5  N   UNL     1      -6.230  -0.669 -33.581  1.00  0.00    -0.232 N 
HETATM    6  C   UNL     1      -6.108  -0.196 -32.288  1.00  0.00     0.256 C 
HETATM    7  O   UNL     1      -5.778  -0.795 -31.273  1.00  0.00    -0.270 OA
ENDROOT
BRANCH   1   8
HETATM    8  C   UNL     1      -7.988   1.401 -31.811  1.00  0.00     0.138 C 
BRANCH   8   9
HETATM    9  C   UNL     1      -8.213   2.580 -30.888  1.00  0.00     0.224 C 
HETATM   10  N   UNL     1      -7.042   3.211 -30.502  1.00  0.00    -0.327 N 
HETATM   11  H   UNL     1      -6.166   2.787 -30.776  1.00  0.00     0.169 HD
HETATM   12  O   UNL     1      -9.351   2.911 -30.577  1.00  0.00    -0.273 OA
BRANCH  10  13
HETATM   13  C   UNL     1      -6.926   4.443 -29.817  1.00  0.00     0.034 A 
HETATM   14  C   UNL     1      -5.832   4.801 -29.028  1.00  0.00     0.030 A 
HETATM   15  C   UNL     1      -5.811   6.023 -28.339  1.00  0.00     0.020 A 
HETATM   16  C   UNL     1      -6.889   6.909 -28.436  1.00  0.00     0.039 A 
HETATM   17  C   UNL     1      -7.983   6.559 -29.235  1.00  0.00     0.020 A 
HETATM   18  C   UNL     1      -8.002   5.336 -29.917  1.00  0.00     0.030 A 
BRANCH  16  19
HETATM   19  C   UNL     1      -6.919   8.218 -27.728  1.00  0.00     0.293 C 
HETATM   20  O   UNL     1      -7.878   8.607 -27.081  1.00  0.00    -0.259 OA
BRANCH  19  21
HETATM   21  O   UNL     1      -5.747   8.879 -27.896  1.00  0.00    -0.318 OA
BRANCH  21  22
HETATM   22  C   UNL     1      -5.188   9.471 -26.715  1.00  0.00     0.174 C 
HETATM   23  C   UNL     1      -4.491   8.423 -25.867  1.00  0.00     0.034 C 
ENDBRANCH  21  22
ENDBRANCH  19  21
ENDBRANCH  16  19
ENDBRANCH  10  13
ENDBRANCH   8   9
ENDBRANCH   1   8
BRANCH   2  24
HETATM   24  C   UNL     1      -6.623   2.896 -34.212  1.00  0.00     0.168 C 
BRANCH  24  25
HETATM   25  C   UNL     1      -5.875   4.025 -33.551  1.00  0.00    -0.023 A 
HETATM   26  C   UNL     1      -4.566   3.808 -33.121  1.00  0.00     0.125 A 
HETATM   27  N   UNL     1      -3.790   4.739 -32.519  1.00  0.00    -0.273 NA
HETATM   28  C   UNL     1      -4.345   5.952 -32.319  1.00  0.00     0.116 A 
HETATM   29  C   UNL     1      -5.627   6.282 -32.721  1.00  0.00     0.020 A 
HETATM   30  C   UNL     1      -6.394   5.310 -33.360  1.00  0.00     0.012 A 
ENDBRANCH  24  25
ENDBRANCH   2  24
BRANCH   5  31
HETATM   31  C   UNL     1      -6.052  -2.025 -34.004  1.00  0.00     0.047 A 
HETATM   32  C   UNL     1      -4.828  -2.700 -33.837  1.00  0.00     0.037 A 
HETATM   33  C   UNL     1      -4.649  -4.042 -34.221  1.00  0.00    -0.060 A 
HETATM   34  C   UNL     1      -3.316  -4.712 -34.054  1.00  0.00     0.048 C 
HETATM   35  C   UNL     1      -5.710  -4.731 -34.803  1.00  0.00     0.007 A 
HETATM   36  C   UNL     1      -6.929  -4.091 -34.987  1.00  0.00     0.003 A 
HETATM   37  C   UNL     1      -7.096  -2.757 -34.595  1.00  0.00     0.030 A 
ENDBRANCH   5  31
TORSDOF 9
ENDMDL
