MODEL 1
REMARK VINA RESULT:      -9.1      0.000      0.000
REMARK  4 active torsions:
REMARK  status: ('A' for Active; 'I' for Inactive)
REMARK    1  A    between atoms: C_9  and  C_10 
REMARK       I    between atoms: C_10  and  N_11 
REMARK    2  A    between atoms: N_11  and  C_12 
REMARK    3  A    between atoms: C_14  and  C_15 
REMARK       I    between atoms: C_15  and  N_16 
REMARK    4  A    between atoms: N_16  and  C_17 
ROOT
HETATM    1  C   UNL     1      -5.146   0.211 -32.442  1.00  0.00     0.277 C 
HETATM    2  N   UNL     1      -6.353   0.090 -31.775  1.00  0.00    -0.322 N 
HETATM    3  O   UNL     1      -4.741   1.210 -33.029  1.00  0.00    -0.266 OA
HETATM    4  H   UNL     1      -6.489  -0.831 -31.365  1.00  0.00     0.169 HD
ENDROOT
BRANCH   2   5
HETATM    5  C   UNL     1      -7.364   1.050 -31.608  1.00  0.00     0.036 A 
HETATM    6  C   UNL     1      -8.532   1.090 -32.373  1.00  0.00     0.046 A 
HETATM    7  C   UNL     1      -9.483   2.098 -32.163  1.00  0.00     0.034 A 
HETATM    8  C   UNL     1      -9.286   3.043 -31.149  1.00  0.00     0.017 A 
HETATM    9  C   UNL     1      -8.127   3.003 -30.376  1.00  0.00     0.003 A 
HETATM   10  C   UNL     1      -7.167   2.017 -30.613  1.00  0.00     0.029 A 
BRANCH   7  11
HETATM   11  C   UNL     1     -10.721   2.198 -32.985  1.00  0.00     0.252 C 
HETATM   12  N   UNL     1     -11.441   1.029 -33.143  1.00  0.00    -0.352 N 
HETATM   13  H   UNL     1     -11.068   0.163 -32.773  1.00  0.00     0.163 HD
HETATM   14  O   UNL     1     -11.021   3.267 -33.507  1.00  0.00    -0.268 OA
BRANCH  12  15
HETATM   15  C   UNL     1     -12.632   0.957 -33.931  1.00  0.00     0.084 A 
HETATM   16  C   UNL     1     -13.619  -0.160 -33.718  1.00  0.00     0.027 A 
HETATM   17  C   UNL     1     -13.970   1.239 -33.305  1.00  0.00     0.027 A 
ENDBRANCH  12  15
ENDBRANCH   7  11
ENDBRANCH   2   5
BRANCH   1  18
HETATM   18  C   UNL     1      -4.361  -1.036 -32.374  1.00  0.00     0.157 A 
HETATM   19  C   UNL     1      -4.568  -2.235 -33.116  1.00  0.00     0.029 A 
HETATM   20  C   UNL     1      -5.490  -2.687 -34.080  1.00  0.00     0.023 A 
HETATM   21  C   UNL     1      -3.561  -3.097 -32.697  1.00  0.00     0.063 A 
HETATM   22  C   UNL     1      -5.378  -3.993 -34.588  1.00  0.00    -0.061 A 
HETATM   23  C   UNL     1      -6.356  -4.498 -35.609  1.00  0.00     0.048 C 
HETATM   24  C   UNL     1      -4.340  -4.823 -34.148  1.00  0.00     0.009 A 
HETATM   25  C   UNL     1      -3.410  -4.394 -33.194  1.00  0.00     0.032 A 
HETATM   26  N   UNL     1      -2.846  -2.393 -31.769  1.00  0.00    -0.277 N 
HETATM   27  H   UNL     1      -2.033  -2.712 -31.254  1.00  0.00     0.189 HD
HETATM   28  N   UNL     1      -3.308  -1.152 -31.531  1.00  0.00    -0.168 NA
ENDBRANCH   1  18
TORSDOF 4
ENDMDL
MODEL 2
REMARK VINA RESULT:      -8.8      5.544      8.580
REMARK  4 active torsions:
REMARK  status: ('A' for Active; 'I' for Inactive)
REMARK    1  A    between atoms: C_9  and  C_10 
REMARK       I    between atoms: C_10  and  N_11 
REMARK    2  A    between atoms: N_11  and  C_12 
REMARK    3  A    between atoms: C_14  and  C_15 
REMARK       I    between atoms: C_15  and  N_16 
REMARK    4  A    between atoms: N_16  and  C_17 
ROOT
HETATM    1  C   UNL     1      -3.909   2.012 -32.301  1.00  0.00     0.277 C 
HETATM    2  N   UNL     1      -3.784   3.315 -32.748  1.00  0.00    -0.322 N 
HETATM    3  O   UNL     1      -3.057   1.372 -31.691  1.00  0.00    -0.266 OA
HETATM    4  H   UNL     1      -4.612   3.648 -33.238  1.00  0.00     0.169 HD
ENDROOT
BRANCH   2   5
HETATM    5  C   UNL     1      -2.696   4.192 -32.609  1.00  0.00     0.036 A 
HETATM    6  C   UNL     1      -1.905   4.273 -31.460  1.00  0.00     0.046 A 
HETATM    7  C   UNL     1      -0.851   5.195 -31.389  1.00  0.00     0.034 A 
HETATM    8  C   UNL     1      -0.558   6.006 -32.491  1.00  0.00     0.017 A 
HETATM    9  C   UNL     1      -1.337   5.922 -33.643  1.00  0.00     0.003 A 
HETATM   10  C   UNL     1      -2.406   5.027 -33.697  1.00  0.00     0.029 A 
BRANCH   7  11
HETATM   11  C   UNL     1      -0.012   5.340 -30.167  1.00  0.00     0.252 C 
HETATM   12  N   UNL     1      -0.073   6.566 -29.530  1.00  0.00    -0.352 N 
HETATM   13  H   UNL     1      -0.605   7.317 -29.951  1.00  0.00     0.163 HD
HETATM   14  O   UNL     1       0.707   4.413 -29.808  1.00  0.00    -0.268 OA
BRANCH  12  15
HETATM   15  C   UNL     1       0.698   6.869 -28.365  1.00  0.00     0.084 A 
HETATM   16  C   UNL     1       1.200   8.267 -28.127  1.00  0.00     0.027 A 
HETATM   17  C   UNL     1       0.108   7.707 -27.265  1.00  0.00     0.027 A 
ENDBRANCH  12  15
ENDBRANCH   7  11
ENDBRANCH   2   5
BRANCH   1  18
HETATM   18  C   UNL     1      -5.225   1.443 -32.645  1.00  0.00     0.157 A 
HETATM   19  C   UNL     1      -5.498   0.163 -33.211  1.00  0.00     0.029 A 
HETATM   20  C   UNL     1      -4.735  -0.942 -33.639  1.00  0.00     0.023 A 
HETATM   21  C   UNL     1      -6.881   0.107 -33.328  1.00  0.00     0.063 A 
HETATM   22  C   UNL     1      -5.385  -2.064 -34.180  1.00  0.00    -0.061 A 
HETATM   23  C   UNL     1      -4.592  -3.248 -34.653  1.00  0.00     0.048 C 
HETATM   24  C   UNL     1      -6.783  -2.084 -34.268  1.00  0.00     0.009 A 
HETATM   25  C   UNL     1      -7.560  -0.999 -33.845  1.00  0.00     0.032 A 
HETATM   26  N   UNL     1      -7.333   1.306 -32.850  1.00  0.00    -0.277 N 
HETATM   27  H   UNL     1      -8.297   1.612 -32.782  1.00  0.00     0.189 HD
HETATM   28  N   UNL     1      -6.364   2.147 -32.445  1.00  0.00    -0.168 NA
ENDBRANCH   1  18
TORSDOF 4
ENDMDL
MODEL 3
REMARK VINA RESULT:      -8.7      4.113      6.615
REMARK  4 active torsions:
REMARK  status: ('A' for Active; 'I' for Inactive)
REMARK    1  A    between atoms: C_9  and  C_10 
REMARK       I    between atoms: C_10  and  N_11 
REMARK    2  A    between atoms: N_11  and  C_12 
REMARK    3  A    between atoms: C_14  and  C_15 
REMARK       I    between atoms: C_15  and  N_16 
REMARK    4  A    between atoms: N_16  and  C_17 
ROOT
HETATM    1  C   UNL     1      -4.432   0.057 -32.489  1.00  0.00     0.277 C 
HETATM    2  N   UNL     1      -3.979   0.836 -31.439  1.00  0.00    -0.322 N 
HETATM    3  O   UNL     1      -5.190   0.418 -33.383  1.00  0.00    -0.266 OA
HETATM    4  H   UNL     1      -3.362   0.331 -30.807  1.00  0.00     0.169 HD
ENDROOT
BRANCH   2   5
HETATM    5  C   UNL     1      -4.260   2.183 -31.160  1.00  0.00     0.036 A 
HETATM    6  C   UNL     1      -3.384   3.234 -31.443  1.00  0.00     0.046 A 
HETATM    7  C   UNL     1      -3.727   4.552 -31.108  1.00  0.00     0.034 A 
HETATM    8  C   UNL     1      -4.973   4.824 -30.532  1.00  0.00     0.017 A 
HETATM    9  C   UNL     1      -5.855   3.781 -30.257  1.00  0.00     0.003 A 
HETATM   10  C   UNL     1      -5.495   2.467 -30.561  1.00  0.00     0.029 A 
BRANCH   7  11
HETATM   11  C   UNL     1      -2.803   5.694 -31.355  1.00  0.00     0.252 C 
HETATM   12  N   UNL     1      -1.828   5.905 -30.397  1.00  0.00    -0.352 N 
HETATM   13  H   UNL     1      -1.832   5.343 -29.554  1.00  0.00     0.163 HD
HETATM   14  O   UNL     1      -2.962   6.404 -32.342  1.00  0.00    -0.268 OA
BRANCH  12  15
HETATM   15  C   UNL     1      -0.888   6.979 -30.476  1.00  0.00     0.084 A 
HETATM   16  C   UNL     1       0.335   6.986 -29.600  1.00  0.00     0.027 A 
HETATM   17  C   UNL     1       0.472   6.750 -31.075  1.00  0.00     0.027 A 
ENDBRANCH  12  15
ENDBRANCH   7  11
ENDBRANCH   2   5
BRANCH   1  18
HETATM   18  C   UNL     1      -3.890  -1.314 -32.422  1.00  0.00     0.157 A 
HETATM   19  C   UNL     1      -4.310  -2.452 -33.169  1.00  0.00     0.029 A 
HETATM   20  C   UNL     1      -5.295  -2.724 -34.139  1.00  0.00     0.023 A 
HETATM   21  C   UNL     1      -3.481  -3.486 -32.749  1.00  0.00     0.063 A 
HETATM   22  C   UNL     1      -5.423  -4.026 -34.651  1.00  0.00    -0.061 A 
HETATM   23  C   UNL     1      -6.472  -4.341 -35.679  1.00  0.00     0.048 C 
HETATM   24  C   UNL     1      -4.558  -5.035 -34.210  1.00  0.00     0.009 A 
HETATM   25  C   UNL     1      -3.569  -4.787 -33.250  1.00  0.00     0.032 A 
HETATM   26  N   UNL     1      -2.654  -2.928 -31.815  1.00  0.00    -0.277 N 
HETATM   27  H   UNL     1      -1.916  -3.392 -31.297  1.00  0.00     0.189 HD
HETATM   28  N   UNL     1      -2.880  -1.624 -31.575  1.00  0.00    -0.168 NA
ENDBRANCH   1  18
TORSDOF 4
ENDMDL
MODEL 4
REMARK VINA RESULT:      -8.6      5.892      8.477
REMARK  4 active torsions:
REMARK  status: ('A' for Active; 'I' for Inactive)
REMARK    1  A    between atoms: C_9  and  C_10 
REMARK       I    between atoms: C_10  and  N_11 
REMARK    2  A    between atoms: N_11  and  C_12 
REMARK    3  A    between atoms: C_14  and  C_15 
REMARK       I    between atoms: C_15  and  N_16 
REMARK    4  A    between atoms: N_16  and  C_17 
ROOT
HETATM    1  C   UNL     1      -3.742   2.737 -31.998  1.00  0.00     0.277 C 
HETATM    2  N   UNL     1      -2.626   3.305 -32.587  1.00  0.00    -0.322 N 
HETATM    3  O   UNL     1      -4.613   3.334 -31.374  1.00  0.00    -0.266 OA
HETATM    4  H   UNL     1      -2.030   2.622 -33.048  1.00  0.00     0.169 HD
ENDROOT
BRANCH   2   5
HETATM    5  C   UNL     1      -2.242   4.655 -32.620  1.00  0.00     0.036 A 
HETATM    6  C   UNL     1      -1.907   5.397 -31.484  1.00  0.00     0.046 A 
HETATM    7  C   UNL     1      -1.560   6.750 -31.598  1.00  0.00     0.034 A 
HETATM    8  C   UNL     1      -1.500   7.351 -32.861  1.00  0.00     0.017 A 
HETATM    9  C   UNL     1      -1.824   6.614 -33.998  1.00  0.00     0.003 A 
HETATM   10  C   UNL     1      -2.202   5.276 -33.876  1.00  0.00     0.029 A 
BRANCH   7  11
HETATM   11  C   UNL     1      -1.237   7.584 -30.407  1.00  0.00     0.252 C 
HETATM   12  N   UNL     1      -0.425   6.995 -29.455  1.00  0.00    -0.352 N 
HETATM   13  H   UNL     1      -0.158   6.024 -29.564  1.00  0.00     0.163 HD
HETATM   14  O   UNL     1      -1.720   8.706 -30.299  1.00  0.00    -0.268 OA
BRANCH  12  15
HETATM   15  C   UNL     1      -0.054   7.655 -28.242  1.00  0.00     0.084 A 
HETATM   16  C   UNL     1       1.012   7.071 -27.354  1.00  0.00     0.027 A 
HETATM   17  C   UNL     1       1.286   8.327 -28.128  1.00  0.00     0.027 A 
ENDBRANCH  12  15
ENDBRANCH   7  11
ENDBRANCH   2   5
BRANCH   1  18
HETATM   18  C   UNL     1      -3.780   1.276 -32.202  1.00  0.00     0.157 A 
HETATM   19  C   UNL     1      -4.716   0.531 -32.976  1.00  0.00     0.029 A 
HETATM   20  C   UNL     1      -5.855   0.826 -33.752  1.00  0.00     0.023 A 
HETATM   21  C   UNL     1      -4.312  -0.793 -32.856  1.00  0.00     0.063 A 
HETATM   22  C   UNL     1      -6.558  -0.220 -34.376  1.00  0.00    -0.061 A 
HETATM   23  C   UNL     1      -7.780   0.069 -35.199  1.00  0.00     0.048 C 
HETATM   24  C   UNL     1      -6.107  -1.539 -34.239  1.00  0.00     0.009 A 
HETATM   25  C   UNL     1      -4.976  -1.854 -33.477  1.00  0.00     0.032 A 
HETATM   26  N   UNL     1      -3.208  -0.762 -32.051  1.00  0.00    -0.277 N 
HETATM   27  H   UNL     1      -2.648  -1.551 -31.751  1.00  0.00     0.189 HD
HETATM   28  N   UNL     1      -2.865   0.466 -31.619  1.00  0.00    -0.168 NA
ENDBRANCH   1  18
TORSDOF 4
ENDMDL
MODEL 5
REMARK VINA RESULT:      -8.3      5.020      7.707
REMARK  4 active torsions:
REMARK  status: ('A' for Active; 'I' for Inactive)
REMARK    1  A    between atoms: C_9  and  C_10 
REMARK       I    between atoms: C_10  and  N_11 
REMARK    2  A    between atoms: N_11  and  C_12 
REMARK    3  A    between atoms: C_14  and  C_15 
REMARK       I    between atoms: C_15  and  N_16 
REMARK    4  A    between atoms: N_16  and  C_17 
ROOT
HETATM    1  C   UNL     1      -3.293   3.203 -32.153  1.00  0.00     0.277 C 
HETATM    2  N   UNL     1      -4.576   3.153 -32.669  1.00  0.00    -0.322 N 
HETATM    3  O   UNL     1      -2.749   2.331 -31.482  1.00  0.00    -0.266 OA
HETATM    4  H   UNL     1      -4.827   3.991 -33.189  1.00  0.00     0.169 HD
ENDROOT
BRANCH   2   5
HETATM    5  C   UNL     1      -5.526   2.125 -32.562  1.00  0.00     0.036 A 
HETATM    6  C   UNL     1      -5.651   1.083 -33.484  1.00  0.00     0.046 A 
HETATM    7  C   UNL     1      -6.645   0.108 -33.321  1.00  0.00     0.034 A 
HETATM    8  C   UNL     1      -7.487   0.150 -32.204  1.00  0.00     0.017 A 
HETATM    9  C   UNL     1      -7.362   1.181 -31.277  1.00  0.00     0.003 A 
HETATM   10  C   UNL     1      -6.392   2.169 -31.461  1.00  0.00     0.029 A 
BRANCH   7  11
HETATM   11  C   UNL     1      -6.836  -0.995 -34.304  1.00  0.00     0.252 C 
HETATM   12  N   UNL     1      -5.982  -2.075 -34.179  1.00  0.00    -0.352 N 
HETATM   13  H   UNL     1      -5.234  -2.039 -33.497  1.00  0.00     0.163 HD
HETATM   14  O   UNL     1      -7.684  -0.888 -35.183  1.00  0.00    -0.268 OA
BRANCH  12  15
HETATM   15  C   UNL     1      -6.019  -3.195 -35.066  1.00  0.00     0.084 A 
HETATM   16  C   UNL     1      -5.366  -4.495 -34.680  1.00  0.00     0.027 A 
HETATM   17  C   UNL     1      -6.862  -4.395 -34.734  1.00  0.00     0.027 A 
ENDBRANCH  12  15
ENDBRANCH   7  11
ENDBRANCH   2   5
BRANCH   1  18
HETATM   18  C   UNL     1      -2.615   4.466 -32.503  1.00  0.00     0.157 A 
HETATM   19  C   UNL     1      -1.628   5.161 -31.746  1.00  0.00     0.029 A 
HETATM   20  C   UNL     1      -0.982   4.978 -30.507  1.00  0.00     0.023 A 
HETATM   21  C   UNL     1      -1.306   6.276 -32.510  1.00  0.00     0.063 A 
HETATM   22  C   UNL     1      -0.039   5.924 -30.071  1.00  0.00    -0.061 A 
HETATM   23  C   UNL     1       0.654   5.755 -28.749  1.00  0.00     0.048 C 
HETATM   24  C   UNL     1       0.266   7.027 -30.879  1.00  0.00     0.009 A 
HETATM   25  C   UNL     1      -0.361   7.227 -32.115  1.00  0.00     0.032 A 
HETATM   26  N   UNL     1      -2.088   6.186 -33.628  1.00  0.00    -0.277 N 
HETATM   27  H   UNL     1      -2.114   6.831 -34.409  1.00  0.00     0.189 HD
HETATM   28  N   UNL     1      -2.906   5.118 -33.653  1.00  0.00    -0.168 NA
ENDBRANCH   1  18
TORSDOF 4
ENDMDL
MODEL 6
REMARK VINA RESULT:      -8.2      1.787      2.109
REMARK  4 active torsions:
REMARK  status: ('A' for Active; 'I' for Inactive)
REMARK    1  A    between atoms: C_9  and  C_10 
REMARK       I    between atoms: C_10  and  N_11 
REMARK    2  A    between atoms: N_11  and  C_12 
REMARK    3  A    between atoms: C_14  and  C_15 
REMARK       I    between atoms: C_15  and  N_16 
REMARK    4  A    between atoms: N_16  and  C_17 
ROOT
HETATM    1  C   UNL     1      -6.910   0.530 -32.462  1.00  0.00     0.277 C 
HETATM    2  N   UNL     1      -7.009   1.384 -33.546  1.00  0.00    -0.322 N 
HETATM    3  O   UNL     1      -7.691   0.466 -31.518  1.00  0.00    -0.266 OA
HETATM    4  H   UNL     1      -6.246   1.273 -34.211  1.00  0.00     0.169 HD
ENDROOT
BRANCH   2   5
HETATM    5  C   UNL     1      -7.997   2.343 -33.822  1.00  0.00     0.036 A 
HETATM    6  C   UNL     1      -9.317   2.025 -34.152  1.00  0.00     0.046 A 
HETATM    7  C   UNL     1     -10.240   3.041 -34.441  1.00  0.00     0.034 A 
HETATM    8  C   UNL     1      -9.850   4.382 -34.351  1.00  0.00     0.017 A 
HETATM    9  C   UNL     1      -8.538   4.705 -34.013  1.00  0.00     0.003 A 
HETATM   10  C   UNL     1      -7.615   3.689 -33.759  1.00  0.00     0.029 A 
BRANCH   7  11
HETATM   11  C   UNL     1     -11.643   2.741 -34.837  1.00  0.00     0.252 C 
HETATM   12  N   UNL     1     -12.219   1.633 -34.243  1.00  0.00    -0.352 N 
HETATM   13  H   UNL     1     -11.655   1.043 -33.644  1.00  0.00     0.163 HD
HETATM   14  O   UNL     1     -12.202   3.438 -35.677  1.00  0.00    -0.268 OA
BRANCH  12  15
HETATM   15  C   UNL     1     -13.547   1.198 -34.545  1.00  0.00     0.084 A 
HETATM   16  C   UNL     1     -14.159   0.046 -33.794  1.00  0.00     0.027 A 
HETATM   17  C   UNL     1     -14.663   1.441 -33.567  1.00  0.00     0.027 A 
ENDBRANCH  12  15
ENDBRANCH   7  11
ENDBRANCH   2   5
BRANCH   1  18
HETATM   18  C   UNL     1      -5.718  -0.334 -32.559  1.00  0.00     0.157 A 
HETATM   19  C   UNL     1      -5.580  -1.546 -33.295  1.00  0.00     0.029 A 
HETATM   20  C   UNL     1      -6.410  -2.336 -34.116  1.00  0.00     0.023 A 
HETATM   21  C   UNL     1      -4.273  -1.961 -33.068  1.00  0.00     0.063 A 
HETATM   22  C   UNL     1      -5.903  -3.522 -34.675  1.00  0.00    -0.061 A 
HETATM   23  C   UNL     1      -6.773  -4.385 -35.544  1.00  0.00     0.048 C 
HETATM   24  C   UNL     1      -4.576  -3.895 -34.431  1.00  0.00     0.009 A 
HETATM   25  C   UNL     1      -3.733  -3.124 -33.623  1.00  0.00     0.032 A 
HETATM   26  N   UNL     1      -3.732  -1.014 -32.243  1.00  0.00    -0.277 N 
HETATM   27  H   UNL     1      -2.789  -0.993 -31.873  1.00  0.00     0.189 HD
HETATM   28  N   UNL     1      -4.578  -0.026 -31.897  1.00  0.00    -0.168 NA
ENDBRANCH   1  18
TORSDOF 4
ENDMDL
MODEL 7
REMARK VINA RESULT:      -8.0      3.186      4.568
REMARK  4 active torsions:
REMARK  status: ('A' for Active; 'I' for Inactive)
REMARK    1  A    between atoms: C_9  and  C_10 
REMARK       I    between atoms: C_10  and  N_11 
REMARK    2  A    between atoms: N_11  and  C_12 
REMARK    3  A    between atoms: C_14  and  C_15 
REMARK       I    between atoms: C_15  and  N_16 
REMARK    4  A    between atoms: N_16  and  C_17 
ROOT
HETATM    1  C   UNL     1      -8.562   0.754 -32.924  1.00  0.00     0.277 C 
HETATM    2  N   UNL     1      -8.940   1.509 -34.020  1.00  0.00    -0.322 N 
HETATM    3  O   UNL     1      -9.288   0.417 -31.993  1.00  0.00    -0.266 OA
HETATM    4  H   UNL     1      -8.174   1.676 -34.669  1.00  0.00     0.169 HD
ENDROOT
BRANCH   2   5
HETATM    5  C   UNL     1     -10.201   2.045 -34.325  1.00  0.00     0.036 A 
HETATM    6  C   UNL     1     -10.457   3.414 -34.439  1.00  0.00     0.046 A 
HETATM    7  C   UNL     1     -11.752   3.871 -34.720  1.00  0.00     0.034 A 
HETATM    8  C   UNL     1     -12.785   2.952 -34.937  1.00  0.00     0.017 A 
HETATM    9  C   UNL     1     -12.534   1.586 -34.834  1.00  0.00     0.003 A 
HETATM   10  C   UNL     1     -11.250   1.136 -34.520  1.00  0.00     0.029 A 
BRANCH   7  11
HETATM   11  C   UNL     1     -12.073   5.323 -34.808  1.00  0.00     0.252 C 
HETATM   12  N   UNL     1     -11.107   6.125 -35.387  1.00  0.00    -0.352 N 
HETATM   13  H   UNL     1     -10.216   5.719 -35.647  1.00  0.00     0.163 HD
HETATM   14  O   UNL     1     -13.127   5.743 -34.342  1.00  0.00    -0.268 OA
BRANCH  12  15
HETATM   15  C   UNL     1     -11.254   7.541 -35.514  1.00  0.00     0.084 A 
HETATM   16  C   UNL     1     -10.595   8.276 -36.650  1.00  0.00     0.027 A 
HETATM   17  C   UNL     1     -12.087   8.118 -36.625  1.00  0.00     0.027 A 
ENDBRANCH  12  15
ENDBRANCH   7  11
ENDBRANCH   2   5
BRANCH   1  18
HETATM   18  C   UNL     1      -7.138   0.377 -32.988  1.00  0.00     0.157 A 
HETATM   19  C   UNL     1      -6.577  -0.813 -33.537  1.00  0.00     0.029 A 
HETATM   20  C   UNL     1      -7.072  -1.980 -34.151  1.00  0.00     0.023 A 
HETATM   21  C   UNL     1      -5.205  -0.679 -33.362  1.00  0.00     0.063 A 
HETATM   22  C   UNL     1      -6.175  -2.981 -34.562  1.00  0.00    -0.061 A 
HETATM   23  C   UNL     1      -6.682  -4.238 -35.209  1.00  0.00     0.048 C 
HETATM   24  C   UNL     1      -4.799  -2.800 -34.378  1.00  0.00     0.009 A 
HETATM   25  C   UNL     1      -4.284  -1.646 -33.775  1.00  0.00     0.032 A 
HETATM   26  N   UNL     1      -5.035   0.528 -32.743  1.00  0.00    -0.277 N 
HETATM   27  H   UNL     1      -4.158   0.954 -32.464  1.00  0.00     0.189 HD
HETATM   28  N   UNL     1      -6.179   1.188 -32.483  1.00  0.00    -0.168 NA
ENDBRANCH   1  18
TORSDOF 4
ENDMDL
MODEL 8
REMARK VINA RESULT:      -8.0      1.857      1.948
REMARK  4 active torsions:
REMARK  status: ('A' for Active; 'I' for Inactive)
REMARK    1  A    between atoms: C_9  and  C_10 
REMARK       I    between atoms: C_10  and  N_11 
REMARK    2  A    between atoms: N_11  and  C_12 
REMARK    3  A    between atoms: C_14  and  C_15 
REMARK       I    between atoms: C_15  and  N_16 
REMARK    4  A    between atoms: N_16  and  C_17 
ROOT
HETATM    1  C   UNL     1      -5.641   0.151 -32.063  1.00  0.00     0.277 C 
HETATM    2  N   UNL     1      -5.494   1.042 -33.111  1.00  0.00    -0.322 N 
HETATM    3  O   UNL     1      -6.437   0.252 -31.135  1.00  0.00    -0.266 OA
HETATM    4  H   UNL     1      -4.767   0.767 -33.768  1.00  0.00     0.169 HD
ENDROOT
BRANCH   2   5
HETATM    5  C   UNL     1      -6.202   2.229 -33.362  1.00  0.00     0.036 A 
HETATM    6  C   UNL     1      -7.582   2.280 -33.577  1.00  0.00     0.046 A 
HETATM    7  C   UNL     1      -8.212   3.503 -33.848  1.00  0.00     0.034 A 
HETATM    8  C   UNL     1      -7.464   4.686 -33.856  1.00  0.00     0.017 A 
HETATM    9  C   UNL     1      -6.090   4.642 -33.633  1.00  0.00     0.003 A 
HETATM   10  C   UNL     1      -5.462   3.418 -33.397  1.00  0.00     0.029 A 
BRANCH   7  11
HETATM   11  C   UNL     1      -9.673   3.592 -34.124  1.00  0.00     0.252 C 
HETATM   12  N   UNL     1     -10.411   2.453 -33.861  1.00  0.00    -0.352 N 
HETATM   13  H   UNL     1      -9.933   1.606 -33.578  1.00  0.00     0.163 HD
HETATM   14  O   UNL     1     -10.142   4.622 -34.596  1.00  0.00    -0.268 OA
BRANCH  12  15
HETATM   15  C   UNL     1     -11.818   2.372 -34.105  1.00  0.00     0.084 A 
HETATM   16  C   UNL     1     -12.348   1.516 -35.223  1.00  0.00     0.027 A 
HETATM   17  C   UNL     1     -12.566   1.105 -33.796  1.00  0.00     0.027 A 
ENDBRANCH  12  15
ENDBRANCH   7  11
ENDBRANCH   2   5
BRANCH   1  18
HETATM   18  C   UNL     1      -4.703  -0.981 -32.177  1.00  0.00     0.157 A 
HETATM   19  C   UNL     1      -4.829  -2.135 -33.005  1.00  0.00     0.029 A 
HETATM   20  C   UNL     1      -5.776  -2.627 -33.924  1.00  0.00     0.023 A 
HETATM   21  C   UNL     1      -3.686  -2.886 -32.754  1.00  0.00     0.063 A 
HETATM   22  C   UNL     1      -5.552  -3.862 -34.557  1.00  0.00    -0.061 A 
HETATM   23  C   UNL     1      -6.553  -4.410 -35.532  1.00  0.00     0.048 C 
HETATM   24  C   UNL     1      -4.380  -4.580 -34.285  1.00  0.00     0.009 A 
HETATM   25  C   UNL     1      -3.423  -4.108 -33.379  1.00  0.00     0.032 A 
HETATM   26  N   UNL     1      -2.978  -2.169 -31.830  1.00  0.00    -0.277 N 
HETATM   27  H   UNL     1      -2.086  -2.417 -31.418  1.00  0.00     0.189 HD
HETATM   28  N   UNL     1      -3.567  -1.023 -31.442  1.00  0.00    -0.168 NA
ENDBRANCH   1  18
TORSDOF 4
ENDMDL
MODEL 9
REMARK VINA RESULT:      -8.0      2.017      7.795
REMARK  4 active torsions:
REMARK  status: ('A' for Active; 'I' for Inactive)
REMARK    1  A    between atoms: C_9  and  C_10 
REMARK       I    between atoms: C_10  and  N_11 
REMARK    2  A    between atoms: N_11  and  C_12 
REMARK    3  A    between atoms: C_14  and  C_15 
REMARK       I    between atoms: C_15  and  N_16 
REMARK    4  A    between atoms: N_16  and  C_17 
ROOT
HETATM    1  C   UNL     1      -8.940   2.733 -33.133  1.00  0.00     0.277 C 
HETATM    2  N   UNL     1      -8.676   1.768 -32.178  1.00  0.00    -0.322 N 
HETATM    3  O   UNL     1      -8.161   3.133 -33.992  1.00  0.00    -0.266 OA
HETATM    4  H   UNL     1      -9.465   1.595 -31.560  1.00  0.00     0.169 HD
ENDROOT
BRANCH   2   5
HETATM    5  C   UNL     1      -7.497   1.033 -31.975  1.00  0.00     0.036 A 
HETATM    6  C   UNL     1      -6.949   0.164 -32.922  1.00  0.00     0.046 A 
HETATM    7  C   UNL     1      -5.781  -0.556 -32.632  1.00  0.00     0.034 A 
HETATM    8  C   UNL     1      -5.133  -0.368 -31.406  1.00  0.00     0.017 A 
HETATM    9  C   UNL     1      -5.669   0.504 -30.461  1.00  0.00     0.003 A 
HETATM   10  C   UNL     1      -6.850   1.193 -30.742  1.00  0.00     0.029 A 
BRANCH   7  11
HETATM   11  C   UNL     1      -5.190  -1.521 -33.600  1.00  0.00     0.252 C 
HETATM   12  N   UNL     1      -6.070  -2.419 -34.177  1.00  0.00    -0.352 N 
HETATM   13  H   UNL     1      -7.034  -2.436 -33.868  1.00  0.00     0.163 HD
HETATM   14  O   UNL     1      -3.982  -1.512 -33.809  1.00  0.00    -0.268 OA
BRANCH  12  15
HETATM   15  C   UNL     1      -5.650  -3.427 -35.099  1.00  0.00     0.084 A 
HETATM   16  C   UNL     1      -5.361  -4.824 -34.620  1.00  0.00     0.027 A 
HETATM   17  C   UNL     1      -6.576  -4.555 -35.459  1.00  0.00     0.027 A 
ENDBRANCH  12  15
ENDBRANCH   7  11
ENDBRANCH   2   5
BRANCH   1  18
HETATM   18  C   UNL     1     -10.314   3.257 -33.011  1.00  0.00     0.157 A 
HETATM   19  C   UNL     1     -11.535   2.537 -33.155  1.00  0.00     0.029 A 
HETATM   20  C   UNL     1     -11.903   1.210 -33.453  1.00  0.00     0.023 A 
HETATM   21  C   UNL     1     -12.536   3.475 -32.935  1.00  0.00     0.063 A 
HETATM   22  C   UNL     1     -13.265   0.868 -33.528  1.00  0.00    -0.061 A 
HETATM   23  C   UNL     1     -13.679  -0.538 -33.854  1.00  0.00     0.048 C 
HETATM   24  C   UNL     1     -14.241   1.843 -33.285  1.00  0.00     0.009 A 
HETATM   25  C   UNL     1     -13.898   3.166 -32.984  1.00  0.00     0.032 A 
HETATM   26  N   UNL     1     -11.882   4.650 -32.685  1.00  0.00    -0.277 N 
HETATM   27  H   UNL     1     -12.299   5.550 -32.478  1.00  0.00     0.189 HD
HETATM   28  N   UNL     1     -10.540   4.564 -32.740  1.00  0.00    -0.168 NA
ENDBRANCH   1  18
TORSDOF 4
ENDMDL
MODEL 10
REMARK VINA RESULT:      -7.9      6.136      9.005
REMARK  4 active torsions:
REMARK  status: ('A' for Active; 'I' for Inactive)
REMARK    1  A    between atoms: C_9  and  C_10 
REMARK       I    between atoms: C_10  and  N_11 
REMARK    2  A    between atoms: N_11  and  C_12 
REMARK    3  A    between atoms: C_14  and  C_15 
REMARK       I    between atoms: C_15  and  N_16 
REMARK    4  A    between atoms: N_16  and  C_17 
ROOT
HETATM    1  C   UNL     1      -1.372   4.909 -31.618  1.00  0.00     0.277 C 
HETATM    2  N   UNL     1      -2.605   4.436 -31.206  1.00  0.00    -0.322 N 
HETATM    3  O   UNL     1      -1.014   5.080 -32.780  1.00  0.00    -0.266 OA
HETATM    4  H   UNL     1      -2.686   4.365 -30.195  1.00  0.00     0.169 HD
ENDROOT
BRANCH   2   5
HETATM    5  C   UNL     1      -3.709   4.062 -31.990  1.00  0.00     0.036 A 
HETATM    6  C   UNL     1      -4.137   2.741 -32.149  1.00  0.00     0.046 A 
HETATM    7  C   UNL     1      -5.234   2.446 -32.972  1.00  0.00     0.034 A 
HETATM    8  C   UNL     1      -5.934   3.483 -33.599  1.00  0.00     0.017 A 
HETATM    9  C   UNL     1      -5.518   4.803 -33.436  1.00  0.00     0.003 A 
HETATM   10  C   UNL     1      -4.405   5.088 -32.643  1.00  0.00     0.029 A 
BRANCH   7  11
HETATM   11  C   UNL     1      -5.694   1.049 -33.200  1.00  0.00     0.252 C 
HETATM   12  N   UNL     1      -4.785   0.052 -32.895  1.00  0.00    -0.352 N 
HETATM   13  H   UNL     1      -3.846   0.307 -32.615  1.00  0.00     0.163 HD
HETATM   14  O   UNL     1      -6.807   0.843 -33.672  1.00  0.00    -0.268 OA
BRANCH  12  15
HETATM   15  C   UNL     1      -5.067  -1.336 -33.090  1.00  0.00     0.084 A 
HETATM   16  C   UNL     1      -4.496  -2.069 -34.274  1.00  0.00     0.027 A 
HETATM   17  C   UNL     1      -3.985  -2.361 -32.894  1.00  0.00     0.027 A 
ENDBRANCH  12  15
ENDBRANCH   7  11
ENDBRANCH   2   5
BRANCH   1  18
HETATM   18  C   UNL     1      -0.490   5.198 -30.472  1.00  0.00     0.157 A 
HETATM   19  C   UNL     1      -0.474   6.370 -29.661  1.00  0.00     0.029 A 
HETATM   20  C   UNL     1      -1.179   7.589 -29.624  1.00  0.00     0.023 A 
HETATM   21  C   UNL     1       0.523   6.144 -28.719  1.00  0.00     0.063 A 
HETATM   22  C   UNL     1      -0.856   8.548 -28.648  1.00  0.00    -0.061 A 
HETATM   23  C   UNL     1      -1.587   9.858 -28.596  1.00  0.00     0.048 C 
HETATM   24  C   UNL     1       0.147   8.273 -27.709  1.00  0.00     0.009 A 
HETATM   25  C   UNL     1       0.857   7.067 -27.725  1.00  0.00     0.032 A 
HETATM   26  N   UNL     1       1.023   4.906 -29.012  1.00  0.00    -0.277 N 
HETATM   27  H   UNL     1       1.764   4.416 -28.525  1.00  0.00     0.189 HD
HETATM   28  N   UNL     1       0.451   4.310 -30.074  1.00  0.00    -0.168 NA
ENDBRANCH   1  18
TORSDOF 4
ENDMDL
