MODEL 1
REMARK VINA RESULT:      -8.7      0.000      0.000
REMARK  6 active torsions:
REMARK  status: ('A' for Active; 'I' for Inactive)
REMARK    1  A    between atoms: C_5  and  C_6 
REMARK    2  A    between atoms: C_6  and  C_7 
REMARK       I    between atoms: C_7  and  N_8 
REMARK    3  A    between atoms: N_8  and  N_9 
REMARK       I    between atoms: N_9  and  C_10 
REMARK    4  A    between atoms: C_10  and  C_11 
REMARK    5  A    between atoms: C_15  and  C_16 
REMARK    6  A    between atoms: C_19  and  O_20 
ROOT
HETATM    1  N   UNL     1      -4.379   4.781 -33.771  1.00  0.00    -0.262 N 
HETATM    2  C   UNL     1      -5.300   4.193 -32.931  1.00  0.00     0.288 C 
HETATM    3  O   UNL     1      -5.719   4.757 -31.922  1.00  0.00    -0.264 OA
HETATM    4  H   UNL     1      -3.934   4.282 -34.539  1.00  0.00     0.190 HD
ENDROOT
BRANCH   2   5
HETATM    5  C   UNL     1      -5.726   2.877 -33.324  1.00  0.00     0.121 A 
HETATM    6  N   UNL     1      -6.979   2.629 -33.808  1.00  0.00    -0.272 N 
HETATM    7  H   UNL     1      -7.726   3.304 -33.943  1.00  0.00     0.189 HD
HETATM    8  N   UNL     1      -7.198   1.348 -34.137  1.00  0.00    -0.174 NA
HETATM    9  C   UNL     1      -6.050   0.717 -33.840  1.00  0.00     0.089 A 
HETATM   10  C   UNL     1      -5.099   1.647 -33.334  1.00  0.00     0.071 A 
BRANCH   9  11
HETATM   11  C   UNL     1      -5.873  -0.723 -34.049  1.00  0.00    -0.005 A 
HETATM   12  C   UNL     1      -4.649  -1.341 -33.764  1.00  0.00     0.016 A 
HETATM   13  C   UNL     1      -4.488  -2.719 -33.939  1.00  0.00     0.037 A 
HETATM   14  C   UNL     1      -5.544  -3.506 -34.403  1.00  0.00     0.068 A 
HETATM   15  C   UNL     1      -6.761  -2.899 -34.704  1.00  0.00     0.037 A 
HETATM   16  C   UNL     1      -6.924  -1.518 -34.528  1.00  0.00     0.016 A 
BRANCH  14  17
HETATM   17  O   UNL     1      -5.260  -4.838 -34.520  1.00  0.00    -0.356 OA
HETATM   18  C   UNL     1      -4.114  -5.314 -33.825  1.00  0.00     0.210 C 
ENDBRANCH  14  17
ENDBRANCH   9  11
ENDBRANCH   2   5
BRANCH   1  19
HETATM   19  N   UNL     1      -3.780   5.989 -33.405  1.00  0.00    -0.267 N 
HETATM   20  C   UNL     1      -2.525   6.256 -33.913  1.00  0.00     0.240 C 
HETATM   21  O   UNL     1      -1.976   5.505 -34.720  1.00  0.00    -0.272 OA
HETATM   22  H   UNL     1      -4.236   6.539 -32.679  1.00  0.00     0.190 HD
BRANCH  20  23
HETATM   23  C   UNL     1      -1.903   7.547 -33.424  1.00  0.00     0.143 C 
BRANCH  23  24
HETATM   24  C   UNL     1      -1.270   7.493 -32.053  1.00  0.00    -0.049 A 
HETATM   25  C   UNL     1      -1.820   8.115 -30.925  1.00  0.00     0.008 A 
HETATM   26  C   UNL     1      -1.175   8.048 -29.686  1.00  0.00     0.007 A 
HETATM   27  C   UNL     1       0.044   7.378 -29.552  1.00  0.00    -0.062 A 
HETATM   28  C   UNL     1       0.725   7.286 -28.219  1.00  0.00     0.048 C 
HETATM   29  C   UNL     1       0.597   6.751 -30.673  1.00  0.00     0.007 A 
HETATM   30  C   UNL     1      -0.050   6.814 -31.909  1.00  0.00     0.008 A 
ENDBRANCH  23  24
ENDBRANCH  20  23
ENDBRANCH   1  19
TORSDOF 6
ENDMDL
MODEL 2
REMARK VINA RESULT:      -8.6      2.129      2.817
REMARK  6 active torsions:
REMARK  status: ('A' for Active; 'I' for Inactive)
REMARK    1  A    between atoms: C_5  and  C_6 
REMARK    2  A    between atoms: C_6  and  C_7 
REMARK       I    between atoms: C_7  and  N_8 
REMARK    3  A    between atoms: N_8  and  N_9 
REMARK       I    between atoms: N_9  and  C_10 
REMARK    4  A    between atoms: C_10  and  C_11 
REMARK    5  A    between atoms: C_15  and  C_16 
REMARK    6  A    between atoms: C_19  and  O_20 
ROOT
HETATM    1  N   UNL     1      -2.097   4.454 -32.178  1.00  0.00    -0.262 N 
HETATM    2  C   UNL     1      -3.309   4.276 -31.545  1.00  0.00     0.288 C 
HETATM    3  O   UNL     1      -3.826   5.158 -30.863  1.00  0.00    -0.264 OA
HETATM    4  H   UNL     1      -1.600   3.698 -32.644  1.00  0.00     0.190 HD
ENDROOT
BRANCH   2   5
HETATM    5  C   UNL     1      -3.911   2.986 -31.742  1.00  0.00     0.121 A 
HETATM    6  N   UNL     1      -4.829   2.468 -30.873  1.00  0.00    -0.272 N 
HETATM    7  H   UNL     1      -5.180   2.903 -30.025  1.00  0.00     0.189 HD
HETATM    8  N   UNL     1      -5.295   1.259 -31.220  1.00  0.00    -0.174 NA
HETATM    9  C   UNL     1      -4.644   0.955 -32.355  1.00  0.00     0.089 A 
HETATM   10  C   UNL     1      -3.772   2.018 -32.718  1.00  0.00     0.071 A 
BRANCH   9  11
HETATM   11  C   UNL     1      -4.866  -0.307 -33.068  1.00  0.00    -0.005 A 
HETATM   12  C   UNL     1      -3.924  -1.341 -33.000  1.00  0.00     0.016 A 
HETATM   13  C   UNL     1      -4.148  -2.554 -33.660  1.00  0.00     0.037 A 
HETATM   14  C   UNL     1      -5.313  -2.757 -34.402  1.00  0.00     0.068 A 
HETATM   15  C   UNL     1      -6.250  -1.728 -34.489  1.00  0.00     0.037 A 
HETATM   16  C   UNL     1      -6.027  -0.513 -33.827  1.00  0.00     0.016 A 
BRANCH  14  17
HETATM   17  O   UNL     1      -5.415  -3.987 -34.988  1.00  0.00    -0.356 OA
HETATM   18  C   UNL     1      -6.721  -4.538 -35.102  1.00  0.00     0.210 C 
ENDBRANCH  14  17
ENDBRANCH   9  11
ENDBRANCH   2   5
BRANCH   1  19
HETATM   19  N   UNL     1      -1.349   5.608 -31.931  1.00  0.00    -0.267 N 
HETATM   20  C   UNL     1      -0.337   5.521 -30.997  1.00  0.00     0.240 C 
HETATM   21  O   UNL     1      -0.042   4.456 -30.453  1.00  0.00    -0.272 OA
HETATM   22  H   UNL     1      -1.677   6.479 -32.344  1.00  0.00     0.190 HD
BRANCH  20  23
HETATM   23  C   UNL     1       0.389   6.821 -30.724  1.00  0.00     0.143 C 
BRANCH  23  24
HETATM   24  C   UNL     1       0.121   7.453 -29.377  1.00  0.00    -0.049 A 
HETATM   25  C   UNL     1       1.134   7.900 -28.520  1.00  0.00     0.008 A 
HETATM   26  C   UNL     1       0.823   8.458 -27.276  1.00  0.00     0.007 A 
HETATM   27  C   UNL     1      -0.505   8.559 -26.852  1.00  0.00    -0.062 A 
HETATM   28  C   UNL     1      -0.840   9.177 -25.527  1.00  0.00     0.048 C 
HETATM   29  C   UNL     1      -1.521   8.119 -27.704  1.00  0.00     0.007 A 
HETATM   30  C   UNL     1      -1.211   7.567 -28.949  1.00  0.00     0.008 A 
ENDBRANCH  23  24
ENDBRANCH  20  23
ENDBRANCH   1  19
TORSDOF 6
ENDMDL
MODEL 3
REMARK VINA RESULT:      -8.3      3.471      4.538
REMARK  6 active torsions:
REMARK  status: ('A' for Active; 'I' for Inactive)
REMARK    1  A    between atoms: C_5  and  C_6 
REMARK    2  A    between atoms: C_6  and  C_7 
REMARK       I    between atoms: C_7  and  N_8 
REMARK    3  A    between atoms: N_8  and  N_9 
REMARK       I    between atoms: N_9  and  C_10 
REMARK    4  A    between atoms: C_10  and  C_11 
REMARK    5  A    between atoms: C_15  and  C_16 
REMARK    6  A    between atoms: C_19  and  O_20 
ROOT
HETATM    1  N   UNL     1      -3.590   3.459 -31.167  1.00  0.00    -0.262 N 
HETATM    2  C   UNL     1      -3.752   2.092 -31.246  1.00  0.00     0.288 C 
HETATM    3  O   UNL     1      -2.805   1.315 -31.152  1.00  0.00    -0.264 OA
HETATM    4  H   UNL     1      -4.341   4.117 -31.363  1.00  0.00     0.190 HD
ENDROOT
BRANCH   2   5
HETATM    5  C   UNL     1      -5.106   1.654 -31.450  1.00  0.00     0.121 A 
HETATM    6  N   UNL     1      -5.679   0.675 -30.690  1.00  0.00    -0.272 N 
HETATM    7  H   UNL     1      -5.245   0.161 -29.929  1.00  0.00     0.189 HD
HETATM    8  N   UNL     1      -6.952   0.402 -31.011  1.00  0.00    -0.174 NA
HETATM    9  C   UNL     1      -7.228   1.220 -32.040  1.00  0.00     0.089 A 
HETATM   10  C   UNL     1      -6.094   2.027 -32.340  1.00  0.00     0.071 A 
BRANCH   9  11
HETATM   11  C   UNL     1      -8.537   1.233 -32.699  1.00  0.00    -0.005 A 
HETATM   12  C   UNL     1      -8.882   2.264 -33.582  1.00  0.00     0.016 A 
HETATM   13  C   UNL     1     -10.121   2.262 -34.231  1.00  0.00     0.037 A 
HETATM   14  C   UNL     1     -11.040   1.234 -34.009  1.00  0.00     0.068 A 
HETATM   15  C   UNL     1     -10.713   0.212 -33.120  1.00  0.00     0.037 A 
HETATM   16  C   UNL     1      -9.470   0.212 -32.471  1.00  0.00     0.016 A 
BRANCH  14  17
HETATM   17  O   UNL     1     -12.208   1.345 -34.711  1.00  0.00    -0.356 OA
HETATM   18  C   UNL     1     -13.361   0.740 -34.138  1.00  0.00     0.210 C 
ENDBRANCH  14  17
ENDBRANCH   9  11
ENDBRANCH   2   5
BRANCH   1  19
HETATM   19  N   UNL     1      -2.303   4.003 -31.127  1.00  0.00    -0.267 N 
HETATM   20  C   UNL     1      -1.948   4.870 -32.139  1.00  0.00     0.240 C 
HETATM   21  O   UNL     1      -2.748   5.221 -33.007  1.00  0.00    -0.272 OA
HETATM   22  H   UNL     1      -1.655   3.626 -30.437  1.00  0.00     0.190 HD
BRANCH  20  23
HETATM   23  C   UNL     1      -0.520   5.369 -32.076  1.00  0.00     0.143 C 
BRANCH  23  24
HETATM   24  C   UNL     1      -0.048   5.840 -30.719  1.00  0.00    -0.049 A 
HETATM   25  C   UNL     1       0.525   4.990 -29.765  1.00  0.00     0.008 A 
HETATM   26  C   UNL     1       0.922   5.482 -28.517  1.00  0.00     0.007 A 
HETATM   27  C   UNL     1       0.735   6.827 -28.189  1.00  0.00    -0.062 A 
HETATM   28  C   UNL     1       1.182   7.360 -26.859  1.00  0.00     0.048 C 
HETATM   29  C   UNL     1       0.168   7.682 -29.138  1.00  0.00     0.007 A 
HETATM   30  C   UNL     1      -0.225   7.192 -30.386  1.00  0.00     0.008 A 
ENDBRANCH  23  24
ENDBRANCH  20  23
ENDBRANCH   1  19
TORSDOF 6
ENDMDL
MODEL 4
REMARK VINA RESULT:      -8.2      2.875     10.593
REMARK  6 active torsions:
REMARK  status: ('A' for Active; 'I' for Inactive)
REMARK    1  A    between atoms: C_5  and  C_6 
REMARK    2  A    between atoms: C_6  and  C_7 
REMARK       I    between atoms: C_7  and  N_8 
REMARK    3  A    between atoms: N_8  and  N_9 
REMARK       I    between atoms: N_9  and  C_10 
REMARK    4  A    between atoms: C_10  and  C_11 
REMARK    5  A    between atoms: C_15  and  C_16 
REMARK    6  A    between atoms: C_19  and  O_20 
ROOT
HETATM    1  N   UNL     1      -3.782   4.054 -31.848  1.00  0.00    -0.262 N 
HETATM    2  C   UNL     1      -2.965   5.038 -32.364  1.00  0.00     0.288 C 
HETATM    3  O   UNL     1      -3.153   5.528 -33.476  1.00  0.00    -0.264 OA
HETATM    4  H   UNL     1      -3.571   3.556 -30.986  1.00  0.00     0.190 HD
ENDROOT
BRANCH   2   5
HETATM    5  C   UNL     1      -1.884   5.439 -31.506  1.00  0.00     0.121 A 
HETATM    6  N   UNL     1      -0.577   5.182 -31.810  1.00  0.00    -0.272 N 
HETATM    7  H   UNL     1      -0.225   4.702 -32.633  1.00  0.00     0.189 HD
HETATM    8  N   UNL     1       0.299   5.638 -30.903  1.00  0.00    -0.174 NA
HETATM    9  C   UNL     1      -0.459   6.203 -29.949  1.00  0.00     0.089 A 
HETATM   10  C   UNL     1      -1.835   6.103 -30.296  1.00  0.00     0.071 A 
BRANCH   9  11
HETATM   11  C   UNL     1       0.122   6.826 -28.756  1.00  0.00    -0.005 A 
HETATM   12  C   UNL     1      -0.167   6.329 -27.478  1.00  0.00     0.016 A 
HETATM   13  C   UNL     1       0.408   6.908 -26.342  1.00  0.00     0.037 A 
HETATM   14  C   UNL     1       1.279   7.993 -26.458  1.00  0.00     0.068 A 
HETATM   15  C   UNL     1       1.561   8.504 -27.723  1.00  0.00     0.037 A 
HETATM   16  C   UNL     1       0.986   7.924 -28.863  1.00  0.00     0.016 A 
BRANCH  14  17
HETATM   17  O   UNL     1       1.779   8.458 -25.274  1.00  0.00    -0.356 OA
HETATM   18  C   UNL     1       1.125   9.581 -24.698  1.00  0.00     0.210 C 
ENDBRANCH  14  17
ENDBRANCH   9  11
ENDBRANCH   2   5
BRANCH   1  19
HETATM   19  N   UNL     1      -4.767   3.479 -32.655  1.00  0.00    -0.267 N 
HETATM   20  C   UNL     1      -5.589   2.534 -32.077  1.00  0.00     0.240 C 
HETATM   21  O   UNL     1      -5.520   2.255 -30.879  1.00  0.00    -0.272 OA
HETATM   22  H   UNL     1      -4.737   3.684 -33.652  1.00  0.00     0.190 HD
BRANCH  20  23
HETATM   23  C   UNL     1      -6.589   1.900 -33.021  1.00  0.00     0.143 C 
BRANCH  23  24
HETATM   24  C   UNL     1      -6.261   0.498 -33.481  1.00  0.00    -0.049 A 
HETATM   25  C   UNL     1      -5.033  -0.128 -33.231  1.00  0.00     0.008 A 
HETATM   26  C   UNL     1      -4.781  -1.420 -33.703  1.00  0.00     0.007 A 
HETATM   27  C   UNL     1      -5.741  -2.106 -34.452  1.00  0.00    -0.062 A 
HETATM   28  C   UNL     1      -5.479  -3.501 -34.939  1.00  0.00     0.048 C 
HETATM   29  C   UNL     1      -6.969  -1.489 -34.702  1.00  0.00     0.007 A 
HETATM   30  C   UNL     1      -7.224  -0.200 -34.227  1.00  0.00     0.008 A 
ENDBRANCH  23  24
ENDBRANCH  20  23
ENDBRANCH   1  19
TORSDOF 6
ENDMDL
MODEL 5
REMARK VINA RESULT:      -8.1      3.301     10.751
REMARK  6 active torsions:
REMARK  status: ('A' for Active; 'I' for Inactive)
REMARK    1  A    between atoms: C_5  and  C_6 
REMARK    2  A    between atoms: C_6  and  C_7 
REMARK       I    between atoms: C_7  and  N_8 
REMARK    3  A    between atoms: N_8  and  N_9 
REMARK       I    between atoms: N_9  and  C_10 
REMARK    4  A    between atoms: C_10  and  C_11 
REMARK    5  A    between atoms: C_15  and  C_16 
REMARK    6  A    between atoms: C_19  and  O_20 
ROOT
HETATM    1  N   UNL     1      -2.958   3.267 -31.646  1.00  0.00    -0.262 N 
HETATM    2  C   UNL     1      -2.257   4.224 -32.349  1.00  0.00     0.288 C 
HETATM    3  O   UNL     1      -2.324   4.316 -33.573  1.00  0.00    -0.264 OA
HETATM    4  H   UNL     1      -2.820   3.100 -30.651  1.00  0.00     0.190 HD
ENDROOT
BRANCH   2   5
HETATM    5  C   UNL     1      -1.444   5.094 -31.544  1.00  0.00     0.121 A 
HETATM    6  N   UNL     1      -0.080   5.090 -31.612  1.00  0.00    -0.272 N 
HETATM    7  H   UNL     1       0.499   4.504 -32.206  1.00  0.00     0.189 HD
HETATM    8  N   UNL     1       0.515   5.975 -30.799  1.00  0.00    -0.174 NA
HETATM    9  C   UNL     1      -0.496   6.576 -30.151  1.00  0.00     0.089 A 
HETATM   10  C   UNL     1      -1.742   6.054 -30.597  1.00  0.00     0.071 A 
BRANCH   9  11
HETATM   11  C   UNL     1      -0.270   7.623 -29.150  1.00  0.00    -0.005 A 
HETATM   12  C   UNL     1      -1.318   8.454 -28.735  1.00  0.00     0.016 A 
HETATM   13  C   UNL     1      -1.107   9.435 -27.761  1.00  0.00     0.037 A 
HETATM   14  C   UNL     1       0.153   9.608 -27.184  1.00  0.00     0.068 A 
HETATM   15  C   UNL     1       1.206   8.798 -27.601  1.00  0.00     0.037 A 
HETATM   16  C   UNL     1       0.996   7.813 -28.576  1.00  0.00     0.016 A 
BRANCH  14  17
HETATM   17  O   UNL     1       0.222  10.594 -26.239  1.00  0.00    -0.356 OA
HETATM   18  C   UNL     1       1.223  10.453 -25.238  1.00  0.00     0.210 C 
ENDBRANCH  14  17
ENDBRANCH   9  11
ENDBRANCH   2   5
BRANCH   1  19
HETATM   19  N   UNL     1      -3.654   2.272 -32.336  1.00  0.00    -0.267 N 
HETATM   20  C   UNL     1      -3.421   0.963 -31.970  1.00  0.00     0.240 C 
HETATM   21  O   UNL     1      -2.690   0.671 -31.023  1.00  0.00    -0.272 OA
HETATM   22  H   UNL     1      -4.186   2.554 -33.158  1.00  0.00     0.190 HD
BRANCH  20  23
HETATM   23  C   UNL     1      -4.153  -0.069 -32.802  1.00  0.00     0.143 C 
BRANCH  23  24
HETATM   24  C   UNL     1      -5.662   0.031 -32.794  1.00  0.00    -0.049 A 
HETATM   25  C   UNL     1      -6.418   0.193 -31.626  1.00  0.00     0.008 A 
HETATM   26  C   UNL     1      -7.813   0.256 -31.682  1.00  0.00     0.007 A 
HETATM   27  C   UNL     1      -8.485   0.137 -32.902  1.00  0.00    -0.062 A 
HETATM   28  C   UNL     1      -9.981   0.228 -32.965  1.00  0.00     0.048 C 
HETATM   29  C   UNL     1      -7.736  -0.022 -34.072  1.00  0.00     0.007 A 
HETATM   30  C   UNL     1      -6.342  -0.080 -34.017  1.00  0.00     0.008 A 
ENDBRANCH  23  24
ENDBRANCH  20  23
ENDBRANCH   1  19
TORSDOF 6
ENDMDL
MODEL 6
REMARK VINA RESULT:      -8.0      2.507      3.842
REMARK  6 active torsions:
REMARK  status: ('A' for Active; 'I' for Inactive)
REMARK    1  A    between atoms: C_5  and  C_6 
REMARK    2  A    between atoms: C_6  and  C_7 
REMARK       I    between atoms: C_7  and  N_8 
REMARK    3  A    between atoms: N_8  and  N_9 
REMARK       I    between atoms: N_9  and  C_10 
REMARK    4  A    between atoms: C_10  and  C_11 
REMARK    5  A    between atoms: C_15  and  C_16 
REMARK    6  A    between atoms: C_19  and  O_20 
ROOT
HETATM    1  N   UNL     1      -2.194   5.222 -30.422  1.00  0.00    -0.262 N 
HETATM    2  C   UNL     1      -2.367   4.685 -31.680  1.00  0.00     0.288 C 
HETATM    3  O   UNL     1      -1.821   5.160 -32.674  1.00  0.00    -0.264 OA
HETATM    4  H   UNL     1      -2.731   4.918 -29.612  1.00  0.00     0.190 HD
ENDROOT
BRANCH   2   5
HETATM    5  C   UNL     1      -3.233   3.539 -31.736  1.00  0.00     0.121 A 
HETATM    6  N   UNL     1      -4.089   3.221 -30.721  1.00  0.00    -0.272 N 
HETATM    7  H   UNL     1      -4.214   3.724 -29.847  1.00  0.00     0.189 HD
HETATM    8  N   UNL     1      -4.830   2.126 -30.948  1.00  0.00    -0.174 NA
HETATM    9  C   UNL     1      -4.434   1.690 -32.155  1.00  0.00     0.089 A 
HETATM   10  C   UNL     1      -3.437   2.556 -32.684  1.00  0.00     0.071 A 
BRANCH   9  11
HETATM   11  C   UNL     1      -5.004   0.492 -32.779  1.00  0.00    -0.005 A 
HETATM   12  C   UNL     1      -6.323   0.492 -33.250  1.00  0.00     0.016 A 
HETATM   13  C   UNL     1      -6.859  -0.643 -33.869  1.00  0.00     0.037 A 
HETATM   14  C   UNL     1      -6.090  -1.798 -34.027  1.00  0.00     0.068 A 
HETATM   15  C   UNL     1      -4.782  -1.813 -33.548  1.00  0.00     0.037 A 
HETATM   16  C   UNL     1      -4.244  -0.676 -32.929  1.00  0.00     0.016 A 
BRANCH  14  17
HETATM   17  O   UNL     1      -6.727  -2.831 -34.655  1.00  0.00    -0.356 OA
HETATM   18  C   UNL     1      -5.906  -3.864 -35.186  1.00  0.00     0.210 C 
ENDBRANCH  14  17
ENDBRANCH   9  11
ENDBRANCH   2   5
BRANCH   1  19
HETATM   19  N   UNL     1      -1.502   6.426 -30.272  1.00  0.00    -0.267 N 
HETATM   20  C   UNL     1      -1.970   7.315 -29.326  1.00  0.00     0.240 C 
HETATM   21  O   UNL     1      -2.911   7.038 -28.581  1.00  0.00    -0.272 OA
HETATM   22  H   UNL     1      -0.781   6.643 -30.958  1.00  0.00     0.190 HD
BRANCH  20  23
HETATM   23  C   UNL     1      -1.219   8.628 -29.261  1.00  0.00     0.143 C 
BRANCH  23  24
HETATM   24  C   UNL     1      -0.235   8.767 -28.122  1.00  0.00    -0.049 A 
HETATM   25  C   UNL     1       1.068   8.254 -28.161  1.00  0.00     0.008 A 
HETATM   26  C   UNL     1       1.925   8.395 -27.066  1.00  0.00     0.007 A 
HETATM   27  C   UNL     1       1.492   9.032 -25.899  1.00  0.00    -0.062 A 
HETATM   28  C   UNL     1       2.419   9.204 -24.732  1.00  0.00     0.048 C 
HETATM   29  C   UNL     1       0.195   9.549 -25.854  1.00  0.00     0.007 A 
HETATM   30  C   UNL     1      -0.660   9.413 -26.950  1.00  0.00     0.008 A 
ENDBRANCH  23  24
ENDBRANCH  20  23
ENDBRANCH   1  19
TORSDOF 6
ENDMDL
MODEL 7
REMARK VINA RESULT:      -7.9      6.463      8.137
REMARK  6 active torsions:
REMARK  status: ('A' for Active; 'I' for Inactive)
REMARK    1  A    between atoms: C_5  and  C_6 
REMARK    2  A    between atoms: C_6  and  C_7 
REMARK       I    between atoms: C_7  and  N_8 
REMARK    3  A    between atoms: N_8  and  N_9 
REMARK       I    between atoms: N_9  and  C_10 
REMARK    4  A    between atoms: C_10  and  C_11 
REMARK    5  A    between atoms: C_15  and  C_16 
REMARK    6  A    between atoms: C_19  and  O_20 
ROOT
HETATM    1  N   UNL     1     -10.277   3.338 -34.943  1.00  0.00    -0.262 N 
HETATM    2  C   UNL     1     -10.603   2.360 -34.028  1.00  0.00     0.288 C 
HETATM    3  O   UNL     1     -11.729   2.267 -33.543  1.00  0.00    -0.264 OA
HETATM    4  H   UNL     1      -9.324   3.504 -35.261  1.00  0.00     0.190 HD
ENDROOT
BRANCH   2   5
HETATM    5  C   UNL     1      -9.528   1.470 -33.684  1.00  0.00     0.121 A 
HETATM    6  N   UNL     1      -9.048   1.362 -32.410  1.00  0.00    -0.272 N 
HETATM    7  H   UNL     1      -9.371   1.869 -31.591  1.00  0.00     0.189 HD
HETATM    8  N   UNL     1      -8.053   0.474 -32.270  1.00  0.00    -0.174 NA
HETATM    9  C   UNL     1      -7.851  -0.011 -33.506  1.00  0.00     0.089 A 
HETATM   10  C   UNL     1      -8.764   0.585 -34.420  1.00  0.00     0.071 A 
BRANCH   9  11
HETATM   11  C   UNL     1      -6.828  -1.021 -33.792  1.00  0.00    -0.005 A 
HETATM   12  C   UNL     1      -5.543  -0.911 -33.245  1.00  0.00     0.016 A 
HETATM   13  C   UNL     1      -4.575  -1.889 -33.497  1.00  0.00     0.037 A 
HETATM   14  C   UNL     1      -4.869  -2.992 -34.301  1.00  0.00     0.068 A 
HETATM   15  C   UNL     1      -6.139  -3.103 -34.863  1.00  0.00     0.037 A 
HETATM   16  C   UNL     1      -7.110  -2.125 -34.609  1.00  0.00     0.016 A 
BRANCH  14  17
HETATM   17  O   UNL     1      -3.840  -3.878 -34.460  1.00  0.00    -0.356 OA
HETATM   18  C   UNL     1      -3.466  -4.640 -33.319  1.00  0.00     0.210 C 
ENDBRANCH  14  17
ENDBRANCH   9  11
ENDBRANCH   2   5
BRANCH   1  19
HETATM   19  N   UNL     1     -11.196   4.351 -35.232  1.00  0.00    -0.267 N 
HETATM   20  C   UNL     1     -10.967   5.593 -34.677  1.00  0.00     0.240 C 
HETATM   21  O   UNL     1      -9.956   5.836 -34.017  1.00  0.00    -0.272 OA
HETATM   22  H   UNL     1     -12.052   4.085 -35.716  1.00  0.00     0.190 HD
BRANCH  20  23
HETATM   23  C   UNL     1     -12.034   6.626 -34.971  1.00  0.00     0.143 C 
BRANCH  23  24
HETATM   24  C   UNL     1     -11.792   7.495 -36.183  1.00  0.00    -0.049 A 
HETATM   25  C   UNL     1     -10.526   7.969 -36.552  1.00  0.00     0.008 A 
HETATM   26  C   UNL     1     -10.369   8.789 -37.674  1.00  0.00     0.007 A 
HETATM   27  C   UNL     1     -11.475   9.172 -38.438  1.00  0.00    -0.062 A 
HETATM   28  C   UNL     1     -11.304  10.033 -39.654  1.00  0.00     0.048 C 
HETATM   29  C   UNL     1     -12.740   8.700 -38.078  1.00  0.00     0.007 A 
HETATM   30  C   UNL     1     -12.897   7.877 -36.961  1.00  0.00     0.008 A 
ENDBRANCH  23  24
ENDBRANCH  20  23
ENDBRANCH   1  19
TORSDOF 6
ENDMDL
MODEL 8
REMARK VINA RESULT:      -7.8      3.372      4.320
REMARK  6 active torsions:
REMARK  status: ('A' for Active; 'I' for Inactive)
REMARK    1  A    between atoms: C_5  and  C_6 
REMARK    2  A    between atoms: C_6  and  C_7 
REMARK       I    between atoms: C_7  and  N_8 
REMARK    3  A    between atoms: N_8  and  N_9 
REMARK       I    between atoms: N_9  and  C_10 
REMARK    4  A    between atoms: C_10  and  C_11 
REMARK    5  A    between atoms: C_15  and  C_16 
REMARK    6  A    between atoms: C_19  and  O_20 
ROOT
HETATM    1  N   UNL     1      -2.555   4.631 -31.268  1.00  0.00    -0.262 N 
HETATM    2  C   UNL     1      -2.870   4.137 -32.516  1.00  0.00     0.288 C 
HETATM    3  O   UNL     1      -2.316   4.539 -33.537  1.00  0.00    -0.264 OA
HETATM    4  H   UNL     1      -3.085   4.398 -30.431  1.00  0.00     0.190 HD
ENDROOT
BRANCH   2   5
HETATM    5  C   UNL     1      -3.891   3.126 -32.527  1.00  0.00     0.121 A 
HETATM    6  N   UNL     1      -3.626   1.816 -32.246  1.00  0.00    -0.272 N 
HETATM    7  H   UNL     1      -2.724   1.413 -32.009  1.00  0.00     0.189 HD
HETATM    8  N   UNL     1      -4.700   1.014 -32.291  1.00  0.00    -0.174 NA
HETATM    9  C   UNL     1      -5.716   1.823 -32.635  1.00  0.00     0.089 A 
HETATM   10  C   UNL     1      -5.248   3.158 -32.785  1.00  0.00     0.071 A 
BRANCH   9  11
HETATM   11  C   UNL     1      -7.086   1.329 -32.799  1.00  0.00    -0.005 A 
HETATM   12  C   UNL     1      -7.774   0.759 -31.721  1.00  0.00     0.016 A 
HETATM   13  C   UNL     1      -9.091   0.312 -31.871  1.00  0.00     0.037 A 
HETATM   14  C   UNL     1      -9.745   0.423 -33.100  1.00  0.00     0.068 A 
HETATM   15  C   UNL     1      -9.064   0.975 -34.183  1.00  0.00     0.037 A 
HETATM   16  C   UNL     1      -7.745   1.424 -34.033  1.00  0.00     0.016 A 
BRANCH  14  17
HETATM   17  O   UNL     1     -11.031  -0.041 -33.111  1.00  0.00    -0.356 OA
HETATM   18  C   UNL     1     -12.000   0.768 -33.765  1.00  0.00     0.210 C 
ENDBRANCH  14  17
ENDBRANCH   9  11
ENDBRANCH   2   5
BRANCH   1  19
HETATM   19  N   UNL     1      -1.691   5.723 -31.153  1.00  0.00    -0.267 N 
HETATM   20  C   UNL     1      -0.452   5.497 -30.589  1.00  0.00     0.240 C 
HETATM   21  O   UNL     1      -0.079   4.368 -30.267  1.00  0.00    -0.272 OA
HETATM   22  H   UNL     1      -2.069   6.646 -31.361  1.00  0.00     0.190 HD
BRANCH  20  23
HETATM   23  C   UNL     1       0.408   6.732 -30.430  1.00  0.00     0.143 C 
BRANCH  23  24
HETATM   24  C   UNL     1       0.217   7.505 -29.145  1.00  0.00    -0.049 A 
HETATM   25  C   UNL     1       1.019   7.324 -28.011  1.00  0.00     0.008 A 
HETATM   26  C   UNL     1       0.778   8.054 -26.842  1.00  0.00     0.007 A 
HETATM   27  C   UNL     1      -0.281   8.964 -26.775  1.00  0.00    -0.062 A 
HETATM   28  C   UNL     1      -0.525   9.764 -25.530  1.00  0.00     0.048 C 
HETATM   29  C   UNL     1      -1.082   9.152 -27.905  1.00  0.00     0.007 A 
HETATM   30  C   UNL     1      -0.839   8.427 -29.073  1.00  0.00     0.008 A 
ENDBRANCH  23  24
ENDBRANCH  20  23
ENDBRANCH   1  19
TORSDOF 6
ENDMDL
MODEL 9
REMARK VINA RESULT:      -7.7     17.092     19.105
REMARK  6 active torsions:
REMARK  status: ('A' for Active; 'I' for Inactive)
REMARK    1  A    between atoms: C_5  and  C_6 
REMARK    2  A    between atoms: C_6  and  C_7 
REMARK       I    between atoms: C_7  and  N_8 
REMARK    3  A    between atoms: N_8  and  N_9 
REMARK       I    between atoms: N_9  and  C_10 
REMARK    4  A    between atoms: C_10  and  C_11 
REMARK    5  A    between atoms: C_15  and  C_16 
REMARK    6  A    between atoms: C_19  and  O_20 
ROOT
HETATM    1  N   UNL     1      -3.572 -13.116 -39.914  1.00  0.00    -0.262 N 
HETATM    2  C   UNL     1      -4.264 -12.464 -38.915  1.00  0.00     0.288 C 
HETATM    3  O   UNL     1      -3.694 -11.808 -38.047  1.00  0.00    -0.264 OA
HETATM    4  H   UNL     1      -4.017 -13.759 -40.566  1.00  0.00     0.190 HD
ENDROOT
BRANCH   2   5
HETATM    5  C   UNL     1      -5.692 -12.618 -38.968  1.00  0.00     0.121 A 
HETATM    6  N   UNL     1      -6.514 -12.142 -37.987  1.00  0.00    -0.272 N 
HETATM    7  H   UNL     1      -6.236 -11.649 -37.143  1.00  0.00     0.189 HD
HETATM    8  N   UNL     1      -7.819 -12.363 -38.207  1.00  0.00    -0.174 NA
HETATM    9  C   UNL     1      -7.861 -13.030 -39.372  1.00  0.00     0.089 A 
HETATM   10  C   UNL     1      -6.545 -13.202 -39.884  1.00  0.00     0.071 A 
BRANCH   9  11
HETATM   11  C   UNL     1      -9.122 -13.471 -39.974  1.00  0.00    -0.005 A 
HETATM   12  C   UNL     1      -9.220 -14.727 -40.588  1.00  0.00     0.016 A 
HETATM   13  C   UNL     1     -10.431 -15.158 -41.139  1.00  0.00     0.037 A 
HETATM   14  C   UNL     1     -11.566 -14.345 -41.091  1.00  0.00     0.068 A 
HETATM   15  C   UNL     1     -11.475 -13.089 -40.497  1.00  0.00     0.037 A 
HETATM   16  C   UNL     1     -10.262 -12.656 -39.943  1.00  0.00     0.016 A 
BRANCH  14  17
HETATM   17  O   UNL     1     -12.686 -14.888 -41.657  1.00  0.00    -0.356 OA
HETATM   18  C   UNL     1     -12.487 -15.947 -42.585  1.00  0.00     0.210 C 
ENDBRANCH  14  17
ENDBRANCH   9  11
ENDBRANCH   2   5
BRANCH   1  19
HETATM   19  N   UNL     1      -2.176 -13.166 -39.871  1.00  0.00    -0.267 N 
HETATM   20  C   UNL     1      -1.569 -14.328 -40.298  1.00  0.00     0.240 C 
HETATM   21  O   UNL     1      -2.213 -15.264 -40.774  1.00  0.00    -0.272 OA
HETATM   22  H   UNL     1      -1.693 -12.402 -39.401  1.00  0.00     0.190 HD
BRANCH  20  23
HETATM   23  C   UNL     1      -0.061 -14.344 -40.161  1.00  0.00     0.143 C 
BRANCH  23  24
HETATM   24  C   UNL     1       0.477 -14.940 -38.880  1.00  0.00    -0.049 A 
HETATM   25  C   UNL     1       1.819 -15.296 -38.700  1.00  0.00     0.008 A 
HETATM   26  C   UNL     1       2.253 -15.864 -37.498  1.00  0.00     0.007 A 
HETATM   27  C   UNL     1       1.350 -16.109 -36.459  1.00  0.00    -0.062 A 
HETATM   28  C   UNL     1       1.818 -16.698 -35.161  1.00  0.00     0.048 C 
HETATM   29  C   UNL     1       0.010 -15.753 -36.631  1.00  0.00     0.007 A 
HETATM   30  C   UNL     1      -0.423 -15.181 -37.830  1.00  0.00     0.008 A 
ENDBRANCH  23  24
ENDBRANCH  20  23
ENDBRANCH   1  19
TORSDOF 6
ENDMDL
MODEL 10
REMARK VINA RESULT:      -7.7      3.227      4.782
REMARK  6 active torsions:
REMARK  status: ('A' for Active; 'I' for Inactive)
REMARK    1  A    between atoms: C_5  and  C_6 
REMARK    2  A    between atoms: C_6  and  C_7 
REMARK       I    between atoms: C_7  and  N_8 
REMARK    3  A    between atoms: N_8  and  N_9 
REMARK       I    between atoms: N_9  and  C_10 
REMARK    4  A    between atoms: C_10  and  C_11 
REMARK    5  A    between atoms: C_15  and  C_16 
REMARK    6  A    between atoms: C_19  and  O_20 
ROOT
HETATM    1  N   UNL     1      -1.658   5.967 -29.816  1.00  0.00    -0.262 N 
HETATM    2  C   UNL     1      -2.381   5.895 -30.988  1.00  0.00     0.288 C 
HETATM    3  O   UNL     1      -2.204   6.684 -31.914  1.00  0.00    -0.264 OA
HETATM    4  H   UNL     1      -1.875   5.402 -28.997  1.00  0.00     0.190 HD
ENDROOT
BRANCH   2   5
HETATM    5  C   UNL     1      -3.351   4.837 -31.037  1.00  0.00     0.121 A 
HETATM    6  N   UNL     1      -4.427   4.792 -30.196  1.00  0.00    -0.272 N 
HETATM    7  H   UNL     1      -4.661   5.463 -29.469  1.00  0.00     0.189 HD
HETATM    8  N   UNL     1      -5.236   3.741 -30.391  1.00  0.00    -0.174 NA
HETATM    9  C   UNL     1      -4.662   3.049 -31.389  1.00  0.00     0.089 A 
HETATM   10  C   UNL     1      -3.480   3.710 -31.826  1.00  0.00     0.071 A 
BRANCH   9  11
HETATM   11  C   UNL     1      -5.239   1.806 -31.911  1.00  0.00    -0.005 A 
HETATM   12  C   UNL     1      -5.609   1.700 -33.257  1.00  0.00     0.016 A 
HETATM   13  C   UNL     1      -6.135   0.506 -33.760  1.00  0.00     0.037 A 
HETATM   14  C   UNL     1      -6.303  -0.604 -32.929  1.00  0.00     0.068 A 
HETATM   15  C   UNL     1      -5.952  -0.505 -31.585  1.00  0.00     0.037 A 
HETATM   16  C   UNL     1      -5.424   0.692 -31.080  1.00  0.00     0.016 A 
BRANCH  14  17
HETATM   17  O   UNL     1      -6.817  -1.711 -33.546  1.00  0.00    -0.356 OA
HETATM   18  C   UNL     1      -6.250  -2.068 -34.800  1.00  0.00     0.210 C 
ENDBRANCH  14  17
ENDBRANCH   9  11
ENDBRANCH   2   5
BRANCH   1  19
HETATM   19  N   UNL     1      -0.800   7.048 -29.596  1.00  0.00    -0.267 N 
HETATM   20  C   UNL     1       0.280   6.842 -28.763  1.00  0.00     0.240 C 
HETATM   21  O   UNL     1       0.535   5.735 -28.288  1.00  0.00    -0.272 OA
HETATM   22  H   UNL     1      -1.092   7.959 -29.947  1.00  0.00     0.190 HD
BRANCH  20  23
HETATM   23  C   UNL     1       1.131   8.069 -28.512  1.00  0.00     0.143 C 
BRANCH  23  24
HETATM   24  C   UNL     1       1.093   8.618 -27.104  1.00  0.00    -0.049 A 
HETATM   25  C   UNL     1       0.138   9.543 -26.663  1.00  0.00     0.008 A 
HETATM   26  C   UNL     1       0.168  10.031 -25.352  1.00  0.00     0.007 A 
HETATM   27  C   UNL     1       1.165   9.623 -24.462  1.00  0.00    -0.062 A 
HETATM   28  C   UNL     1       1.185  10.129 -23.050  1.00  0.00     0.048 C 
HETATM   29  C   UNL     1       2.119   8.697 -24.895  1.00  0.00     0.007 A 
HETATM   30  C   UNL     1       2.086   8.206 -26.201  1.00  0.00     0.008 A 
ENDBRANCH  23  24
ENDBRANCH  20  23
ENDBRANCH   1  19
TORSDOF 6
ENDMDL
