MODEL 1
REMARK VINA RESULT:      -8.7      0.000      0.000
REMARK  5 active torsions:
REMARK  status: ('A' for Active; 'I' for Inactive)
REMARK    1  A    between atoms: O_2  and  C_3 
REMARK    2  A    between atoms: C_10  and  C_11 
REMARK    3  A    between atoms: C_11  and  C_12 
REMARK       I    between atoms: C_12  and  N_13 
REMARK    4  A    between atoms: N_13  and  C_14 
REMARK    5  A    between atoms: C_21  and  O_22 
ROOT
HETATM    1  C   UNL     1      -5.945   1.545 -31.918  1.00  0.00     0.226 C 
HETATM    2  N   UNL     1      -5.059   0.940 -32.808  1.00  0.00    -0.326 N 
HETATM    3  O   UNL     1      -6.983   1.049 -31.495  1.00  0.00    -0.273 OA
HETATM    4  H   UNL     1      -4.121   1.318 -32.786  1.00  0.00     0.169 HD
ENDROOT
BRANCH   1   5
HETATM    5  C   UNL     1      -5.467   2.940 -31.516  1.00  0.00     0.144 C 
BRANCH   5   6
HETATM    6  C   UNL     1      -4.971   3.788 -32.645  1.00  0.00    -0.021 A 
HETATM    7  C   UNL     1      -3.654   4.329 -32.828  1.00  0.00     0.001 A 
HETATM    8  C   UNL     1      -2.462   4.305 -32.073  1.00  0.00     0.051 A 
HETATM    9  C   UNL     1      -3.648   5.015 -34.043  1.00  0.00     0.043 A 
HETATM   10  C   UNL     1      -1.320   4.973 -32.536  1.00  0.00     0.069 A 
HETATM   11  C   UNL     1      -1.350   5.638 -33.760  1.00  0.00     0.039 A 
HETATM   12  C   UNL     1      -2.515   5.671 -34.536  1.00  0.00     0.033 A 
HETATM   13  N   UNL     1      -4.907   4.899 -34.580  1.00  0.00    -0.365 N 
HETATM   14  H   UNL     1      -5.193   5.306 -35.461  1.00  0.00     0.165 HD
HETATM   15  C   UNL     1      -5.708   4.156 -33.757  1.00  0.00     0.097 A 
BRANCH  10  16
HETATM   16  O   UNL     1      -0.236   4.886 -31.702  1.00  0.00    -0.356 OA
HETATM   17  C   UNL     1       0.265   6.111 -31.182  1.00  0.00     0.210 C 
ENDBRANCH  10  16
ENDBRANCH   5   6
ENDBRANCH   1   5
BRANCH   2  18
HETATM   18  C   UNL     1      -5.167  -0.353 -33.386  1.00  0.00     0.047 A 
HETATM   19  C   UNL     1      -4.412  -1.511 -33.029  1.00  0.00     0.022 A 
HETATM   20  C   UNL     1      -4.583  -2.711 -33.773  1.00  0.00     0.102 A 
HETATM   21  C   UNL     1      -3.531  -1.598 -31.926  1.00  0.00     0.017 A 
HETATM   22  N   UNL     1      -3.874  -3.833 -33.504  1.00  0.00    -0.257 NA
HETATM   23  C   UNL     1      -5.534  -2.739 -34.807  1.00  0.00     0.097 A 
HETATM   24  C   UNL     1      -3.004  -3.834 -32.479  1.00  0.00     0.117 A 
HETATM   25  C   UNL     1      -2.809  -2.755 -31.654  1.00  0.00     0.020 A 
HETATM   26  C   UNL     1      -6.336  -1.632 -35.084  1.00  0.00     0.041 A 
HETATM   27  C   UNL     1      -6.152  -0.452 -34.377  1.00  0.00     0.033 A 
BRANCH  23  28
HETATM   28  O   UNL     1      -5.691  -3.937 -35.472  1.00  0.00    -0.354 OA
HETATM   29  C   UNL     1      -6.993  -4.508 -35.434  1.00  0.00     0.210 C 
ENDBRANCH  23  28
ENDBRANCH   2  18
TORSDOF 5
ENDMDL
MODEL 2
REMARK VINA RESULT:      -8.4      3.928      6.449
REMARK  5 active torsions:
REMARK  status: ('A' for Active; 'I' for Inactive)
REMARK    1  A    between atoms: O_2  and  C_3 
REMARK    2  A    between atoms: C_10  and  C_11 
REMARK    3  A    between atoms: C_11  and  C_12 
REMARK       I    between atoms: C_12  and  N_13 
REMARK    4  A    between atoms: N_13  and  C_14 
REMARK    5  A    between atoms: C_21  and  O_22 
ROOT
HETATM    1  C   UNL     1      -7.065   2.529 -33.356  1.00  0.00     0.226 C 
HETATM    2  N   UNL     1      -7.405   1.221 -33.015  1.00  0.00    -0.326 N 
HETATM    3  O   UNL     1      -6.064   2.868 -33.976  1.00  0.00    -0.273 OA
HETATM    4  H   UNL     1      -8.388   1.082 -32.821  1.00  0.00     0.169 HD
ENDROOT
BRANCH   1   5
HETATM    5  C   UNL     1      -8.109   3.526 -32.855  1.00  0.00     0.144 C 
BRANCH   5   6
HETATM    6  C   UNL     1      -9.236   3.791 -33.805  1.00  0.00    -0.021 A 
HETATM    7  C   UNL     1     -10.397   2.981 -34.041  1.00  0.00     0.001 A 
HETATM    8  C   UNL     1     -10.851   1.738 -33.550  1.00  0.00     0.051 A 
HETATM    9  C   UNL     1     -11.189   3.646 -34.976  1.00  0.00     0.043 A 
HETATM   10  C   UNL     1     -12.057   1.194 -34.014  1.00  0.00     0.069 A 
HETATM   11  C   UNL     1     -12.826   1.894 -34.941  1.00  0.00     0.039 A 
HETATM   12  C   UNL     1     -12.406   3.134 -35.439  1.00  0.00     0.033 A 
HETATM   13  N   UNL     1     -10.541   4.814 -35.299  1.00  0.00    -0.365 N 
HETATM   14  H   UNL     1     -10.886   5.495 -35.962  1.00  0.00     0.165 HD
HETATM   15  C   UNL     1      -9.373   4.918 -34.596  1.00  0.00     0.097 A 
BRANCH  10  16
HETATM   16  O   UNL     1     -12.375  -0.023 -33.471  1.00  0.00    -0.356 OA
HETATM   17  C   UNL     1     -13.739  -0.420 -33.558  1.00  0.00     0.210 C 
ENDBRANCH  10  16
ENDBRANCH   5   6
ENDBRANCH   1   5
BRANCH   2  18
HETATM   18  C   UNL     1      -6.684   0.036 -33.319  1.00  0.00     0.047 A 
HETATM   19  C   UNL     1      -5.431  -0.365 -32.763  1.00  0.00     0.022 A 
HETATM   20  C   UNL     1      -4.801  -1.545 -33.246  1.00  0.00     0.102 A 
HETATM   21  C   UNL     1      -4.771   0.285 -31.695  1.00  0.00     0.017 A 
HETATM   22  N   UNL     1      -3.598  -1.961 -32.782  1.00  0.00    -0.257 NA
HETATM   23  C   UNL     1      -5.457  -2.315 -34.221  1.00  0.00     0.097 A 
HETATM   24  C   UNL     1      -2.989  -1.263 -31.807  1.00  0.00     0.117 A 
HETATM   25  C   UNL     1      -3.538  -0.150 -31.221  1.00  0.00     0.020 A 
HETATM   26  C   UNL     1      -6.724  -1.967 -34.687  1.00  0.00     0.041 A 
HETATM   27  C   UNL     1      -7.330  -0.802 -34.237  1.00  0.00     0.033 A 
BRANCH  23  28
HETATM   28  O   UNL     1      -4.823  -3.471 -34.628  1.00  0.00    -0.354 OA
HETATM   29  C   UNL     1      -5.663  -4.588 -34.883  1.00  0.00     0.210 C 
ENDBRANCH  23  28
ENDBRANCH   2  18
TORSDOF 5
ENDMDL
MODEL 3
REMARK VINA RESULT:      -8.3      1.232      2.602
REMARK  5 active torsions:
REMARK  status: ('A' for Active; 'I' for Inactive)
REMARK    1  A    between atoms: O_2  and  C_3 
REMARK    2  A    between atoms: C_10  and  C_11 
REMARK    3  A    between atoms: C_11  and  C_12 
REMARK       I    between atoms: C_12  and  N_13 
REMARK    4  A    between atoms: N_13  and  C_14 
REMARK    5  A    between atoms: C_21  and  O_22 
ROOT
HETATM    1  C   UNL     1      -5.787   2.590 -31.701  1.00  0.00     0.226 C 
HETATM    2  N   UNL     1      -4.896   2.000 -32.595  1.00  0.00    -0.326 N 
HETATM    3  O   UNL     1      -6.465   1.995 -30.871  1.00  0.00    -0.273 OA
HETATM    4  H   UNL     1      -4.189   2.627 -32.956  1.00  0.00     0.169 HD
ENDROOT
BRANCH   1   5
HETATM    5  C   UNL     1      -5.830   4.108 -31.875  1.00  0.00     0.144 C 
BRANCH   5   6
HETATM    6  C   UNL     1      -4.877   4.654 -32.892  1.00  0.00    -0.021 A 
HETATM    7  C   UNL     1      -3.463   4.857 -32.754  1.00  0.00     0.001 A 
HETATM    8  C   UNL     1      -2.537   4.677 -31.704  1.00  0.00     0.051 A 
HETATM    9  C   UNL     1      -2.988   5.343 -33.972  1.00  0.00     0.043 A 
HETATM   10  C   UNL     1      -1.185   5.001 -31.892  1.00  0.00     0.069 A 
HETATM   11  C   UNL     1      -0.747   5.474 -33.127  1.00  0.00     0.039 A 
HETATM   12  C   UNL     1      -1.642   5.654 -34.190  1.00  0.00     0.033 A 
HETATM   13  N   UNL     1      -4.065   5.434 -34.819  1.00  0.00    -0.365 N 
HETATM   14  H   UNL     1      -4.016   5.764 -35.774  1.00  0.00     0.165 HD
HETATM   15  C   UNL     1      -5.203   5.014 -34.188  1.00  0.00     0.097 A 
BRANCH  10  16
HETATM   16  O   UNL     1      -0.396   4.795 -30.791  1.00  0.00    -0.356 OA
HETATM   17  C   UNL     1       0.362   5.909 -30.336  1.00  0.00     0.210 C 
ENDBRANCH  10  16
ENDBRANCH   5   6
ENDBRANCH   1   5
BRANCH   2  18
HETATM   18  C   UNL     1      -4.587   0.618 -32.718  1.00  0.00     0.047 A 
HETATM   19  C   UNL     1      -5.315  -0.354 -33.469  1.00  0.00     0.022 A 
HETATM   20  C   UNL     1      -4.917  -1.718 -33.413  1.00  0.00     0.102 A 
HETATM   21  C   UNL     1      -6.388  -0.067 -34.345  1.00  0.00     0.017 A 
HETATM   22  N   UNL     1      -5.585  -2.691 -34.077  1.00  0.00    -0.257 NA
HETATM   23  C   UNL     1      -3.781  -2.064 -32.662  1.00  0.00     0.097 A 
HETATM   24  C   UNL     1      -6.638  -2.363 -34.846  1.00  0.00     0.117 A 
HETATM   25  C   UNL     1      -7.066  -1.072 -35.027  1.00  0.00     0.020 A 
HETATM   26  C   UNL     1      -3.020  -1.093 -32.010  1.00  0.00     0.041 A 
HETATM   27  C   UNL     1      -3.421   0.235 -32.042  1.00  0.00     0.033 A 
BRANCH  23  28
HETATM   28  O   UNL     1      -3.413  -3.393 -32.671  1.00  0.00    -0.354 OA
HETATM   29  C   UNL     1      -2.667  -3.843 -31.547  1.00  0.00     0.210 C 
ENDBRANCH  23  28
ENDBRANCH   2  18
TORSDOF 5
ENDMDL
MODEL 4
REMARK VINA RESULT:      -8.2      4.963      7.950
REMARK  5 active torsions:
REMARK  status: ('A' for Active; 'I' for Inactive)
REMARK    1  A    between atoms: O_2  and  C_3 
REMARK    2  A    between atoms: C_10  and  C_11 
REMARK    3  A    between atoms: C_11  and  C_12 
REMARK       I    between atoms: C_12  and  N_13 
REMARK    4  A    between atoms: N_13  and  C_14 
REMARK    5  A    between atoms: C_21  and  O_22 
ROOT
HETATM    1  C   UNL     1      -8.815   0.496 -34.051  1.00  0.00     0.226 C 
HETATM    2  N   UNL     1      -9.564   1.592 -34.474  1.00  0.00    -0.326 N 
HETATM    3  O   UNL     1      -8.940  -0.083 -32.978  1.00  0.00    -0.273 OA
HETATM    4  H   UNL     1      -9.579   1.726 -35.477  1.00  0.00     0.169 HD
ENDROOT
BRANCH   1   5
HETATM    5  C   UNL     1      -7.788   0.082 -35.104  1.00  0.00     0.144 C 
BRANCH   5   6
HETATM    6  C   UNL     1      -6.709  -0.829 -34.608  1.00  0.00    -0.021 A 
HETATM    7  C   UNL     1      -5.615  -0.506 -33.737  1.00  0.00     0.001 A 
HETATM    8  C   UNL     1      -5.164   0.677 -33.114  1.00  0.00     0.051 A 
HETATM    9  C   UNL     1      -4.894  -1.680 -33.517  1.00  0.00     0.043 A 
HETATM   10  C   UNL     1      -4.012   0.659 -32.315  1.00  0.00     0.069 A 
HETATM   11  C   UNL     1      -3.324  -0.535 -32.110  1.00  0.00     0.039 A 
HETATM   12  C   UNL     1      -3.754  -1.727 -32.708  1.00  0.00     0.033 A 
HETATM   13  N   UNL     1      -5.519  -2.678 -34.224  1.00  0.00    -0.365 N 
HETATM   14  H   UNL     1      -5.207  -3.640 -34.252  1.00  0.00     0.165 HD
HETATM   15  C   UNL     1      -6.615  -2.184 -34.875  1.00  0.00     0.097 A 
BRANCH  10  16
HETATM   16  O   UNL     1      -3.674   1.875 -31.782  1.00  0.00    -0.356 OA
HETATM   17  C   UNL     1      -4.694   2.560 -31.065  1.00  0.00     0.210 C 
ENDBRANCH  10  16
ENDBRANCH   5   6
ENDBRANCH   1   5
BRANCH   2  18
HETATM   18  C   UNL     1     -10.612   2.244 -33.770  1.00  0.00     0.047 A 
HETATM   19  C   UNL     1     -11.968   1.809 -33.667  1.00  0.00     0.022 A 
HETATM   20  C   UNL     1     -12.914   2.630 -32.994  1.00  0.00     0.102 A 
HETATM   21  C   UNL     1     -12.459   0.565 -34.128  1.00  0.00     0.017 A 
HETATM   22  N   UNL     1     -14.221   2.288 -32.891  1.00  0.00    -0.257 NA
HETATM   23  C   UNL     1     -12.475   3.825 -32.400  1.00  0.00     0.097 A 
HETATM   24  C   UNL     1     -14.640   1.119 -33.405  1.00  0.00     0.117 A 
HETATM   25  C   UNL     1     -13.801   0.219 -34.014  1.00  0.00     0.020 A 
HETATM   26  C   UNL     1     -11.130   4.193 -32.422  1.00  0.00     0.041 A 
HETATM   27  C   UNL     1     -10.209   3.407 -33.101  1.00  0.00     0.033 A 
BRANCH  23  28
HETATM   28  O   UNL     1     -13.422   4.566 -31.725  1.00  0.00    -0.354 OA
HETATM   29  C   UNL     1     -13.332   4.554 -30.306  1.00  0.00     0.210 C 
ENDBRANCH  23  28
ENDBRANCH   2  18
TORSDOF 5
ENDMDL
MODEL 5
REMARK VINA RESULT:      -8.2      3.854      8.393
REMARK  5 active torsions:
REMARK  status: ('A' for Active; 'I' for Inactive)
REMARK    1  A    between atoms: O_2  and  C_3 
REMARK    2  A    between atoms: C_10  and  C_11 
REMARK    3  A    between atoms: C_11  and  C_12 
REMARK       I    between atoms: C_12  and  N_13 
REMARK    4  A    between atoms: N_13  and  C_14 
REMARK    5  A    between atoms: C_21  and  O_22 
ROOT
HETATM    1  C   UNL     1      -6.698   0.585 -32.651  1.00  0.00     0.226 C 
HETATM    2  N   UNL     1      -7.249   1.822 -32.980  1.00  0.00    -0.326 N 
HETATM    3  O   UNL     1      -7.148  -0.200 -31.824  1.00  0.00    -0.273 OA
HETATM    4  H   UNL     1      -6.971   2.176 -33.886  1.00  0.00     0.169 HD
ENDROOT
BRANCH   1   5
HETATM    5  C   UNL     1      -5.431   0.305 -33.458  1.00  0.00     0.144 C 
BRANCH   5   6
HETATM    6  C   UNL     1      -4.513  -0.713 -32.858  1.00  0.00    -0.021 A 
HETATM    7  C   UNL     1      -4.397  -2.103 -33.199  1.00  0.00     0.001 A 
HETATM    8  C   UNL     1      -5.063  -2.958 -34.104  1.00  0.00     0.051 A 
HETATM    9  C   UNL     1      -3.384  -2.645 -32.409  1.00  0.00     0.043 A 
HETATM   10  C   UNL     1      -4.715  -4.314 -34.180  1.00  0.00     0.069 A 
HETATM   11  C   UNL     1      -3.689  -4.816 -33.382  1.00  0.00     0.039 A 
HETATM   12  C   UNL     1      -3.004  -3.990 -32.481  1.00  0.00     0.033 A 
HETATM   13  N   UNL     1      -2.900  -1.631 -31.618  1.00  0.00    -0.365 N 
HETATM   14  H   UNL     1      -2.158  -1.739 -30.940  1.00  0.00     0.165 HD
HETATM   15  C   UNL     1      -3.561  -0.464 -31.885  1.00  0.00     0.097 A 
BRANCH  10  16
HETATM   16  O   UNL     1      -5.446  -5.036 -35.086  1.00  0.00    -0.356 OA
HETATM   17  C   UNL     1      -6.710  -4.496 -35.456  1.00  0.00     0.210 C 
ENDBRANCH  10  16
ENDBRANCH   5   6
ENDBRANCH   1   5
BRANCH   2  18
HETATM   18  C   UNL     1      -8.426   2.411 -32.445  1.00  0.00     0.047 A 
HETATM   19  C   UNL     1      -9.744   2.321 -32.986  1.00  0.00     0.022 A 
HETATM   20  C   UNL     1     -10.801   3.048 -32.372  1.00  0.00     0.102 A 
HETATM   21  C   UNL     1     -10.123   1.494 -34.070  1.00  0.00     0.017 A 
HETATM   22  N   UNL     1     -12.066   3.028 -32.856  1.00  0.00    -0.257 NA
HETATM   23  C   UNL     1     -10.528   3.794 -31.214  1.00  0.00     0.097 A 
HETATM   24  C   UNL     1     -12.350   2.270 -33.930  1.00  0.00     0.117 A 
HETATM   25  C   UNL     1     -11.425   1.476 -34.559  1.00  0.00     0.020 A 
HETATM   26  C   UNL     1      -9.257   3.799 -30.638  1.00  0.00     0.041 A 
HETATM   27  C   UNL     1      -8.219   3.111 -31.250  1.00  0.00     0.033 A 
BRANCH  23  28
HETATM   28  O   UNL     1     -11.593   4.450 -30.633  1.00  0.00    -0.354 OA
HETATM   29  C   UNL     1     -11.614   5.864 -30.781  1.00  0.00     0.210 C 
ENDBRANCH  23  28
ENDBRANCH   2  18
TORSDOF 5
ENDMDL
MODEL 6
REMARK VINA RESULT:      -8.1      1.714      2.252
REMARK  5 active torsions:
REMARK  status: ('A' for Active; 'I' for Inactive)
REMARK    1  A    between atoms: O_2  and  C_3 
REMARK    2  A    between atoms: C_10  and  C_11 
REMARK    3  A    between atoms: C_11  and  C_12 
REMARK       I    between atoms: C_12  and  N_13 
REMARK    4  A    between atoms: N_13  and  C_14 
REMARK    5  A    between atoms: C_21  and  O_22 
ROOT
HETATM    1  C   UNL     1      -7.250   2.262 -32.556  1.00  0.00     0.226 C 
HETATM    2  N   UNL     1      -6.471   1.710 -33.570  1.00  0.00    -0.326 N 
HETATM    3  O   UNL     1      -7.790   1.638 -31.649  1.00  0.00    -0.273 OA
HETATM    4  H   UNL     1      -5.840   2.364 -34.015  1.00  0.00     0.169 HD
ENDROOT
BRANCH   1   5
HETATM    5  C   UNL     1      -7.365   3.779 -32.703  1.00  0.00     0.144 C 
BRANCH   5   6
HETATM    6  C   UNL     1      -6.472   4.570 -31.799  1.00  0.00    -0.021 A 
HETATM    7  C   UNL     1      -5.066   4.818 -31.947  1.00  0.00     0.001 A 
HETATM    8  C   UNL     1      -4.085   4.418 -32.880  1.00  0.00     0.051 A 
HETATM    9  C   UNL     1      -4.671   5.638 -30.890  1.00  0.00     0.043 A 
HETATM   10  C   UNL     1      -2.753   4.828 -32.723  1.00  0.00     0.069 A 
HETATM   11  C   UNL     1      -2.400   5.657 -31.660  1.00  0.00     0.039 A 
HETATM   12  C   UNL     1      -3.353   6.077 -30.724  1.00  0.00     0.033 A 
HETATM   13  N   UNL     1      -5.788   5.882 -30.127  1.00  0.00    -0.365 N 
HETATM   14  H   UNL     1      -5.795   6.447 -29.289  1.00  0.00     0.165 HD
HETATM   15  C   UNL     1      -6.877   5.256 -30.667  1.00  0.00     0.097 A 
BRANCH  10  16
HETATM   16  O   UNL     1      -1.900   4.359 -33.686  1.00  0.00    -0.356 OA
HETATM   17  C   UNL     1      -1.683   5.206 -34.809  1.00  0.00     0.210 C 
ENDBRANCH  10  16
ENDBRANCH   5   6
ENDBRANCH   1   5
BRANCH   2  18
HETATM   18  C   UNL     1      -6.136   0.342 -33.752  1.00  0.00     0.047 A 
HETATM   19  C   UNL     1      -5.079  -0.370 -33.108  1.00  0.00     0.022 A 
HETATM   20  C   UNL     1      -4.825  -1.720 -33.473  1.00  0.00     0.102 A 
HETATM   21  C   UNL     1      -4.279   0.139 -32.058  1.00  0.00     0.017 A 
HETATM   22  N   UNL     1      -3.817  -2.438 -32.922  1.00  0.00    -0.257 NA
HETATM   23  C   UNL     1      -5.659  -2.336 -34.421  1.00  0.00     0.097 A 
HETATM   24  C   UNL     1      -3.050  -1.877 -31.971  1.00  0.00     0.117 A 
HETATM   25  C   UNL     1      -3.249  -0.606 -31.494  1.00  0.00     0.020 A 
HETATM   26  C   UNL     1      -6.749  -1.663 -34.973  1.00  0.00     0.041 A 
HETATM   27  C   UNL     1      -6.983  -0.337 -34.638  1.00  0.00     0.033 A 
BRANCH  23  28
HETATM   28  O   UNL     1      -5.396  -3.659 -34.712  1.00  0.00    -0.354 OA
HETATM   29  C   UNL     1      -6.516  -4.453 -35.079  1.00  0.00     0.210 C 
ENDBRANCH  23  28
ENDBRANCH   2  18
TORSDOF 5
ENDMDL
MODEL 7
REMARK VINA RESULT:      -8.0      5.820      8.462
REMARK  5 active torsions:
REMARK  status: ('A' for Active; 'I' for Inactive)
REMARK    1  A    between atoms: O_2  and  C_3 
REMARK    2  A    between atoms: C_10  and  C_11 
REMARK    3  A    between atoms: C_11  and  C_12 
REMARK       I    between atoms: C_12  and  N_13 
REMARK    4  A    between atoms: N_13  and  C_14 
REMARK    5  A    between atoms: C_21  and  O_22 
ROOT
HETATM    1  C   UNL     1     -10.049   1.078 -33.875  1.00  0.00     0.226 C 
HETATM    2  N   UNL     1      -8.872   1.447 -34.523  1.00  0.00    -0.326 N 
HETATM    3  O   UNL     1     -10.120   0.538 -32.777  1.00  0.00    -0.273 OA
HETATM    4  H   UNL     1      -8.991   2.163 -35.228  1.00  0.00     0.169 HD
ENDROOT
BRANCH   1   5
HETATM    5  C   UNL     1     -11.280   1.427 -34.710  1.00  0.00     0.144 C 
BRANCH   5   6
HETATM    6  C   UNL     1     -12.592   1.206 -34.023  1.00  0.00    -0.021 A 
HETATM    7  C   UNL     1     -13.420   2.181 -33.371  1.00  0.00     0.001 A 
HETATM    8  C   UNL     1     -13.306   3.565 -33.120  1.00  0.00     0.051 A 
HETATM    9  C   UNL     1     -14.562   1.523 -32.915  1.00  0.00     0.043 A 
HETATM   10  C   UNL     1     -14.313   4.239 -32.415  1.00  0.00     0.069 A 
HETATM   11  C   UNL     1     -15.444   3.549 -31.985  1.00  0.00     0.039 A 
HETATM   12  C   UNL     1     -15.589   2.177 -32.228  1.00  0.00     0.033 A 
HETATM   13  N   UNL     1     -14.438   0.202 -33.272  1.00  0.00    -0.365 N 
HETATM   14  H   UNL     1     -15.123  -0.513 -33.064  1.00  0.00     0.165 HD
HETATM   15  C   UNL     1     -13.266  -0.000 -33.946  1.00  0.00     0.097 A 
BRANCH  10  16
HETATM   16  O   UNL     1     -14.073   5.575 -32.225  1.00  0.00    -0.356 OA
HETATM   17  C   UNL     1     -14.496   6.126 -30.983  1.00  0.00     0.210 C 
ENDBRANCH  10  16
ENDBRANCH   5   6
ENDBRANCH   1   5
BRANCH   2  18
HETATM   18  C   UNL     1      -7.542   1.291 -34.051  1.00  0.00     0.047 A 
HETATM   19  C   UNL     1      -6.756   0.100 -34.098  1.00  0.00     0.022 A 
HETATM   20  C   UNL     1      -5.467   0.091 -33.497  1.00  0.00     0.102 A 
HETATM   21  C   UNL     1      -7.124  -1.090 -34.769  1.00  0.00     0.017 A 
HETATM   22  N   UNL     1      -4.687  -1.016 -33.481  1.00  0.00    -0.257 NA
HETATM   23  C   UNL     1      -4.979   1.275 -32.920  1.00  0.00     0.097 A 
HETATM   24  C   UNL     1      -5.120  -2.138 -34.082  1.00  0.00     0.117 A 
HETATM   25  C   UNL     1      -6.315  -2.222 -34.751  1.00  0.00     0.020 A 
HETATM   26  C   UNL     1      -5.715   2.460 -32.964  1.00  0.00     0.041 A 
HETATM   27  C   UNL     1      -6.983   2.464 -33.526  1.00  0.00     0.033 A 
BRANCH  23  28
HETATM   28  O   UNL     1      -3.709   1.227 -32.385  1.00  0.00    -0.354 OA
HETATM   29  C   UNL     1      -3.398   2.223 -31.420  1.00  0.00     0.210 C 
ENDBRANCH  23  28
ENDBRANCH   2  18
TORSDOF 5
ENDMDL
MODEL 8
REMARK VINA RESULT:      -7.7      2.135      2.761
REMARK  5 active torsions:
REMARK  status: ('A' for Active; 'I' for Inactive)
REMARK    1  A    between atoms: O_2  and  C_3 
REMARK    2  A    between atoms: C_10  and  C_11 
REMARK    3  A    between atoms: C_11  and  C_12 
REMARK       I    between atoms: C_12  and  N_13 
REMARK    4  A    between atoms: N_13  and  C_14 
REMARK    5  A    between atoms: C_21  and  O_22 
ROOT
HETATM    1  C   UNL     1      -7.044   2.381 -32.971  1.00  0.00     0.226 C 
HETATM    2  N   UNL     1      -6.371   1.681 -33.969  1.00  0.00    -0.326 N 
HETATM    3  O   UNL     1      -7.483   1.900 -31.932  1.00  0.00    -0.273 OA
HETATM    4  H   UNL     1      -5.793   2.257 -34.567  1.00  0.00     0.169 HD
ENDROOT
BRANCH   1   5
HETATM    5  C   UNL     1      -7.182   3.862 -33.323  1.00  0.00     0.144 C 
BRANCH   5   6
HETATM    6  C   UNL     1      -5.913   4.652 -33.237  1.00  0.00    -0.021 A 
HETATM    7  C   UNL     1      -5.298   5.206 -32.064  1.00  0.00     0.001 A 
HETATM    8  C   UNL     1      -5.640   5.247 -30.695  1.00  0.00     0.051 A 
HETATM    9  C   UNL     1      -4.111   5.820 -32.463  1.00  0.00     0.043 A 
HETATM   10  C   UNL     1      -4.808   5.908 -29.780  1.00  0.00     0.069 A 
HETATM   11  C   UNL     1      -3.625   6.501 -30.216  1.00  0.00     0.039 A 
HETATM   12  C   UNL     1      -3.255   6.467 -31.567  1.00  0.00     0.033 A 
HETATM   13  N   UNL     1      -4.004   5.650 -33.823  1.00  0.00    -0.365 N 
HETATM   14  H   UNL     1      -3.239   6.000 -34.384  1.00  0.00     0.165 HD
HETATM   15  C   UNL     1      -5.073   4.942 -34.298  1.00  0.00     0.097 A 
BRANCH  10  16
HETATM   16  O   UNL     1      -5.261   5.889 -28.488  1.00  0.00    -0.356 OA
HETATM   17  C   UNL     1      -6.561   6.423 -28.262  1.00  0.00     0.210 C 
ENDBRANCH  10  16
ENDBRANCH   5   6
ENDBRANCH   1   5
BRANCH   2  18
HETATM   18  C   UNL     1      -6.050   0.297 -33.984  1.00  0.00     0.047 A 
HETATM   19  C   UNL     1      -5.005  -0.343 -33.252  1.00  0.00     0.022 A 
HETATM   20  C   UNL     1      -4.763  -1.730 -33.451  1.00  0.00     0.102 A 
HETATM   21  C   UNL     1      -4.207   0.279 -32.263  1.00  0.00     0.017 A 
HETATM   22  N   UNL     1      -3.766  -2.387 -32.810  1.00  0.00    -0.257 NA
HETATM   23  C   UNL     1      -5.596  -2.446 -34.326  1.00  0.00     0.097 A 
HETATM   24  C   UNL     1      -3.000  -1.724 -31.926  1.00  0.00     0.117 A 
HETATM   25  C   UNL     1      -3.189  -0.403 -31.606  1.00  0.00     0.020 A 
HETATM   26  C   UNL     1      -6.675  -1.833 -34.963  1.00  0.00     0.041 A 
HETATM   27  C   UNL     1      -6.898  -0.474 -34.790  1.00  0.00     0.033 A 
BRANCH  23  28
HETATM   28  O   UNL     1      -5.346  -3.796 -34.455  1.00  0.00    -0.354 OA
HETATM   29  C   UNL     1      -6.330  -4.552 -35.149  1.00  0.00     0.210 C 
ENDBRANCH  23  28
ENDBRANCH   2  18
TORSDOF 5
ENDMDL
MODEL 9
REMARK VINA RESULT:      -7.7      2.447      8.365
REMARK  5 active torsions:
REMARK  status: ('A' for Active; 'I' for Inactive)
REMARK    1  A    between atoms: O_2  and  C_3 
REMARK    2  A    between atoms: C_10  and  C_11 
REMARK    3  A    between atoms: C_11  and  C_12 
REMARK       I    between atoms: C_12  and  N_13 
REMARK    4  A    between atoms: N_13  and  C_14 
REMARK    5  A    between atoms: C_21  and  O_22 
ROOT
HETATM    1  C   UNL     1      -5.260   2.707 -32.508  1.00  0.00     0.226 C 
HETATM    2  N   UNL     1      -4.410   3.417 -31.663  1.00  0.00    -0.326 N 
HETATM    3  O   UNL     1      -5.853   3.168 -33.476  1.00  0.00    -0.273 OA
HETATM    4  H   UNL     1      -3.756   2.841 -31.147  1.00  0.00     0.169 HD
ENDROOT
BRANCH   1   5
HETATM    5  C   UNL     1      -5.378   1.244 -32.081  1.00  0.00     0.144 C 
BRANCH   5   6
HETATM    6  C   UNL     1      -6.020   0.342 -33.088  1.00  0.00    -0.021 A 
HETATM    7  C   UNL     1      -5.617  -0.982 -33.469  1.00  0.00     0.001 A 
HETATM    8  C   UNL     1      -4.551  -1.833 -33.106  1.00  0.00     0.051 A 
HETATM    9  C   UNL     1      -6.538  -1.447 -34.408  1.00  0.00     0.043 A 
HETATM   10  C   UNL     1      -4.426  -3.098 -33.698  1.00  0.00     0.069 A 
HETATM   11  C   UNL     1      -5.373  -3.531 -34.624  1.00  0.00     0.039 A 
HETATM   12  C   UNL     1      -6.446  -2.712 -34.996  1.00  0.00     0.033 A 
HETATM   13  N   UNL     1      -7.465  -0.449 -34.595  1.00  0.00    -0.365 N 
HETATM   14  H   UNL     1      -8.250  -0.510 -35.229  1.00  0.00     0.165 HD
HETATM   15  C   UNL     1      -7.172   0.625 -33.802  1.00  0.00     0.097 A 
BRANCH  10  16
HETATM   16  O   UNL     1      -3.341  -3.817 -33.271  1.00  0.00    -0.356 OA
HETATM   17  C   UNL     1      -2.983  -3.674 -31.901  1.00  0.00     0.210 C 
ENDBRANCH  10  16
ENDBRANCH   5   6
ENDBRANCH   1   5
BRANCH   2  18
HETATM   18  C   UNL     1      -4.052   4.789 -31.754  1.00  0.00     0.047 A 
HETATM   19  C   UNL     1      -3.078   5.358 -32.628  1.00  0.00     0.022 A 
HETATM   20  C   UNL     1      -2.778   6.745 -32.528  1.00  0.00     0.102 A 
HETATM   21  C   UNL     1      -2.411   4.664 -33.665  1.00  0.00     0.017 A 
HETATM   22  N   UNL     1      -1.842   7.338 -33.307  1.00  0.00    -0.257 NA
HETATM   23  C   UNL     1      -3.491   7.529 -31.606  1.00  0.00     0.097 A 
HETATM   24  C   UNL     1      -1.196   6.609 -34.234  1.00  0.00     0.117 A 
HETATM   25  C   UNL     1      -1.455   5.281 -34.463  1.00  0.00     0.020 A 
HETATM   26  C   UNL     1      -4.508   6.982 -30.824  1.00  0.00     0.041 A 
HETATM   27  C   UNL     1      -4.785   5.625 -30.901  1.00  0.00     0.033 A 
BRANCH  23  28
HETATM   28  O   UNL     1      -3.192   8.875 -31.574  1.00  0.00    -0.354 OA
HETATM   29  C   UNL     1      -4.016   9.680 -30.741  1.00  0.00     0.210 C 
ENDBRANCH  23  28
ENDBRANCH   2  18
TORSDOF 5
ENDMDL
MODEL 10
REMARK VINA RESULT:      -7.7      2.492      3.815
REMARK  5 active torsions:
REMARK  status: ('A' for Active; 'I' for Inactive)
REMARK    1  A    between atoms: O_2  and  C_3 
REMARK    2  A    between atoms: C_10  and  C_11 
REMARK    3  A    between atoms: C_11  and  C_12 
REMARK       I    between atoms: C_12  and  N_13 
REMARK    4  A    between atoms: N_13  and  C_14 
REMARK    5  A    between atoms: C_21  and  O_22 
ROOT
HETATM    1  C   UNL     1      -6.024   3.480 -31.093  1.00  0.00     0.226 C 
HETATM    2  N   UNL     1      -5.267   3.031 -32.173  1.00  0.00    -0.326 N 
HETATM    3  O   UNL     1      -6.536   2.770 -30.234  1.00  0.00    -0.273 OA
HETATM    4  H   UNL     1      -4.653   3.728 -32.571  1.00  0.00     0.169 HD
ENDROOT
BRANCH   1   5
HETATM    5  C   UNL     1      -6.153   5.003 -31.096  1.00  0.00     0.144 C 
BRANCH   5   6
HETATM    6  C   UNL     1      -4.997   5.735 -30.491  1.00  0.00    -0.021 A 
HETATM    7  C   UNL     1      -3.879   6.330 -31.168  1.00  0.00     0.001 A 
HETATM    8  C   UNL     1      -3.467   6.406 -32.516  1.00  0.00     0.051 A 
HETATM    9  C   UNL     1      -3.078   6.937 -30.202  1.00  0.00     0.043 A 
HETATM   10  C   UNL     1      -2.275   7.062 -32.853  1.00  0.00     0.069 A 
HETATM   11  C   UNL     1      -1.507   7.666 -31.860  1.00  0.00     0.039 A 
HETATM   12  C   UNL     1      -1.895   7.615 -30.515  1.00  0.00     0.033 A 
HETATM   13  N   UNL     1      -3.679   6.724 -28.985  1.00  0.00    -0.365 N 
HETATM   14  H   UNL     1      -3.312   7.051 -28.101  1.00  0.00     0.165 HD
HETATM   15  C   UNL     1      -4.836   6.013 -29.145  1.00  0.00     0.097 A 
BRANCH  10  16
HETATM   16  O   UNL     1      -1.982   7.051 -34.192  1.00  0.00    -0.356 OA
HETATM   17  C   UNL     1      -1.287   5.910 -34.681  1.00  0.00     0.210 C 
ENDBRANCH  10  16
ENDBRANCH   5   6
ENDBRANCH   1   5
BRANCH   2  18
HETATM   18  C   UNL     1      -4.929   1.688 -32.489  1.00  0.00     0.047 A 
HETATM   19  C   UNL     1      -5.632   0.818 -33.377  1.00  0.00     0.022 A 
HETATM   20  C   UNL     1      -5.206  -0.531 -33.513  1.00  0.00     0.102 A 
HETATM   21  C   UNL     1      -6.705   1.206 -34.213  1.00  0.00     0.017 A 
HETATM   22  N   UNL     1      -5.851  -1.413 -34.314  1.00  0.00    -0.257 NA
HETATM   23  C   UNL     1      -4.069  -0.959 -32.808  1.00  0.00     0.097 A 
HETATM   24  C   UNL     1      -6.905  -0.999 -35.038  1.00  0.00     0.117 A 
HETATM   25  C   UNL     1      -7.359   0.296 -35.037  1.00  0.00     0.020 A 
HETATM   26  C   UNL     1      -3.332  -0.077 -32.018  1.00  0.00     0.041 A 
HETATM   27  C   UNL     1      -3.760   1.234 -31.863  1.00  0.00     0.033 A 
BRANCH  23  28
HETATM   28  O   UNL     1      -3.673  -2.266 -33.003  1.00  0.00    -0.354 OA
HETATM   29  C   UNL     1      -3.071  -2.911 -31.889  1.00  0.00     0.210 C 
ENDBRANCH  23  28
ENDBRANCH   2  18
TORSDOF 5
ENDMDL
