MODEL 1
REMARK VINA RESULT:      -8.3      0.000      0.000
REMARK  8 active torsions:
REMARK  status: ('A' for Active; 'I' for Inactive)
REMARK    1  A    between atoms: C_2  and  C_3 
REMARK    2  A    between atoms: C_3  and  O_4 
REMARK    3  A    between atoms: O_4  and  C_5 
REMARK    4  A    between atoms: C_6  and  C_7 
REMARK    5  A    between atoms: C_11  and  C_12 
REMARK       I    between atoms: C_12  and  N_13 
REMARK    6  A    between atoms: N_13  and  N_14 
REMARK    7  A    between atoms: C_15  and  C_16 
REMARK    8  A    between atoms: C_17  and  O_18 
ROOT
HETATM    1  C   UNL     1      -2.929   4.416 -31.334  1.00  0.00     0.092 A 
HETATM    2  N   UNL     1      -4.143   4.849 -30.968  1.00  0.00    -0.174 NA
HETATM    3  N   UNL     1      -4.955   3.802 -31.169  1.00  0.00    -0.272 N 
HETATM    4  H   UNL     1      -5.943   3.895 -30.945  1.00  0.00     0.189 HD
HETATM    5  C   UNL     1      -4.335   2.707 -31.704  1.00  0.00     0.121 A 
HETATM    6  C   UNL     1      -3.008   3.071 -31.801  1.00  0.00     0.071 A 
ENDROOT
BRANCH   5   7
HETATM    7  C   UNL     1      -5.076   1.517 -32.038  1.00  0.00     0.289 C 
HETATM    8  N   UNL     1      -4.321   0.352 -32.056  1.00  0.00    -0.242 N 
HETATM    9  H   UNL     1      -3.324   0.387 -31.888  1.00  0.00     0.192 HD
HETATM   10  O   UNL     1      -6.271   1.562 -32.314  1.00  0.00    -0.264 OA
BRANCH   8  11
HETATM   11  N   UNL     1      -4.892  -0.820 -32.455  1.00  0.00    -0.183 NA
HETATM   12  C   UNL     1      -4.398  -1.353 -33.528  1.00  0.00     0.153 C 
BRANCH  12  13
HETATM   13  C   UNL     1      -4.947  -2.608 -34.077  1.00  0.00     0.016 A 
HETATM   14  C   UNL     1      -4.338  -3.849 -33.855  1.00  0.00     0.077 A 
HETATM   15  C   UNL     1      -4.900  -5.007 -34.386  1.00  0.00     0.037 A 
HETATM   16  C   UNL     1      -6.075  -4.934 -35.134  1.00  0.00     0.003 A 
HETATM   17  C   UNL     1      -6.687  -3.700 -35.357  1.00  0.00     0.001 A 
HETATM   18  C   UNL     1      -6.125  -2.535 -34.830  1.00  0.00     0.016 A 
BRANCH  14  19
HETATM   19  O   UNL     1      -3.190  -4.007 -33.129  1.00  0.00    -0.360 OA
HETATM   20  H   UNL     1      -3.352  -4.682 -32.433  1.00  0.00     0.217 HD
ENDBRANCH  14  19
ENDBRANCH  12  13
ENDBRANCH   8  11
ENDBRANCH   5   7
BRANCH   1  21
HETATM   21  C   UNL     1      -1.737   5.266 -31.289  1.00  0.00     0.028 A 
HETATM   22  C   UNL     1      -1.575   6.435 -32.054  1.00  0.00     0.081 A 
HETATM   23  C   UNL     1      -0.365   7.141 -32.012  1.00  0.00     0.038 A 
HETATM   24  C   UNL     1       0.673   6.731 -31.177  1.00  0.00     0.003 A 
HETATM   25  C   UNL     1       0.515   5.597 -30.389  1.00  0.00     0.001 A 
HETATM   26  C   UNL     1      -0.676   4.868 -30.450  1.00  0.00     0.017 A 
BRANCH  22  27
HETATM   27  O   UNL     1      -2.500   6.960 -32.920  1.00  0.00    -0.350 OA
BRANCH  27  28
HETATM   28  C   UNL     1      -2.109   6.880 -34.294  1.00  0.00     0.175 C 
BRANCH  28  29
HETATM   29  C   UNL     1      -2.319   5.448 -34.787  1.00  0.00     0.022 C 
HETATM   30  C   UNL     1      -3.779   5.153 -35.100  1.00  0.00     0.007 C 
ENDBRANCH  28  29
ENDBRANCH  27  28
ENDBRANCH  22  27
ENDBRANCH   1  21
TORSDOF 8
ENDMDL
MODEL 2
REMARK VINA RESULT:      -8.2      6.043      9.613
REMARK  8 active torsions:
REMARK  status: ('A' for Active; 'I' for Inactive)
REMARK    1  A    between atoms: C_2  and  C_3 
REMARK    2  A    between atoms: C_3  and  O_4 
REMARK    3  A    between atoms: O_4  and  C_5 
REMARK    4  A    between atoms: C_6  and  C_7 
REMARK    5  A    between atoms: C_11  and  C_12 
REMARK       I    between atoms: C_12  and  N_13 
REMARK    6  A    between atoms: N_13  and  N_14 
REMARK    7  A    between atoms: C_15  and  C_16 
REMARK    8  A    between atoms: C_17  and  O_18 
ROOT
HETATM    1  C   UNL     1      -7.174  -1.051 -34.365  1.00  0.00     0.092 A 
HETATM    2  N   UNL     1      -7.238  -0.193 -35.392  1.00  0.00    -0.174 NA
HETATM    3  N   UNL     1      -8.166   0.704 -35.032  1.00  0.00    -0.272 N 
HETATM    4  H   UNL     1      -8.379   1.473 -35.663  1.00  0.00     0.189 HD
HETATM    5  C   UNL     1      -8.755   0.446 -33.825  1.00  0.00     0.121 A 
HETATM    6  C   UNL     1      -8.112  -0.681 -33.357  1.00  0.00     0.071 A 
ENDROOT
BRANCH   5   7
HETATM    7  C   UNL     1      -9.815   1.281 -33.316  1.00  0.00     0.289 C 
HETATM    8  N   UNL     1     -10.934   1.356 -34.133  1.00  0.00    -0.242 N 
HETATM    9  H   UNL     1     -10.947   0.884 -35.028  1.00  0.00     0.192 HD
HETATM   10  O   UNL     1      -9.696   1.893 -32.259  1.00  0.00    -0.264 OA
BRANCH   8  11
HETATM   11  N   UNL     1     -11.959   2.193 -33.803  1.00  0.00    -0.183 NA
HETATM   12  C   UNL     1     -12.934   1.658 -33.139  1.00  0.00     0.153 C 
BRANCH  12  13
HETATM   13  C   UNL     1     -14.114   2.453 -32.747  1.00  0.00     0.016 A 
HETATM   14  C   UNL     1     -14.031   3.822 -32.466  1.00  0.00     0.077 A 
HETATM   15  C   UNL     1     -15.175   4.533 -32.109  1.00  0.00     0.037 A 
HETATM   16  C   UNL     1     -16.407   3.882 -32.037  1.00  0.00     0.003 A 
HETATM   17  C   UNL     1     -16.495   2.518 -32.317  1.00  0.00     0.001 A 
HETATM   18  C   UNL     1     -15.350   1.800 -32.671  1.00  0.00     0.016 A 
BRANCH  14  19
HETATM   19  O   UNL     1     -12.865   4.534 -32.519  1.00  0.00    -0.360 OA
HETATM   20  H   UNL     1     -13.085   5.493 -32.535  1.00  0.00     0.217 HD
ENDBRANCH  14  19
ENDBRANCH  12  13
ENDBRANCH   8  11
ENDBRANCH   5   7
BRANCH   1  21
HETATM   21  C   UNL     1      -6.284  -2.214 -34.358  1.00  0.00     0.028 A 
HETATM   22  C   UNL     1      -4.921  -2.160 -34.015  1.00  0.00     0.081 A 
HETATM   23  C   UNL     1      -4.123  -3.308 -34.118  1.00  0.00     0.038 A 
HETATM   24  C   UNL     1      -4.673  -4.527 -34.510  1.00  0.00     0.003 A 
HETATM   25  C   UNL     1      -6.026  -4.604 -34.819  1.00  0.00     0.001 A 
HETATM   26  C   UNL     1      -6.822  -3.457 -34.750  1.00  0.00     0.017 A 
BRANCH  22  27
HETATM   27  O   UNL     1      -4.239  -1.038 -33.617  1.00  0.00    -0.350 OA
BRANCH  27  28
HETATM   28  C   UNL     1      -3.983  -0.991 -32.211  1.00  0.00     0.175 C 
BRANCH  28  29
HETATM   29  C   UNL     1      -4.878   0.075 -31.578  1.00  0.00     0.022 C 
HETATM   30  C   UNL     1      -5.034   1.300 -32.468  1.00  0.00     0.007 C 
ENDBRANCH  28  29
ENDBRANCH  27  28
ENDBRANCH  22  27
ENDBRANCH   1  21
TORSDOF 8
ENDMDL
MODEL 3
REMARK VINA RESULT:      -7.9      5.423      9.777
REMARK  8 active torsions:
REMARK  status: ('A' for Active; 'I' for Inactive)
REMARK    1  A    between atoms: C_2  and  C_3 
REMARK    2  A    between atoms: C_3  and  O_4 
REMARK    3  A    between atoms: O_4  and  C_5 
REMARK    4  A    between atoms: C_6  and  C_7 
REMARK    5  A    between atoms: C_11  and  C_12 
REMARK       I    between atoms: C_12  and  N_13 
REMARK    6  A    between atoms: N_13  and  N_14 
REMARK    7  A    between atoms: C_15  and  C_16 
REMARK    8  A    between atoms: C_17  and  O_18 
ROOT
HETATM    1  C   UNL     1      -6.971  -1.129 -34.554  1.00  0.00     0.092 A 
HETATM    2  N   UNL     1      -6.759  -0.225 -35.520  1.00  0.00    -0.174 NA
HETATM    3  N   UNL     1      -7.676   0.728 -35.304  1.00  0.00    -0.272 N 
HETATM    4  H   UNL     1      -7.698   1.538 -35.919  1.00  0.00     0.189 HD
HETATM    5  C   UNL     1      -8.522   0.465 -34.263  1.00  0.00     0.121 A 
HETATM    6  C   UNL     1      -8.071  -0.730 -33.740  1.00  0.00     0.071 A 
ENDROOT
BRANCH   5   7
HETATM    7  C   UNL     1      -9.604   1.359 -33.934  1.00  0.00     0.289 C 
HETATM    8  N   UNL     1      -9.617   2.543 -34.658  1.00  0.00    -0.242 N 
HETATM    9  H   UNL     1      -8.880   2.743 -35.322  1.00  0.00     0.192 HD
HETATM   10  O   UNL     1     -10.415   1.087 -33.054  1.00  0.00    -0.264 OA
BRANCH   8  11
HETATM   11  N   UNL     1     -10.534   3.508 -34.364  1.00  0.00    -0.183 NA
HETATM   12  C   UNL     1     -10.793   4.349 -35.315  1.00  0.00     0.153 C 
BRANCH  12  13
HETATM   13  C   UNL     1     -11.748   5.456 -35.112  1.00  0.00     0.016 A 
HETATM   14  C   UNL     1     -13.046   5.243 -34.633  1.00  0.00     0.077 A 
HETATM   15  C   UNL     1     -13.908   6.321 -34.449  1.00  0.00     0.037 A 
HETATM   16  C   UNL     1     -13.478   7.617 -34.735  1.00  0.00     0.003 A 
HETATM   17  C   UNL     1     -12.184   7.835 -35.211  1.00  0.00     0.001 A 
HETATM   18  C   UNL     1     -11.317   6.756 -35.402  1.00  0.00     0.016 A 
BRANCH  14  19
HETATM   19  O   UNL     1     -13.543   4.007 -34.324  1.00  0.00    -0.360 OA
HETATM   20  H   UNL     1     -12.863   3.518 -33.808  1.00  0.00     0.217 HD
ENDBRANCH  14  19
ENDBRANCH  12  13
ENDBRANCH   8  11
ENDBRANCH   5   7
BRANCH   1  21
HETATM   21  C   UNL     1      -6.186  -2.360 -34.434  1.00  0.00     0.028 A 
HETATM   22  C   UNL     1      -4.857  -2.403 -33.975  1.00  0.00     0.081 A 
HETATM   23  C   UNL     1      -4.152  -3.615 -33.973  1.00  0.00     0.038 A 
HETATM   24  C   UNL     1      -4.768  -4.799 -34.374  1.00  0.00     0.003 A 
HETATM   25  C   UNL     1      -6.091  -4.778 -34.799  1.00  0.00     0.001 A 
HETATM   26  C   UNL     1      -6.791  -3.569 -34.834  1.00  0.00     0.017 A 
BRANCH  22  27
HETATM   27  O   UNL     1      -4.120  -1.326 -33.553  1.00  0.00    -0.350 OA
BRANCH  27  28
HETATM   28  C   UNL     1      -3.937  -1.276 -32.136  1.00  0.00     0.175 C 
BRANCH  28  29
HETATM   29  C   UNL     1      -4.920  -0.266 -31.544  1.00  0.00     0.022 C 
HETATM   30  C   UNL     1      -4.968   1.030 -32.342  1.00  0.00     0.007 C 
ENDBRANCH  28  29
ENDBRANCH  27  28
ENDBRANCH  22  27
ENDBRANCH   1  21
TORSDOF 8
ENDMDL
MODEL 4
REMARK VINA RESULT:      -7.9      6.421      9.340
REMARK  8 active torsions:
REMARK  status: ('A' for Active; 'I' for Inactive)
REMARK    1  A    between atoms: C_2  and  C_3 
REMARK    2  A    between atoms: C_3  and  O_4 
REMARK    3  A    between atoms: O_4  and  C_5 
REMARK    4  A    between atoms: C_6  and  C_7 
REMARK    5  A    between atoms: C_11  and  C_12 
REMARK       I    between atoms: C_12  and  N_13 
REMARK    6  A    between atoms: N_13  and  N_14 
REMARK    7  A    between atoms: C_15  and  C_16 
REMARK    8  A    between atoms: C_17  and  O_18 
ROOT
HETATM    1  C   UNL     1      -6.941   0.428 -33.650  1.00  0.00     0.092 A 
HETATM    2  N   UNL     1      -7.233   0.878 -34.877  1.00  0.00    -0.174 NA
HETATM    3  N   UNL     1      -8.563   1.040 -34.875  1.00  0.00    -0.272 N 
HETATM    4  H   UNL     1      -9.018   1.392 -35.714  1.00  0.00     0.189 HD
HETATM    5  C   UNL     1      -9.171   0.667 -33.708  1.00  0.00     0.121 A 
HETATM    6  C   UNL     1      -8.133   0.285 -32.882  1.00  0.00     0.071 A 
ENDROOT
BRANCH   5   7
HETATM    7  C   UNL     1     -10.603   0.722 -33.559  1.00  0.00     0.289 C 
HETATM    8  N   UNL     1     -11.179   1.922 -33.953  1.00  0.00    -0.242 N 
HETATM    9  H   UNL     1     -10.599   2.687 -34.270  1.00  0.00     0.192 HD
HETATM   10  O   UNL     1     -11.235  -0.218 -33.085  1.00  0.00    -0.264 OA
BRANCH   8  11
HETATM   11  N   UNL     1     -12.515   2.127 -33.765  1.00  0.00    -0.183 NA
HETATM   12  C   UNL     1     -12.831   2.976 -32.840  1.00  0.00     0.153 C 
BRANCH  12  13
HETATM   13  C   UNL     1     -14.243   3.265 -32.522  1.00  0.00     0.016 A 
HETATM   14  C   UNL     1     -15.209   2.255 -32.432  1.00  0.00     0.077 A 
HETATM   15  C   UNL     1     -16.528   2.576 -32.119  1.00  0.00     0.037 A 
HETATM   16  C   UNL     1     -16.888   3.904 -31.890  1.00  0.00     0.003 A 
HETATM   17  C   UNL     1     -15.929   4.914 -31.978  1.00  0.00     0.001 A 
HETATM   18  C   UNL     1     -14.606   4.598 -32.295  1.00  0.00     0.016 A 
BRANCH  14  19
HETATM   19  O   UNL     1     -14.937   0.930 -32.635  1.00  0.00    -0.360 OA
HETATM   20  H   UNL     1     -14.657   0.534 -31.780  1.00  0.00     0.217 HD
ENDBRANCH  14  19
ENDBRANCH  12  13
ENDBRANCH   8  11
ENDBRANCH   5   7
BRANCH   1  21
HETATM   21  C   UNL     1      -5.576   0.098 -33.230  1.00  0.00     0.028 A 
HETATM   22  C   UNL     1      -4.952  -1.136 -33.487  1.00  0.00     0.081 A 
HETATM   23  C   UNL     1      -3.673  -1.397 -32.974  1.00  0.00     0.038 A 
HETATM   24  C   UNL     1      -2.982  -0.427 -32.250  1.00  0.00     0.003 A 
HETATM   25  C   UNL     1      -3.574   0.809 -32.017  1.00  0.00     0.001 A 
HETATM   26  C   UNL     1      -4.861   1.066 -32.498  1.00  0.00     0.017 A 
BRANCH  22  27
HETATM   27  O   UNL     1      -5.503  -2.185 -34.177  1.00  0.00    -0.350 OA
BRANCH  27  28
HETATM   28  C   UNL     1      -4.564  -3.212 -34.506  1.00  0.00     0.175 C 
BRANCH  28  29
HETATM   29  C   UNL     1      -5.306  -4.542 -34.631  1.00  0.00     0.022 C 
HETATM   30  C   UNL     1      -6.789  -4.352 -34.919  1.00  0.00     0.007 C 
ENDBRANCH  28  29
ENDBRANCH  27  28
ENDBRANCH  22  27
ENDBRANCH   1  21
TORSDOF 8
ENDMDL
MODEL 5
REMARK VINA RESULT:      -7.8      2.952      4.830
REMARK  8 active torsions:
REMARK  status: ('A' for Active; 'I' for Inactive)
REMARK    1  A    between atoms: C_2  and  C_3 
REMARK    2  A    between atoms: C_3  and  O_4 
REMARK    3  A    between atoms: O_4  and  C_5 
REMARK    4  A    between atoms: C_6  and  C_7 
REMARK    5  A    between atoms: C_11  and  C_12 
REMARK       I    between atoms: C_12  and  N_13 
REMARK    6  A    between atoms: N_13  and  N_14 
REMARK    7  A    between atoms: C_15  and  C_16 
REMARK    8  A    between atoms: C_17  and  O_18 
ROOT
HETATM    1  C   UNL     1      -2.451   8.048 -31.851  1.00  0.00     0.092 A 
HETATM    2  N   UNL     1      -1.715   8.123 -32.968  1.00  0.00    -0.174 NA
HETATM    3  N   UNL     1      -2.271   7.236 -33.805  1.00  0.00    -0.272 N 
HETATM    4  H   UNL     1      -1.880   7.126 -34.737  1.00  0.00     0.189 HD
HETATM    5  C   UNL     1      -3.318   6.539 -33.268  1.00  0.00     0.121 A 
HETATM    6  C   UNL     1      -3.472   7.064 -32.001  1.00  0.00     0.071 A 
ENDROOT
BRANCH   5   7
HETATM    7  C   UNL     1      -3.991   5.506 -34.014  1.00  0.00     0.289 C 
HETATM    8  N   UNL     1      -4.717   4.613 -33.239  1.00  0.00    -0.242 N 
HETATM    9  H   UNL     1      -4.711   4.690 -32.230  1.00  0.00     0.192 HD
HETATM   10  O   UNL     1      -3.884   5.424 -35.234  1.00  0.00    -0.264 OA
BRANCH   8  11
HETATM   11  N   UNL     1      -5.314   3.536 -33.825  1.00  0.00    -0.183 NA
HETATM   12  C   UNL     1      -5.501   2.508 -33.059  1.00  0.00     0.153 C 
BRANCH  12  13
HETATM   13  C   UNL     1      -6.113   1.271 -33.582  1.00  0.00     0.016 A 
HETATM   14  C   UNL     1      -7.400   1.251 -34.133  1.00  0.00     0.077 A 
HETATM   15  C   UNL     1      -7.931   0.060 -34.624  1.00  0.00     0.037 A 
HETATM   16  C   UNL     1      -7.180  -1.114 -34.572  1.00  0.00     0.003 A 
HETATM   17  C   UNL     1      -5.896  -1.099 -34.025  1.00  0.00     0.001 A 
HETATM   18  C   UNL     1      -5.360   0.092 -33.528  1.00  0.00     0.016 A 
BRANCH  14  19
HETATM   19  O   UNL     1      -8.198   2.357 -34.227  1.00  0.00    -0.360 OA
HETATM   20  H   UNL     1      -8.439   2.646 -33.318  1.00  0.00     0.217 HD
ENDBRANCH  14  19
ENDBRANCH  12  13
ENDBRANCH   8  11
ENDBRANCH   5   7
BRANCH   1  21
HETATM   21  C   UNL     1      -2.167   8.850 -30.659  1.00  0.00     0.028 A 
HETATM   22  C   UNL     1      -1.533   8.351 -29.508  1.00  0.00     0.081 A 
HETATM   23  C   UNL     1      -1.377   9.168 -28.379  1.00  0.00     0.038 A 
HETATM   24  C   UNL     1      -1.798  10.496 -28.396  1.00  0.00     0.003 A 
HETATM   25  C   UNL     1      -2.396  11.014 -29.539  1.00  0.00     0.001 A 
HETATM   26  C   UNL     1      -2.584  10.197 -30.657  1.00  0.00     0.017 A 
BRANCH  22  27
HETATM   27  O   UNL     1      -1.069   7.071 -29.340  1.00  0.00    -0.350 OA
BRANCH  27  28
HETATM   28  C   UNL     1       0.353   6.958 -29.440  1.00  0.00     0.175 C 
BRANCH  28  29
HETATM   29  C   UNL     1       0.722   6.583 -30.876  1.00  0.00     0.022 C 
HETATM   30  C   UNL     1       0.044   5.298 -31.329  1.00  0.00     0.007 C 
ENDBRANCH  28  29
ENDBRANCH  27  28
ENDBRANCH  22  27
ENDBRANCH   1  21
TORSDOF 8
ENDMDL
MODEL 6
REMARK VINA RESULT:      -7.7      6.993     10.076
REMARK  8 active torsions:
REMARK  status: ('A' for Active; 'I' for Inactive)
REMARK    1  A    between atoms: C_2  and  C_3 
REMARK    2  A    between atoms: C_3  and  O_4 
REMARK    3  A    between atoms: O_4  and  C_5 
REMARK    4  A    between atoms: C_6  and  C_7 
REMARK    5  A    between atoms: C_11  and  C_12 
REMARK       I    between atoms: C_12  and  N_13 
REMARK    6  A    between atoms: N_13  and  N_14 
REMARK    7  A    between atoms: C_15  and  C_16 
REMARK    8  A    between atoms: C_17  and  O_18 
ROOT
HETATM    1  C   UNL     1      -7.815   0.281 -33.449  1.00  0.00     0.092 A 
HETATM    2  N   UNL     1      -8.000   0.999 -34.565  1.00  0.00    -0.174 NA
HETATM    3  N   UNL     1      -9.319   1.232 -34.607  1.00  0.00    -0.272 N 
HETATM    4  H   UNL     1      -9.698   1.780 -35.376  1.00  0.00     0.189 HD
HETATM    5  C   UNL     1     -10.023   0.652 -33.588  1.00  0.00     0.121 A 
HETATM    6  C   UNL     1      -9.064   0.044 -32.804  1.00  0.00     0.071 A 
ENDROOT
BRANCH   5   7
HETATM    7  C   UNL     1     -11.459   0.755 -33.517  1.00  0.00     0.289 C 
HETATM    8  N   UNL     1     -11.950   2.050 -33.593  1.00  0.00    -0.242 N 
HETATM    9  H   UNL     1     -11.314   2.835 -33.647  1.00  0.00     0.192 HD
HETATM   10  O   UNL     1     -12.165  -0.237 -33.367  1.00  0.00    -0.264 OA
BRANCH   8  11
HETATM   11  N   UNL     1     -13.285   2.280 -33.437  1.00  0.00    -0.183 NA
HETATM   12  C   UNL     1     -13.611   3.095 -32.484  1.00  0.00     0.153 C 
BRANCH  12  13
HETATM   13  C   UNL     1     -15.026   3.403 -32.198  1.00  0.00     0.016 A 
HETATM   14  C   UNL     1     -15.464   4.703 -31.918  1.00  0.00     0.077 A 
HETATM   15  C   UNL     1     -16.811   4.947 -31.664  1.00  0.00     0.037 A 
HETATM   16  C   UNL     1     -17.729   3.896 -31.693  1.00  0.00     0.003 A 
HETATM   17  C   UNL     1     -17.297   2.598 -31.973  1.00  0.00     0.001 A 
HETATM   18  C   UNL     1     -15.946   2.349 -32.224  1.00  0.00     0.016 A 
BRANCH  14  19
HETATM   19  O   UNL     1     -14.631   5.787 -31.877  1.00  0.00    -0.360 OA
HETATM   20  H   UNL     1     -13.842   5.596 -32.431  1.00  0.00     0.217 HD
ENDBRANCH  14  19
ENDBRANCH  12  13
ENDBRANCH   8  11
ENDBRANCH   5   7
BRANCH   1  21
HETATM   21  C   UNL     1      -6.499  -0.207 -33.030  1.00  0.00     0.028 A 
HETATM   22  C   UNL     1      -5.792  -1.229 -33.689  1.00  0.00     0.081 A 
HETATM   23  C   UNL     1      -4.576  -1.693 -33.168  1.00  0.00     0.038 A 
HETATM   24  C   UNL     1      -4.023  -1.118 -32.025  1.00  0.00     0.003 A 
HETATM   25  C   UNL     1      -4.693  -0.084 -31.382  1.00  0.00     0.001 A 
HETATM   26  C   UNL     1      -5.922   0.362 -31.876  1.00  0.00     0.017 A 
BRANCH  22  27
HETATM   27  O   UNL     1      -6.207  -1.891 -34.816  1.00  0.00    -0.350 OA
BRANCH  27  28
HETATM   28  C   UNL     1      -6.922  -3.099 -34.542  1.00  0.00     0.175 C 
BRANCH  28  29
HETATM   29  C   UNL     1      -6.304  -4.237 -35.354  1.00  0.00     0.022 C 
HETATM   30  C   UNL     1      -5.248  -5.000 -34.566  1.00  0.00     0.007 C 
ENDBRANCH  28  29
ENDBRANCH  27  28
ENDBRANCH  22  27
ENDBRANCH   1  21
TORSDOF 8
ENDMDL
MODEL 7
REMARK VINA RESULT:      -7.7      1.374      1.756
REMARK  8 active torsions:
REMARK  status: ('A' for Active; 'I' for Inactive)
REMARK    1  A    between atoms: C_2  and  C_3 
REMARK    2  A    between atoms: C_3  and  O_4 
REMARK    3  A    between atoms: O_4  and  C_5 
REMARK    4  A    between atoms: C_6  and  C_7 
REMARK    5  A    between atoms: C_11  and  C_12 
REMARK       I    between atoms: C_12  and  N_13 
REMARK    6  A    between atoms: N_13  and  N_14 
REMARK    7  A    between atoms: C_15  and  C_16 
REMARK    8  A    between atoms: C_17  and  O_18 
ROOT
HETATM    1  C   UNL     1      -2.995   5.248 -31.131  1.00  0.00     0.092 A 
HETATM    2  N   UNL     1      -4.207   5.812 -31.221  1.00  0.00    -0.174 NA
HETATM    3  N   UNL     1      -5.015   4.826 -31.635  1.00  0.00    -0.272 N 
HETATM    4  H   UNL     1      -6.004   5.021 -31.764  1.00  0.00     0.189 HD
HETATM    5  C   UNL     1      -4.375   3.641 -31.871  1.00  0.00     0.121 A 
HETATM    6  C   UNL     1      -3.060   3.880 -31.529  1.00  0.00     0.071 A 
ENDROOT
BRANCH   5   7
HETATM    7  C   UNL     1      -5.086   2.494 -32.377  1.00  0.00     0.289 C 
HETATM    8  N   UNL     1      -4.451   1.279 -32.164  1.00  0.00    -0.242 N 
HETATM    9  H   UNL     1      -3.539   1.249 -31.726  1.00  0.00     0.192 HD
HETATM   10  O   UNL     1      -6.151   2.614 -32.975  1.00  0.00    -0.264 OA
BRANCH   8  11
HETATM   11  N   UNL     1      -4.981   0.136 -32.685  1.00  0.00    -0.183 NA
HETATM   12  C   UNL     1      -4.126  -0.770 -33.045  1.00  0.00     0.153 C 
BRANCH  12  13
HETATM   13  C   UNL     1      -4.574  -2.041 -33.648  1.00  0.00     0.016 A 
HETATM   14  C   UNL     1      -5.684  -2.113 -34.497  1.00  0.00     0.077 A 
HETATM   15  C   UNL     1      -6.062  -3.335 -35.050  1.00  0.00     0.037 A 
HETATM   16  C   UNL     1      -5.330  -4.487 -34.764  1.00  0.00     0.003 A 
HETATM   17  C   UNL     1      -4.221  -4.420 -33.919  1.00  0.00     0.001 A 
HETATM   18  C   UNL     1      -3.841  -3.198 -33.358  1.00  0.00     0.016 A 
BRANCH  14  19
HETATM   19  O   UNL     1      -6.450  -1.031 -34.832  1.00  0.00    -0.360 OA
HETATM   20  H   UNL     1      -7.379  -1.331 -34.951  1.00  0.00     0.217 HD
ENDBRANCH  14  19
ENDBRANCH  12  13
ENDBRANCH   8  11
ENDBRANCH   5   7
BRANCH   1  21
HETATM   21  C   UNL     1      -1.802   5.994 -30.726  1.00  0.00     0.028 A 
HETATM   22  C   UNL     1      -0.778   6.380 -31.609  1.00  0.00     0.081 A 
HETATM   23  C   UNL     1       0.371   7.018 -31.120  1.00  0.00     0.038 A 
HETATM   24  C   UNL     1       0.495   7.325 -29.766  1.00  0.00     0.003 A 
HETATM   25  C   UNL     1      -0.524   6.979 -28.886  1.00  0.00     0.001 A 
HETATM   26  C   UNL     1      -1.658   6.314 -29.361  1.00  0.00     0.017 A 
BRANCH  22  27
HETATM   27  O   UNL     1      -0.756   6.147 -32.961  1.00  0.00    -0.350 OA
BRANCH  27  28
HETATM   28  C   UNL     1      -1.563   7.056 -33.714  1.00  0.00     0.175 C 
BRANCH  28  29
HETATM   29  C   UNL     1      -2.553   6.256 -34.561  1.00  0.00     0.022 C 
HETATM   30  C   UNL     1      -2.019   4.878 -34.926  1.00  0.00     0.007 C 
ENDBRANCH  28  29
ENDBRANCH  27  28
ENDBRANCH  22  27
ENDBRANCH   1  21
TORSDOF 8
ENDMDL
MODEL 8
REMARK VINA RESULT:      -7.6      1.987      9.310
REMARK  8 active torsions:
REMARK  status: ('A' for Active; 'I' for Inactive)
REMARK    1  A    between atoms: C_2  and  C_3 
REMARK    2  A    between atoms: C_3  and  O_4 
REMARK    3  A    between atoms: O_4  and  C_5 
REMARK    4  A    between atoms: C_6  and  C_7 
REMARK    5  A    between atoms: C_11  and  C_12 
REMARK       I    between atoms: C_12  and  N_13 
REMARK    6  A    between atoms: N_13  and  N_14 
REMARK    7  A    between atoms: C_15  and  C_16 
REMARK    8  A    between atoms: C_17  and  O_18 
ROOT
HETATM    1  C   UNL     1      -3.684  -1.366 -32.347  1.00  0.00     0.092 A 
HETATM    2  N   UNL     1      -2.595  -1.210 -31.583  1.00  0.00    -0.174 NA
HETATM    3  N   UNL     1      -2.677   0.046 -31.123  1.00  0.00    -0.272 N 
HETATM    4  H   UNL     1      -1.951   0.391 -30.500  1.00  0.00     0.189 HD
HETATM    5  C   UNL     1      -3.753   0.746 -31.594  1.00  0.00     0.121 A 
HETATM    6  C   UNL     1      -4.441  -0.158 -32.377  1.00  0.00     0.071 A 
ENDROOT
BRANCH   5   7
HETATM    7  C   UNL     1      -3.958   2.129 -31.244  1.00  0.00     0.289 C 
HETATM    8  N   UNL     1      -3.194   3.029 -31.973  1.00  0.00    -0.242 N 
HETATM    9  H   UNL     1      -2.525   2.696 -32.655  1.00  0.00     0.192 HD
HETATM   10  O   UNL     1      -4.727   2.455 -30.344  1.00  0.00    -0.264 OA
BRANCH   8  11
HETATM   11  N   UNL     1      -3.229   4.357 -31.663  1.00  0.00    -0.183 NA
HETATM   12  C   UNL     1      -2.082   4.914 -31.434  1.00  0.00     0.153 C 
BRANCH  12  13
HETATM   13  C   UNL     1      -1.989   6.339 -31.061  1.00  0.00     0.016 A 
HETATM   14  C   UNL     1      -2.210   7.367 -31.985  1.00  0.00     0.077 A 
HETATM   15  C   UNL     1      -2.121   8.698 -31.584  1.00  0.00     0.037 A 
HETATM   16  C   UNL     1      -1.818   9.009 -30.258  1.00  0.00     0.003 A 
HETATM   17  C   UNL     1      -1.599   7.988 -29.333  1.00  0.00     0.001 A 
HETATM   18  C   UNL     1      -1.682   6.651 -29.732  1.00  0.00     0.016 A 
BRANCH  14  19
HETATM   19  O   UNL     1      -2.517   7.147 -33.300  1.00  0.00    -0.360 OA
HETATM   20  H   UNL     1      -2.794   6.209 -33.402  1.00  0.00     0.217 HD
ENDBRANCH  14  19
ENDBRANCH  12  13
ENDBRANCH   8  11
ENDBRANCH   5   7
BRANCH   1  21
HETATM   21  C   UNL     1      -3.976  -2.608 -33.067  1.00  0.00     0.028 A 
HETATM   22  C   UNL     1      -4.905  -2.708 -34.119  1.00  0.00     0.081 A 
HETATM   23  C   UNL     1      -5.184  -3.955 -34.694  1.00  0.00     0.038 A 
HETATM   24  C   UNL     1      -4.514  -5.102 -34.273  1.00  0.00     0.003 A 
HETATM   25  C   UNL     1      -3.569  -5.014 -33.258  1.00  0.00     0.001 A 
HETATM   26  C   UNL     1      -3.308  -3.779 -32.656  1.00  0.00     0.017 A 
BRANCH  22  27
HETATM   27  O   UNL     1      -5.642  -1.674 -34.637  1.00  0.00    -0.350 OA
BRANCH  27  28
HETATM   28  C   UNL     1      -7.053  -1.833 -34.466  1.00  0.00     0.175 C 
BRANCH  28  29
HETATM   29  C   UNL     1      -7.696  -0.452 -34.337  1.00  0.00     0.022 C 
HETATM   30  C   UNL     1      -7.127   0.546 -35.335  1.00  0.00     0.007 C 
ENDBRANCH  28  29
ENDBRANCH  27  28
ENDBRANCH  22  27
ENDBRANCH   1  21
TORSDOF 8
ENDMDL
MODEL 9
REMARK VINA RESULT:      -7.6      5.250      9.631
REMARK  8 active torsions:
REMARK  status: ('A' for Active; 'I' for Inactive)
REMARK    1  A    between atoms: C_2  and  C_3 
REMARK    2  A    between atoms: C_3  and  O_4 
REMARK    3  A    between atoms: O_4  and  C_5 
REMARK    4  A    between atoms: C_6  and  C_7 
REMARK    5  A    between atoms: C_11  and  C_12 
REMARK       I    between atoms: C_12  and  N_13 
REMARK    6  A    between atoms: N_13  and  N_14 
REMARK    7  A    between atoms: C_15  and  C_16 
REMARK    8  A    between atoms: C_17  and  O_18 
ROOT
HETATM    1  C   UNL     1      -7.187  -1.014 -34.409  1.00  0.00     0.092 A 
HETATM    2  N   UNL     1      -7.141  -0.108 -35.395  1.00  0.00    -0.174 NA
HETATM    3  N   UNL     1      -8.131   0.750 -35.118  1.00  0.00    -0.272 N 
HETATM    4  H   UNL     1      -8.282   1.544 -35.735  1.00  0.00     0.189 HD
HETATM    5  C   UNL     1      -8.865   0.420 -34.012  1.00  0.00     0.121 A 
HETATM    6  C   UNL     1      -8.257  -0.714 -33.516  1.00  0.00     0.071 A 
ENDROOT
BRANCH   5   7
HETATM    7  C   UNL     1     -10.004   1.206 -33.608  1.00  0.00     0.289 C 
HETATM    8  N   UNL     1      -9.747   2.561 -33.455  1.00  0.00    -0.242 N 
HETATM    9  H   UNL     1      -8.810   2.920 -33.582  1.00  0.00     0.192 HD
HETATM   10  O   UNL     1     -11.095   0.687 -33.389  1.00  0.00    -0.264 OA
BRANCH   8  11
HETATM   11  N   UNL     1     -10.722   3.387 -32.980  1.00  0.00    -0.183 NA
HETATM   12  C   UNL     1     -10.546   3.837 -31.778  1.00  0.00     0.153 C 
BRANCH  12  13
HETATM   13  C   UNL     1     -11.544   4.718 -31.142  1.00  0.00     0.016 A 
HETATM   14  C   UNL     1     -12.858   4.302 -30.895  1.00  0.00     0.077 A 
HETATM   15  C   UNL     1     -13.761   5.167 -30.282  1.00  0.00     0.037 A 
HETATM   16  C   UNL     1     -13.357   6.448 -29.907  1.00  0.00     0.003 A 
HETATM   17  C   UNL     1     -12.048   6.868 -30.149  1.00  0.00     0.001 A 
HETATM   18  C   UNL     1     -11.140   6.006 -30.768  1.00  0.00     0.016 A 
BRANCH  14  19
HETATM   19  O   UNL     1     -13.331   3.062 -31.226  1.00  0.00    -0.360 OA
HETATM   20  H   UNL     1     -12.712   2.655 -31.873  1.00  0.00     0.217 HD
ENDBRANCH  14  19
ENDBRANCH  12  13
ENDBRANCH   8  11
ENDBRANCH   5   7
BRANCH   1  21
HETATM   21  C   UNL     1      -6.273  -2.157 -34.340  1.00  0.00     0.028 A 
HETATM   22  C   UNL     1      -4.948  -2.078 -33.874  1.00  0.00     0.081 A 
HETATM   23  C   UNL     1      -4.117  -3.206 -33.923  1.00  0.00     0.038 A 
HETATM   24  C   UNL     1      -4.601  -4.430 -34.381  1.00  0.00     0.003 A 
HETATM   25  C   UNL     1      -5.917  -4.532 -34.813  1.00  0.00     0.001 A 
HETATM   26  C   UNL     1      -6.744  -3.404 -34.798  1.00  0.00     0.017 A 
BRANCH  22  27
HETATM   27  O   UNL     1      -4.332  -0.949 -33.399  1.00  0.00    -0.350 OA
BRANCH  27  28
HETATM   28  C   UNL     1      -3.437  -1.198 -32.312  1.00  0.00     0.175 C 
BRANCH  28  29
HETATM   29  C   UNL     1      -3.742  -0.214 -31.182  1.00  0.00     0.022 C 
HETATM   30  C   UNL     1      -5.214   0.171 -31.133  1.00  0.00     0.007 C 
ENDBRANCH  28  29
ENDBRANCH  27  28
ENDBRANCH  22  27
ENDBRANCH   1  21
TORSDOF 8
ENDMDL
MODEL 10
REMARK VINA RESULT:      -7.6      1.993      2.984
REMARK  8 active torsions:
REMARK  status: ('A' for Active; 'I' for Inactive)
REMARK    1  A    between atoms: C_2  and  C_3 
REMARK    2  A    between atoms: C_3  and  O_4 
REMARK    3  A    between atoms: O_4  and  C_5 
REMARK    4  A    between atoms: C_6  and  C_7 
REMARK    5  A    between atoms: C_11  and  C_12 
REMARK       I    between atoms: C_12  and  N_13 
REMARK    6  A    between atoms: N_13  and  N_14 
REMARK    7  A    between atoms: C_15  and  C_16 
REMARK    8  A    between atoms: C_17  and  O_18 
ROOT
HETATM    1  C   UNL     1      -2.808   4.854 -31.887  1.00  0.00     0.092 A 
HETATM    2  N   UNL     1      -3.521   5.336 -32.914  1.00  0.00    -0.174 NA
HETATM    3  N   UNL     1      -4.360   4.345 -33.244  1.00  0.00    -0.272 N 
HETATM    4  H   UNL     1      -5.019   4.491 -34.004  1.00  0.00     0.189 HD
HETATM    5  C   UNL     1      -4.197   3.205 -32.507  1.00  0.00     0.121 A 
HETATM    6  C   UNL     1      -3.206   3.515 -31.599  1.00  0.00     0.071 A 
ENDROOT
BRANCH   5   7
HETATM    7  C   UNL     1      -4.979   2.024 -32.773  1.00  0.00     0.289 C 
HETATM    8  N   UNL     1      -4.342   0.828 -32.473  1.00  0.00    -0.242 N 
HETATM    9  H   UNL     1      -3.387   0.828 -32.139  1.00  0.00     0.192 HD
HETATM   10  O   UNL     1      -6.104   2.096 -33.259  1.00  0.00    -0.264 OA
BRANCH   8  11
HETATM   11  N   UNL     1      -4.945  -0.357 -32.775  1.00  0.00    -0.183 NA
HETATM   12  C   UNL     1      -4.321  -1.108 -33.626  1.00  0.00     0.153 C 
BRANCH  12  13
HETATM   13  C   UNL     1      -4.885  -2.403 -34.055  1.00  0.00     0.016 A 
HETATM   14  C   UNL     1      -6.163  -2.511 -34.616  1.00  0.00     0.077 A 
HETATM   15  C   UNL     1      -6.648  -3.754 -35.015  1.00  0.00     0.037 A 
HETATM   16  C   UNL     1      -5.858  -4.894 -34.862  1.00  0.00     0.003 A 
HETATM   17  C   UNL     1      -4.583  -4.791 -34.304  1.00  0.00     0.001 A 
HETATM   18  C   UNL     1      -4.094  -3.547 -33.898  1.00  0.00     0.016 A 
BRANCH  14  19
HETATM   19  O   UNL     1      -6.996  -1.443 -34.807  1.00  0.00    -0.360 OA
HETATM   20  H   UNL     1      -7.925  -1.754 -34.723  1.00  0.00     0.217 HD
ENDBRANCH  14  19
ENDBRANCH  12  13
ENDBRANCH   8  11
ENDBRANCH   5   7
BRANCH   1  21
HETATM   21  C   UNL     1      -1.748   5.621 -31.228  1.00  0.00     0.028 A 
HETATM   22  C   UNL     1      -1.976   6.772 -30.453  1.00  0.00     0.081 A 
HETATM   23  C   UNL     1      -0.894   7.493 -29.929  1.00  0.00     0.038 A 
HETATM   24  C   UNL     1       0.415   7.057 -30.122  1.00  0.00     0.003 A 
HETATM   25  C   UNL     1       0.655   5.903 -30.858  1.00  0.00     0.001 A 
HETATM   26  C   UNL     1      -0.417   5.195 -31.411  1.00  0.00     0.017 A 
BRANCH  22  27
HETATM   27  O   UNL     1      -3.202   7.323 -30.179  1.00  0.00    -0.350 OA
BRANCH  27  28
HETATM   28  C   UNL     1      -3.870   6.715 -29.070  1.00  0.00     0.175 C 
BRANCH  28  29
HETATM   29  C   UNL     1      -3.871   7.692 -27.894  1.00  0.00     0.022 C 
HETATM   30  C   UNL     1      -3.115   7.148 -26.690  1.00  0.00     0.007 C 
ENDBRANCH  28  29
ENDBRANCH  27  28
ENDBRANCH  22  27
ENDBRANCH   1  21
TORSDOF 8
ENDMDL
