MODEL 1
REMARK VINA RESULT:      -9.3      0.000      0.000
REMARK  6 active torsions:
REMARK  status: ('A' for Active; 'I' for Inactive)
REMARK    1  A    between atoms: C_2  and  O_3 
REMARK    2  A    between atoms: C_2  and  C_4 
REMARK    3  A    between atoms: C_7  and  N_8 
REMARK       I    between atoms: N_8  and  C_9 
REMARK    4  A    between atoms: C_9  and  C_10 
REMARK    5  A    between atoms: C_13  and  C_14 
REMARK    6  A    between atoms: C_19  and  C_20 
ROOT
HETATM    1  C   UNL     1      -9.156   2.161 -33.151  1.00  0.00     0.096 A 
HETATM    2  C   UNL     1     -10.200   2.403 -34.025  1.00  0.00     0.138 A 
HETATM    3  N   UNL     1     -10.494   3.741 -33.904  1.00  0.00    -0.240 N 
HETATM    4  C   UNL     1     -11.576   4.410 -34.606  1.00  0.00     0.221 C 
HETATM    5  C   UNL     1     -12.083   3.537 -35.770  1.00  0.00     0.068 C 
HETATM    6  C   UNL     1     -12.218   2.068 -35.358  1.00  0.00     0.143 C 
HETATM    7  N   UNL     1     -10.915   1.593 -34.859  1.00  0.00    -0.363 N 
HETATM    8  N   UNL     1      -9.827   4.341 -32.906  1.00  0.00    -0.181 NA
HETATM    9  C   UNL     1      -8.995   3.391 -32.471  1.00  0.00     0.160 A 
HETATM   10  H   UNL     1     -10.953   0.596 -34.631  1.00  0.00     0.162 HD
ENDROOT
BRANCH   1  11
HETATM   11  C   UNL     1      -8.427   0.925 -32.914  1.00  0.00     0.261 C 
HETATM   12  N   UNL     1      -7.388   0.735 -33.805  1.00  0.00    -0.323 N 
HETATM   13  H   UNL     1      -7.174   1.533 -34.395  1.00  0.00     0.169 HD
HETATM   14  O   UNL     1      -8.739   0.180 -31.994  1.00  0.00    -0.267 OA
BRANCH  12  15
HETATM   15  C   UNL     1      -6.583  -0.404 -33.973  1.00  0.00     0.035 A 
HETATM   16  C   UNL     1      -5.265  -0.500 -33.528  1.00  0.00     0.030 A 
HETATM   17  C   UNL     1      -4.548  -1.692 -33.688  1.00  0.00     0.012 A 
HETATM   18  C   UNL     1      -5.134  -2.809 -34.300  1.00  0.00    -0.030 A 
HETATM   19  C   UNL     1      -6.456  -2.705 -34.750  1.00  0.00     0.012 A 
HETATM   20  C   UNL     1      -7.171  -1.514 -34.590  1.00  0.00     0.030 A 
BRANCH  18  21
HETATM   21  C   UNL     1      -4.360  -4.104 -34.414  1.00  0.00     0.147 C 
HETATM   22  C   UNL     1      -3.497  -4.341 -33.180  1.00  0.00     0.044 C 
BRANCH  21  23
HETATM   23  O   UNL     1      -5.259  -5.200 -34.569  1.00  0.00    -0.391 OA
HETATM   24  H   UNL     1      -4.899  -5.765 -35.272  1.00  0.00     0.210 HD
ENDBRANCH  21  23
ENDBRANCH  18  21
ENDBRANCH  12  15
ENDBRANCH   1  11
BRANCH   4  25
HETATM   25  C   UNL     1     -11.145   5.760 -35.139  1.00  0.00     0.409 C 
HETATM   26  F   UNL     1      -9.977   5.694 -35.818  1.00  0.00    -0.169 F 
HETATM   27  F   UNL     1     -12.076   6.221 -36.019  1.00  0.00    -0.169 F 
HETATM   28  F   UNL     1     -11.029   6.707 -34.187  1.00  0.00    -0.169 F 
ENDBRANCH   4  25
BRANCH   6  29
HETATM   29  C   UNL     1     -13.368   1.855 -34.421  1.00  0.00     0.075 A 
HETATM   30  O   UNL     1     -14.377   1.057 -34.879  1.00  0.00    -0.325 OA
HETATM   31  C   UNL     1     -15.310   0.989 -33.895  1.00  0.00     0.142 A 
HETATM   32  C   UNL     1     -14.918   1.733 -32.808  1.00  0.00     0.027 A 
HETATM   33  C   UNL     1     -13.662   2.293 -33.145  1.00  0.00     0.037 A 
ENDBRANCH   6  29
TORSDOF 6
ENDMDL
MODEL 2
REMARK VINA RESULT:      -9.1      4.937      7.463
REMARK  6 active torsions:
REMARK  status: ('A' for Active; 'I' for Inactive)
REMARK    1  A    between atoms: C_2  and  O_3 
REMARK    2  A    between atoms: C_2  and  C_4 
REMARK    3  A    between atoms: C_7  and  N_8 
REMARK       I    between atoms: N_8  and  C_9 
REMARK    4  A    between atoms: C_9  and  C_10 
REMARK    5  A    between atoms: C_13  and  C_14 
REMARK    6  A    between atoms: C_19  and  C_20 
ROOT
HETATM    1  C   UNL     1      -5.869   2.988 -31.723  1.00  0.00     0.096 A 
HETATM    2  C   UNL     1      -4.839   3.860 -31.420  1.00  0.00     0.138 A 
HETATM    3  N   UNL     1      -5.391   5.120 -31.437  1.00  0.00    -0.240 N 
HETATM    4  C   UNL     1      -4.641   6.347 -31.228  1.00  0.00     0.221 C 
HETATM    5  C   UNL     1      -3.264   6.038 -30.610  1.00  0.00     0.068 C 
HETATM    6  C   UNL     1      -2.602   4.829 -31.279  1.00  0.00     0.143 C 
HETATM    7  N   UNL     1      -3.509   3.672 -31.175  1.00  0.00    -0.363 N 
HETATM    8  N   UNL     1      -6.656   5.137 -31.882  1.00  0.00    -0.181 NA
HETATM    9  C   UNL     1      -6.955   3.843 -32.025  1.00  0.00     0.160 A 
HETATM   10  H   UNL     1      -3.073   2.830 -31.559  1.00  0.00     0.162 HD
ENDROOT
BRANCH   1  11
HETATM   11  C   UNL     1      -5.849   1.536 -31.792  1.00  0.00     0.261 C 
HETATM   12  N   UNL     1      -5.644   1.063 -33.074  1.00  0.00    -0.323 N 
HETATM   13  H   UNL     1      -5.386   1.767 -33.759  1.00  0.00     0.169 HD
HETATM   14  O   UNL     1      -5.988   0.858 -30.783  1.00  0.00    -0.267 OA
BRANCH  12  15
HETATM   15  C   UNL     1      -5.722  -0.262 -33.536  1.00  0.00     0.035 A 
HETATM   16  C   UNL     1      -6.878  -0.837 -34.065  1.00  0.00     0.030 A 
HETATM   17  C   UNL     1      -6.857  -2.148 -34.553  1.00  0.00     0.012 A 
HETATM   18  C   UNL     1      -5.682  -2.912 -34.518  1.00  0.00    -0.030 A 
HETATM   19  C   UNL     1      -4.527  -2.332 -33.980  1.00  0.00     0.012 A 
HETATM   20  C   UNL     1      -4.549  -1.022 -33.493  1.00  0.00     0.030 A 
BRANCH  18  21
HETATM   21  C   UNL     1      -5.669  -4.309 -35.100  1.00  0.00     0.147 C 
HETATM   22  C   UNL     1      -4.710  -5.215 -34.337  1.00  0.00     0.044 C 
BRANCH  21  23
HETATM   23  O   UNL     1      -6.979  -4.871 -35.050  1.00  0.00    -0.391 OA
HETATM   24  H   UNL     1      -7.607  -4.130 -35.061  1.00  0.00     0.210 HD
ENDBRANCH  21  23
ENDBRANCH  18  21
ENDBRANCH  12  15
ENDBRANCH   1  11
BRANCH   4  25
HETATM   25  C   UNL     1      -5.389   7.313 -30.335  1.00  0.00     0.409 C 
HETATM   26  F   UNL     1      -6.046   6.683 -29.334  1.00  0.00    -0.169 F 
HETATM   27  F   UNL     1      -4.505   8.162 -29.740  1.00  0.00    -0.169 F 
HETATM   28  F   UNL     1      -6.269   8.092 -30.994  1.00  0.00    -0.169 F 
ENDBRANCH   4  25
BRANCH   6  29
HETATM   29  C   UNL     1      -2.141   5.145 -32.670  1.00  0.00     0.075 A 
HETATM   30  O   UNL     1      -1.468   6.323 -32.827  1.00  0.00    -0.325 OA
HETATM   31  C   UNL     1      -1.139   6.423 -34.140  1.00  0.00     0.142 A 
HETATM   32  C   UNL     1      -1.591   5.326 -34.834  1.00  0.00     0.027 A 
HETATM   33  C   UNL     1      -2.238   4.498 -33.886  1.00  0.00     0.037 A 
ENDBRANCH   6  29
TORSDOF 6
ENDMDL
MODEL 3
REMARK VINA RESULT:      -8.6      2.999      8.631
REMARK  6 active torsions:
REMARK  status: ('A' for Active; 'I' for Inactive)
REMARK    1  A    between atoms: C_2  and  O_3 
REMARK    2  A    between atoms: C_2  and  C_4 
REMARK    3  A    between atoms: C_7  and  N_8 
REMARK       I    between atoms: N_8  and  C_9 
REMARK    4  A    between atoms: C_9  and  C_10 
REMARK    5  A    between atoms: C_13  and  C_14 
REMARK    6  A    between atoms: C_19  and  C_20 
ROOT
HETATM    1  C   UNL     1      -8.730   1.712 -33.171  1.00  0.00     0.096 A 
HETATM    2  C   UNL     1      -7.614   1.086 -32.647  1.00  0.00     0.138 A 
HETATM    3  N   UNL     1      -6.541   1.882 -32.978  1.00  0.00    -0.240 N 
HETATM    4  C   UNL     1      -5.157   1.563 -32.671  1.00  0.00     0.221 C 
HETATM    5  C   UNL     1      -5.084   0.448 -31.610  1.00  0.00     0.068 C 
HETATM    6  C   UNL     1      -6.093  -0.671 -31.894  1.00  0.00     0.143 C 
HETATM    7  N   UNL     1      -7.444  -0.085 -31.965  1.00  0.00    -0.363 N 
HETATM    8  N   UNL     1      -6.864   2.885 -33.808  1.00  0.00    -0.181 NA
HETATM    9  C   UNL     1      -8.194   2.799 -33.899  1.00  0.00     0.160 A 
HETATM   10  H   UNL     1      -8.150  -0.813 -32.093  1.00  0.00     0.162 HD
ENDROOT
BRANCH   1  11
HETATM   11  C   UNL     1     -10.128   1.325 -33.073  1.00  0.00     0.261 C 
HETATM   12  N   UNL     1     -10.994   2.377 -33.302  1.00  0.00    -0.323 N 
HETATM   13  H   UNL     1     -10.560   3.225 -33.653  1.00  0.00     0.169 HD
HETATM   14  O   UNL     1     -10.442   0.167 -32.826  1.00  0.00    -0.267 OA
BRANCH  12  15
HETATM   15  C   UNL     1     -12.389   2.408 -33.138  1.00  0.00     0.035 A 
HETATM   16  C   UNL     1     -13.263   1.485 -33.713  1.00  0.00     0.030 A 
HETATM   17  C   UNL     1     -14.637   1.555 -33.455  1.00  0.00     0.012 A 
HETATM   18  C   UNL     1     -15.164   2.550 -32.620  1.00  0.00    -0.030 A 
HETATM   19  C   UNL     1     -14.283   3.477 -32.051  1.00  0.00     0.012 A 
HETATM   20  C   UNL     1     -12.911   3.407 -32.309  1.00  0.00     0.030 A 
BRANCH  18  21
HETATM   21  C   UNL     1     -16.645   2.574 -32.313  1.00  0.00     0.147 C 
HETATM   22  C   UNL     1     -17.092   3.958 -31.858  1.00  0.00     0.044 C 
BRANCH  21  23
HETATM   23  O   UNL     1     -17.391   2.203 -33.471  1.00  0.00    -0.391 OA
HETATM   24  H   UNL     1     -18.330   2.223 -33.223  1.00  0.00     0.210 HD
ENDBRANCH  21  23
ENDBRANCH  18  21
ENDBRANCH  12  15
ENDBRANCH   1  11
BRANCH   4  25
HETATM   25  C   UNL     1      -4.400   2.777 -32.178  1.00  0.00     0.409 C 
HETATM   26  F   UNL     1      -3.829   3.471 -33.189  1.00  0.00    -0.169 F 
HETATM   27  F   UNL     1      -5.263   3.633 -31.564  1.00  0.00    -0.169 F 
HETATM   28  F   UNL     1      -3.447   2.491 -31.270  1.00  0.00    -0.169 F 
ENDBRANCH   4  25
BRANCH   6  29
HETATM   29  C   UNL     1      -5.697  -1.489 -33.086  1.00  0.00     0.075 A 
HETATM   30  O   UNL     1      -4.411  -1.947 -33.100  1.00  0.00    -0.325 OA
HETATM   31  C   UNL     1      -4.252  -2.658 -34.246  1.00  0.00     0.142 A 
HETATM   32  C   UNL     1      -5.419  -2.664 -34.973  1.00  0.00     0.027 A 
HETATM   33  C   UNL     1      -6.355  -1.909 -34.225  1.00  0.00     0.037 A 
ENDBRANCH   6  29
TORSDOF 6
ENDMDL
MODEL 4
REMARK VINA RESULT:      -8.6      2.412      3.971
REMARK  6 active torsions:
REMARK  status: ('A' for Active; 'I' for Inactive)
REMARK    1  A    between atoms: C_2  and  O_3 
REMARK    2  A    between atoms: C_2  and  C_4 
REMARK    3  A    between atoms: C_7  and  N_8 
REMARK       I    between atoms: N_8  and  C_9 
REMARK    4  A    between atoms: C_9  and  C_10 
REMARK    5  A    between atoms: C_13  and  C_14 
REMARK    6  A    between atoms: C_19  and  C_20 
ROOT
HETATM    1  C   UNL     1      -9.185   1.601 -33.175  1.00  0.00     0.096 A 
HETATM    2  C   UNL     1      -9.904   2.400 -32.304  1.00  0.00     0.138 A 
HETATM    3  N   UNL     1     -10.788   3.111 -33.083  1.00  0.00    -0.240 N 
HETATM    4  C   UNL     1     -11.701   4.120 -32.576  1.00  0.00     0.221 C 
HETATM    5  C   UNL     1     -11.827   4.010 -31.044  1.00  0.00     0.068 C 
HETATM    6  C   UNL     1     -10.463   3.793 -30.378  1.00  0.00     0.143 C 
HETATM    7  N   UNL     1      -9.841   2.587 -30.954  1.00  0.00    -0.363 N 
HETATM    8  N   UNL     1     -10.583   2.947 -34.399  1.00  0.00    -0.181 NA
HETATM    9  C   UNL     1      -9.633   2.009 -34.453  1.00  0.00     0.160 A 
HETATM   10  H   UNL     1      -8.955   2.377 -30.489  1.00  0.00     0.162 HD
ENDROOT
BRANCH   1  11
HETATM   11  C   UNL     1      -8.155   0.618 -32.878  1.00  0.00     0.261 C 
HETATM   12  N   UNL     1      -7.539   0.127 -34.013  1.00  0.00    -0.323 N 
HETATM   13  H   UNL     1      -7.768   0.613 -34.874  1.00  0.00     0.169 HD
HETATM   14  O   UNL     1      -7.895   0.313 -31.721  1.00  0.00    -0.267 OA
BRANCH  12  15
HETATM   15  C   UNL     1      -6.623  -0.934 -34.116  1.00  0.00     0.035 A 
HETATM   16  C   UNL     1      -5.289  -0.854 -33.719  1.00  0.00     0.030 A 
HETATM   17  C   UNL     1      -4.455  -1.975 -33.805  1.00  0.00     0.012 A 
HETATM   18  C   UNL     1      -4.939  -3.197 -34.294  1.00  0.00    -0.030 A 
HETATM   19  C   UNL     1      -6.277  -3.270 -34.696  1.00  0.00     0.012 A 
HETATM   20  C   UNL     1      -7.109  -2.149 -34.610  1.00  0.00     0.030 A 
BRANCH  18  21
HETATM   21  C   UNL     1      -4.035  -4.409 -34.328  1.00  0.00     0.147 C 
HETATM   22  C   UNL     1      -3.284  -4.576 -33.012  1.00  0.00     0.044 C 
BRANCH  21  23
HETATM   23  O   UNL     1      -4.804  -5.585 -34.576  1.00  0.00    -0.391 OA
HETATM   24  H   UNL     1      -5.345  -5.410 -35.364  1.00  0.00     0.210 HD
ENDBRANCH  21  23
ENDBRANCH  18  21
ENDBRANCH  12  15
ENDBRANCH   1  11
BRANCH   4  25
HETATM   25  C   UNL     1     -13.073   3.999 -33.203  1.00  0.00     0.409 C 
HETATM   26  F   UNL     1     -13.461   2.710 -33.343  1.00  0.00    -0.169 F 
HETATM   27  F   UNL     1     -13.997   4.593 -32.399  1.00  0.00    -0.169 F 
HETATM   28  F   UNL     1     -13.176   4.604 -34.403  1.00  0.00    -0.169 F 
ENDBRANCH   4  25
BRANCH   6  29
HETATM   29  C   UNL     1      -9.614   5.027 -30.431  1.00  0.00     0.075 A 
HETATM   30  O   UNL     1     -10.259   6.210 -30.210  1.00  0.00    -0.325 OA
HETATM   31  C   UNL     1      -9.328   7.195 -30.297  1.00  0.00     0.142 A 
HETATM   32  C   UNL     1      -8.091   6.664 -30.574  1.00  0.00     0.027 A 
HETATM   33  C   UNL     1      -8.273   5.263 -30.661  1.00  0.00     0.037 A 
ENDBRANCH   6  29
TORSDOF 6
ENDMDL
MODEL 5
REMARK VINA RESULT:      -8.3      3.571      8.406
REMARK  6 active torsions:
REMARK  status: ('A' for Active; 'I' for Inactive)
REMARK    1  A    between atoms: C_2  and  O_3 
REMARK    2  A    between atoms: C_2  and  C_4 
REMARK    3  A    between atoms: C_7  and  N_8 
REMARK       I    between atoms: N_8  and  C_9 
REMARK    4  A    between atoms: C_9  and  C_10 
REMARK    5  A    between atoms: C_13  and  C_14 
REMARK    6  A    between atoms: C_19  and  C_20 
ROOT
HETATM    1  C   UNL     1      -7.294   2.862 -32.740  1.00  0.00     0.096 A 
HETATM    2  C   UNL     1      -6.091   2.615 -32.105  1.00  0.00     0.138 A 
HETATM    3  N   UNL     1      -5.118   3.155 -32.914  1.00  0.00    -0.240 N 
HETATM    4  C   UNL     1      -3.691   3.068 -32.652  1.00  0.00     0.221 C 
HETATM    5  C   UNL     1      -3.438   2.651 -31.190  1.00  0.00     0.068 C 
HETATM    6  C   UNL     1      -4.377   1.522 -30.752  1.00  0.00     0.143 C 
HETATM    7  N   UNL     1      -5.771   1.960 -30.952  1.00  0.00    -0.363 N 
HETATM    8  N   UNL     1      -5.590   3.587 -34.093  1.00  0.00    -0.181 NA
HETATM    9  C   UNL     1      -6.912   3.438 -33.974  1.00  0.00     0.160 A 
HETATM   10  H   UNL     1      -6.427   1.253 -30.613  1.00  0.00     0.162 HD
ENDROOT
BRANCH   1  11
HETATM   11  C   UNL     1      -8.644   2.548 -32.299  1.00  0.00     0.261 C 
HETATM   12  N   UNL     1      -9.468   2.149 -33.334  1.00  0.00    -0.323 N 
HETATM   13  H   UNL     1      -9.000   1.980 -34.219  1.00  0.00     0.169 HD
HETATM   14  O   UNL     1      -8.953   2.631 -31.117  1.00  0.00    -0.267 OA
BRANCH  12  15
HETATM   15  C   UNL     1     -10.855   1.923 -33.305  1.00  0.00     0.035 A 
HETATM   16  C   UNL     1     -11.802   2.921 -33.076  1.00  0.00     0.030 A 
HETATM   17  C   UNL     1     -13.169   2.622 -33.117  1.00  0.00     0.012 A 
HETATM   18  C   UNL     1     -13.615   1.320 -33.385  1.00  0.00    -0.030 A 
HETATM   19  C   UNL     1     -12.659   0.322 -33.608  1.00  0.00     0.012 A 
HETATM   20  C   UNL     1     -11.294   0.621 -33.566  1.00  0.00     0.030 A 
BRANCH  18  21
HETATM   21  C   UNL     1     -15.097   1.032 -33.477  1.00  0.00     0.147 C 
HETATM   22  C   UNL     1     -15.913   2.101 -32.760  1.00  0.00     0.044 C 
BRANCH  21  23
HETATM   23  O   UNL     1     -15.501   0.979 -34.844  1.00  0.00    -0.391 OA
HETATM   24  H   UNL     1     -15.275   0.093 -35.173  1.00  0.00     0.210 HD
ENDBRANCH  21  23
ENDBRANCH  18  21
ENDBRANCH  12  15
ENDBRANCH   1  11
BRANCH   4  25
HETATM   25  C   UNL     1      -2.991   4.380 -32.930  1.00  0.00     0.409 C 
HETATM   26  F   UNL     1      -3.721   5.446 -32.528  1.00  0.00    -0.169 F 
HETATM   27  F   UNL     1      -1.822   4.430 -32.234  1.00  0.00    -0.169 F 
HETATM   28  F   UNL     1      -2.662   4.556 -34.225  1.00  0.00    -0.169 F 
ENDBRANCH   4  25
BRANCH   6  29
HETATM   29  C   UNL     1      -4.026   0.220 -31.406  1.00  0.00     0.075 A 
HETATM   30  O   UNL     1      -5.036  -0.408 -32.077  1.00  0.00    -0.325 OA
HETATM   31  C   UNL     1      -4.523  -1.554 -32.592  1.00  0.00     0.142 A 
HETATM   32  C   UNL     1      -3.194  -1.676 -32.262  1.00  0.00     0.027 A 
HETATM   33  C   UNL     1      -2.870  -0.531 -31.496  1.00  0.00     0.037 A 
ENDBRANCH   6  29
TORSDOF 6
ENDMDL
MODEL 6
REMARK VINA RESULT:      -8.2      5.329      7.696
REMARK  6 active torsions:
REMARK  status: ('A' for Active; 'I' for Inactive)
REMARK    1  A    between atoms: C_2  and  O_3 
REMARK    2  A    between atoms: C_2  and  C_4 
REMARK    3  A    between atoms: C_7  and  N_8 
REMARK       I    between atoms: N_8  and  C_9 
REMARK    4  A    between atoms: C_9  and  C_10 
REMARK    5  A    between atoms: C_13  and  C_14 
REMARK    6  A    between atoms: C_19  and  C_20 
ROOT
HETATM    1  C   UNL     1      -6.840   3.306 -32.350  1.00  0.00     0.096 A 
HETATM    2  C   UNL     1      -7.190   2.361 -33.297  1.00  0.00     0.138 A 
HETATM    3  N   UNL     1      -8.277   1.693 -32.783  1.00  0.00    -0.240 N 
HETATM    4  C   UNL     1      -8.932   0.570 -33.432  1.00  0.00     0.221 C 
HETATM    5  C   UNL     1      -8.513   0.485 -34.913  1.00  0.00     0.068 C 
HETATM    6  C   UNL     1      -7.007   0.710 -35.088  1.00  0.00     0.143 C 
HETATM    7  N   UNL     1      -6.652   2.016 -34.504  1.00  0.00    -0.363 N 
HETATM    8  N   UNL     1      -8.552   2.028 -31.514  1.00  0.00    -0.181 NA
HETATM    9  C   UNL     1      -7.700   3.027 -31.263  1.00  0.00     0.160 A 
HETATM   10  H   UNL     1      -5.663   2.227 -34.657  1.00  0.00     0.162 HD
ENDROOT
BRANCH   1  11
HETATM   11  C   UNL     1      -5.791   4.312 -32.404  1.00  0.00     0.261 C 
HETATM   12  N   UNL     1      -4.724   4.019 -31.576  1.00  0.00    -0.323 N 
HETATM   13  H   UNL     1      -4.737   3.090 -31.166  1.00  0.00     0.169 HD
HETATM   14  O   UNL     1      -5.893   5.285 -33.139  1.00  0.00    -0.267 OA
BRANCH  12  15
HETATM   15  C   UNL     1      -3.622   4.830 -31.257  1.00  0.00     0.035 A 
HETATM   16  C   UNL     1      -3.719   6.047 -30.583  1.00  0.00     0.030 A 
HETATM   17  C   UNL     1      -2.565   6.770 -30.256  1.00  0.00     0.012 A 
HETATM   18  C   UNL     1      -1.293   6.291 -30.600  1.00  0.00    -0.030 A 
HETATM   19  C   UNL     1      -1.203   5.072 -31.283  1.00  0.00     0.012 A 
HETATM   20  C   UNL     1      -2.355   4.351 -31.609  1.00  0.00     0.030 A 
BRANCH  18  21
HETATM   21  C   UNL     1      -0.058   7.062 -30.190  1.00  0.00     0.147 C 
HETATM   22  C   UNL     1       0.520   6.524 -28.887  1.00  0.00     0.044 C 
BRANCH  21  23
HETATM   23  O   UNL     1       0.936   6.973 -31.210  1.00  0.00    -0.391 OA
HETATM   24  H   UNL     1       0.469   6.826 -32.049  1.00  0.00     0.210 HD
ENDBRANCH  21  23
ENDBRANCH  18  21
ENDBRANCH  12  15
ENDBRANCH   1  11
BRANCH   4  25
HETATM   25  C   UNL     1     -10.440   0.675 -33.341  1.00  0.00     0.409 C 
HETATM   26  F   UNL     1     -10.837   1.743 -32.612  1.00  0.00    -0.169 F 
HETATM   27  F   UNL     1     -10.961   0.845 -34.588  1.00  0.00    -0.169 F 
HETATM   28  F   UNL     1     -11.031  -0.426 -32.836  1.00  0.00    -0.169 F 
ENDBRANCH   4  25
BRANCH   6  29
HETATM   29  C   UNL     1      -6.207  -0.449 -34.576  1.00  0.00     0.075 A 
HETATM   30  O   UNL     1      -5.113  -0.136 -33.821  1.00  0.00    -0.325 OA
HETATM   31  C   UNL     1      -4.531  -1.307 -33.456  1.00  0.00     0.142 A 
HETATM   32  C   UNL     1      -5.234  -2.372 -33.966  1.00  0.00     0.027 A 
HETATM   33  C   UNL     1      -6.318  -1.820 -34.689  1.00  0.00     0.037 A 
ENDBRANCH   6  29
TORSDOF 6
ENDMDL
MODEL 7
REMARK VINA RESULT:      -8.1      5.798      7.669
REMARK  6 active torsions:
REMARK  status: ('A' for Active; 'I' for Inactive)
REMARK    1  A    between atoms: C_2  and  O_3 
REMARK    2  A    between atoms: C_2  and  C_4 
REMARK    3  A    between atoms: C_7  and  N_8 
REMARK       I    between atoms: N_8  and  C_9 
REMARK    4  A    between atoms: C_9  and  C_10 
REMARK    5  A    between atoms: C_13  and  C_14 
REMARK    6  A    between atoms: C_19  and  C_20 
ROOT
HETATM    1  C   UNL     1      -4.092   3.345 -32.274  1.00  0.00     0.096 A 
HETATM    2  C   UNL     1      -4.333   4.660 -31.921  1.00  0.00     0.138 A 
HETATM    3  N   UNL     1      -3.097   5.250 -31.789  1.00  0.00    -0.240 N 
HETATM    4  C   UNL     1      -2.885   6.625 -31.368  1.00  0.00     0.221 C 
HETATM    5  C   UNL     1      -4.197   7.427 -31.471  1.00  0.00     0.068 C 
HETATM    6  C   UNL     1      -5.392   6.629 -30.939  1.00  0.00     0.143 C 
HETATM    7  N   UNL     1      -5.481   5.357 -31.679  1.00  0.00    -0.363 N 
HETATM    8  N   UNL     1      -2.082   4.377 -31.874  1.00  0.00    -0.181 NA
HETATM    9  C   UNL     1      -2.684   3.229 -32.198  1.00  0.00     0.160 A 
HETATM   10  H   UNL     1      -6.305   4.825 -31.391  1.00  0.00     0.162 HD
ENDROOT
BRANCH   1  11
HETATM   11  C   UNL     1      -5.044   2.289 -32.582  1.00  0.00     0.261 C 
HETATM   12  N   UNL     1      -4.435   1.078 -32.845  1.00  0.00    -0.323 N 
HETATM   13  H   UNL     1      -3.441   1.040 -32.644  1.00  0.00     0.169 HD
HETATM   14  O   UNL     1      -6.248   2.510 -32.576  1.00  0.00    -0.267 OA
BRANCH  12  15
HETATM   15  C   UNL     1      -5.022  -0.105 -33.327  1.00  0.00     0.035 A 
HETATM   16  C   UNL     1      -6.327  -0.186 -33.811  1.00  0.00     0.030 A 
HETATM   17  C   UNL     1      -6.819  -1.392 -34.324  1.00  0.00     0.012 A 
HETATM   18  C   UNL     1      -6.017  -2.541 -34.358  1.00  0.00    -0.030 A 
HETATM   19  C   UNL     1      -4.710  -2.455 -33.865  1.00  0.00     0.012 A 
HETATM   20  C   UNL     1      -4.219  -1.250 -33.353  1.00  0.00     0.030 A 
BRANCH  18  21
HETATM   21  C   UNL     1      -6.551  -3.820 -34.965  1.00  0.00     0.147 C 
HETATM   22  C   UNL     1      -5.463  -4.882 -35.061  1.00  0.00     0.044 C 
BRANCH  21  23
HETATM   23  O   UNL     1      -7.625  -4.325 -34.174  1.00  0.00    -0.391 OA
HETATM   24  H   UNL     1      -8.065  -5.015 -34.699  1.00  0.00     0.210 HD
ENDBRANCH  21  23
ENDBRANCH  18  21
ENDBRANCH  12  15
ENDBRANCH   1  11
BRANCH   4  25
HETATM   25  C   UNL     1      -1.814   7.303 -32.195  1.00  0.00     0.409 C 
HETATM   26  F   UNL     1      -1.957   8.648 -32.216  1.00  0.00    -0.169 F 
HETATM   27  F   UNL     1      -0.591   7.054 -31.650  1.00  0.00    -0.169 F 
HETATM   28  F   UNL     1      -1.752   6.864 -33.468  1.00  0.00    -0.169 F 
ENDBRANCH   4  25
BRANCH   6  29
HETATM   29  C   UNL     1      -5.348   6.488 -29.447  1.00  0.00     0.075 A 
HETATM   30  O   UNL     1      -5.087   7.629 -28.743  1.00  0.00    -0.325 OA
HETATM   31  C   UNL     1      -5.091   7.296 -27.427  1.00  0.00     0.142 A 
HETATM   32  C   UNL     1      -5.351   5.955 -27.271  1.00  0.00     0.027 A 
HETATM   33  C   UNL     1      -5.518   5.431 -28.575  1.00  0.00     0.037 A 
ENDBRANCH   6  29
TORSDOF 6
ENDMDL
MODEL 8
REMARK VINA RESULT:      -8.1      9.568     11.779
REMARK  6 active torsions:
REMARK  status: ('A' for Active; 'I' for Inactive)
REMARK    1  A    between atoms: C_2  and  O_3 
REMARK    2  A    between atoms: C_2  and  C_4 
REMARK    3  A    between atoms: C_7  and  N_8 
REMARK       I    between atoms: N_8  and  C_9 
REMARK    4  A    between atoms: C_9  and  C_10 
REMARK    5  A    between atoms: C_13  and  C_14 
REMARK    6  A    between atoms: C_19  and  C_20 
ROOT
HETATM    1  C   UNL     1      -2.208   7.001 -30.534  1.00  0.00     0.096 A 
HETATM    2  C   UNL     1      -2.391   5.793 -31.181  1.00  0.00     0.138 A 
HETATM    3  N   UNL     1      -2.858   6.102 -32.437  1.00  0.00    -0.240 N 
HETATM    4  C   UNL     1      -3.241   5.118 -33.435  1.00  0.00     0.221 C 
HETATM    5  C   UNL     1      -2.695   3.727 -33.057  1.00  0.00     0.068 C 
HETATM    6  C   UNL     1      -2.884   3.432 -31.565  1.00  0.00     0.143 C 
HETATM    7  N   UNL     1      -2.229   4.497 -30.784  1.00  0.00    -0.363 N 
HETATM    8  N   UNL     1      -3.139   7.404 -32.591  1.00  0.00    -0.181 NA
HETATM    9  C   UNL     1      -2.716   7.953 -31.448  1.00  0.00     0.160 A 
HETATM   10  H   UNL     1      -2.283   4.300 -29.782  1.00  0.00     0.162 HD
ENDROOT
BRANCH   1  11
HETATM   11  C   UNL     1      -1.687   7.257 -29.200  1.00  0.00     0.261 C 
HETATM   12  N   UNL     1      -0.996   8.450 -29.114  1.00  0.00    -0.323 N 
HETATM   13  H   UNL     1      -1.070   9.053 -29.927  1.00  0.00     0.169 HD
HETATM   14  O   UNL     1      -1.889   6.467 -28.287  1.00  0.00    -0.267 OA
BRANCH  12  15
HETATM   15  C   UNL     1      -0.233   8.938 -28.039  1.00  0.00     0.035 A 
HETATM   16  C   UNL     1      -0.685   9.899 -27.135  1.00  0.00     0.030 A 
HETATM   17  C   UNL     1       0.119  10.292 -26.058  1.00  0.00     0.012 A 
HETATM   18  C   UNL     1       1.391   9.735 -25.867  1.00  0.00    -0.030 A 
HETATM   19  C   UNL     1       1.842   8.776 -26.781  1.00  0.00     0.012 A 
HETATM   20  C   UNL     1       1.038   8.383 -27.856  1.00  0.00     0.030 A 
BRANCH  18  21
HETATM   21  C   UNL     1       2.220  10.136 -24.667  1.00  0.00     0.147 C 
HETATM   22  C   UNL     1       3.421   9.214 -24.494  1.00  0.00     0.044 C 
BRANCH  21  23
HETATM   23  O   UNL     1       2.682  11.477 -24.817  1.00  0.00    -0.391 OA
HETATM   24  H   UNL     1       1.928  12.004 -25.130  1.00  0.00     0.210 HD
ENDBRANCH  21  23
ENDBRANCH  18  21
ENDBRANCH  12  15
ENDBRANCH   1  11
BRANCH   4  25
HETATM   25  C   UNL     1      -2.741   5.497 -34.813  1.00  0.00     0.409 C 
HETATM   26  F   UNL     1      -2.098   6.686 -34.816  1.00  0.00    -0.169 F 
HETATM   27  F   UNL     1      -1.840   4.571 -35.242  1.00  0.00    -0.169 F 
HETATM   28  F   UNL     1      -3.710   5.537 -35.749  1.00  0.00    -0.169 F 
ENDBRANCH   4  25
BRANCH   6  29
HETATM   29  C   UNL     1      -4.323   3.194 -31.222  1.00  0.00     0.075 A 
HETATM   30  O   UNL     1      -5.014   2.370 -32.065  1.00  0.00    -0.325 OA
HETATM   31  C   UNL     1      -6.281   2.281 -31.588  1.00  0.00     0.142 A 
HETATM   32  C   UNL     1      -6.420   3.037 -30.448  1.00  0.00     0.027 A 
HETATM   33  C   UNL     1      -5.156   3.627 -30.209  1.00  0.00     0.037 A 
ENDBRANCH   6  29
TORSDOF 6
ENDMDL
MODEL 9
REMARK VINA RESULT:      -8.1     15.594     17.472
REMARK  6 active torsions:
REMARK  status: ('A' for Active; 'I' for Inactive)
REMARK    1  A    between atoms: C_2  and  O_3 
REMARK    2  A    between atoms: C_2  and  C_4 
REMARK    3  A    between atoms: C_7  and  N_8 
REMARK       I    between atoms: N_8  and  C_9 
REMARK    4  A    between atoms: C_9  and  C_10 
REMARK    5  A    between atoms: C_13  and  C_14 
REMARK    6  A    between atoms: C_19  and  C_20 
ROOT
HETATM    1  C   UNL     1      -6.869 -14.184 -36.219  1.00  0.00     0.096 A 
HETATM    2  C   UNL     1      -6.020 -13.492 -37.063  1.00  0.00     0.138 A 
HETATM    3  N   UNL     1      -6.492 -13.708 -38.337  1.00  0.00    -0.240 N 
HETATM    4  C   UNL     1      -5.856 -13.208 -39.544  1.00  0.00     0.221 C 
HETATM    5  C   UNL     1      -4.838 -12.104 -39.198  1.00  0.00     0.068 C 
HETATM    6  C   UNL     1      -3.994 -12.476 -37.974  1.00  0.00     0.143 C 
HETATM    7  N   UNL     1      -4.897 -12.749 -36.841  1.00  0.00    -0.363 N 
HETATM    8  N   UNL     1      -7.481 -14.613 -38.388  1.00  0.00    -0.181 NA
HETATM    9  C   UNL     1      -7.729 -14.877 -37.102  1.00  0.00     0.160 A 
HETATM   10  H   UNL     1      -4.364 -12.942 -35.989  1.00  0.00     0.162 HD
ENDROOT
BRANCH   1  11
HETATM   11  C   UNL     1      -6.856 -14.258 -34.767  1.00  0.00     0.261 C 
HETATM   12  N   UNL     1      -6.082 -15.298 -34.290  1.00  0.00    -0.323 N 
HETATM   13  H   UNL     1      -5.512 -15.768 -34.986  1.00  0.00     0.169 HD
HETATM   14  O   UNL     1      -7.473 -13.444 -34.093  1.00  0.00    -0.267 OA
BRANCH  12  15
HETATM   15  C   UNL     1      -5.967 -15.762 -32.968  1.00  0.00     0.035 A 
HETATM   16  C   UNL     1      -5.220 -15.121 -31.979  1.00  0.00     0.030 A 
HETATM   17  C   UNL     1      -5.201 -15.620 -30.671  1.00  0.00     0.012 A 
HETATM   18  C   UNL     1      -5.925 -16.771 -30.328  1.00  0.00    -0.030 A 
HETATM   19  C   UNL     1      -6.667 -17.413 -31.326  1.00  0.00     0.012 A 
HETATM   20  C   UNL     1      -6.685 -16.914 -32.632  1.00  0.00     0.030 A 
BRANCH  18  21
HETATM   21  C   UNL     1      -5.932 -17.262 -28.897  1.00  0.00     0.147 C 
HETATM   22  C   UNL     1      -4.675 -16.822 -28.156  1.00  0.00     0.044 C 
BRANCH  21  23
HETATM   23  O   UNL     1      -7.076 -16.754 -28.212  1.00  0.00    -0.391 OA
HETATM   24  H   UNL     1      -7.220 -17.323 -27.438  1.00  0.00     0.210 HD
ENDBRANCH  21  23
ENDBRANCH  18  21
ENDBRANCH  12  15
ENDBRANCH   1  11
BRANCH   4  25
HETATM   25  C   UNL     1      -6.871 -12.667 -40.527  1.00  0.00     0.409 C 
HETATM   26  F   UNL     1      -7.361 -13.629 -41.342  1.00  0.00    -0.169 F 
HETATM   27  F   UNL     1      -7.937 -12.159 -39.849  1.00  0.00    -0.169 F 
HETATM   28  F   UNL     1      -6.402 -11.662 -41.293  1.00  0.00    -0.169 F 
ENDBRANCH   4  25
BRANCH   6  29
HETATM   29  C   UNL     1      -3.019 -13.572 -38.282  1.00  0.00     0.075 A 
HETATM   30  O   UNL     1      -2.393 -13.497 -39.493  1.00  0.00    -0.325 OA
HETATM   31  C   UNL     1      -1.560 -14.565 -39.579  1.00  0.00     0.142 A 
HETATM   32  C   UNL     1      -1.640 -15.330 -38.440  1.00  0.00     0.027 A 
HETATM   33  C   UNL     1      -2.582 -14.690 -37.599  1.00  0.00     0.037 A 
ENDBRANCH   6  29
TORSDOF 6
ENDMDL
MODEL 10
REMARK VINA RESULT:      -8.0      5.678      8.847
REMARK  6 active torsions:
REMARK  status: ('A' for Active; 'I' for Inactive)
REMARK    1  A    between atoms: C_2  and  O_3 
REMARK    2  A    between atoms: C_2  and  C_4 
REMARK    3  A    between atoms: C_7  and  N_8 
REMARK       I    between atoms: N_8  and  C_9 
REMARK    4  A    between atoms: C_9  and  C_10 
REMARK    5  A    between atoms: C_13  and  C_14 
REMARK    6  A    between atoms: C_19  and  C_20 
ROOT
HETATM    1  C   UNL     1      -4.910   2.979 -31.262  1.00  0.00     0.096 A 
HETATM    2  C   UNL     1      -4.509   4.302 -31.254  1.00  0.00     0.138 A 
HETATM    3  N   UNL     1      -3.143   4.286 -31.418  1.00  0.00    -0.240 N 
HETATM    4  C   UNL     1      -2.301   5.469 -31.408  1.00  0.00     0.221 C 
HETATM    5  C   UNL     1      -3.156   6.739 -31.584  1.00  0.00     0.068 C 
HETATM    6  C   UNL     1      -4.429   6.686 -30.733  1.00  0.00     0.143 C 
HETATM    7  N   UNL     1      -5.189   5.474 -31.089  1.00  0.00    -0.363 N 
HETATM    8  N   UNL     1      -2.620   3.051 -31.371  1.00  0.00    -0.181 NA
HETATM    9  C   UNL     1      -3.694   2.258 -31.307  1.00  0.00     0.160 A 
HETATM   10  H   UNL     1      -6.076   5.438 -30.582  1.00  0.00     0.162 HD
ENDROOT
BRANCH   1  11
HETATM   11  C   UNL     1      -6.253   2.428 -31.171  1.00  0.00     0.261 C 
HETATM   12  N   UNL     1      -6.794   2.129 -32.407  1.00  0.00    -0.323 N 
HETATM   13  H   UNL     1      -6.148   2.184 -33.188  1.00  0.00     0.169 HD
HETATM   14  O   UNL     1      -6.788   2.255 -30.084  1.00  0.00    -0.267 OA
BRANCH  12  15
HETATM   15  C   UNL     1      -8.110   1.737 -32.709  1.00  0.00     0.035 A 
HETATM   16  C   UNL     1      -8.583   0.431 -32.580  1.00  0.00     0.030 A 
HETATM   17  C   UNL     1      -9.924   0.133 -32.851  1.00  0.00     0.012 A 
HETATM   18  C   UNL     1     -10.816   1.134 -33.259  1.00  0.00    -0.030 A 
HETATM   19  C   UNL     1     -10.334   2.442 -33.393  1.00  0.00     0.012 A 
HETATM   20  C   UNL     1      -8.995   2.738 -33.122  1.00  0.00     0.030 A 
BRANCH  18  21
HETATM   21  C   UNL     1     -12.273   0.800 -33.495  1.00  0.00     0.147 C 
HETATM   22  C   UNL     1     -12.687   1.118 -34.926  1.00  0.00     0.044 C 
BRANCH  21  23
HETATM   23  O   UNL     1     -12.504  -0.585 -33.241  1.00  0.00    -0.391 OA
HETATM   24  H   UNL     1     -13.294  -0.838 -33.746  1.00  0.00     0.210 HD
ENDBRANCH  21  23
ENDBRANCH  18  21
ENDBRANCH  12  15
ENDBRANCH   1  11
BRANCH   4  25
HETATM   25  C   UNL     1      -1.250   5.416 -32.496  1.00  0.00     0.409 C 
HETATM   26  F   UNL     1      -0.921   6.646 -32.953  1.00  0.00    -0.169 F 
HETATM   27  F   UNL     1      -0.105   4.871 -31.998  1.00  0.00    -0.169 F 
HETATM   28  F   UNL     1      -1.599   4.652 -33.551  1.00  0.00    -0.169 F 
ENDBRANCH   4  25
BRANCH   6  29
HETATM   29  C   UNL     1      -4.129   6.836 -29.272  1.00  0.00     0.075 A 
HETATM   30  O   UNL     1      -5.027   6.270 -28.413  1.00  0.00    -0.325 OA
HETATM   31  C   UNL     1      -4.582   6.510 -27.154  1.00  0.00     0.142 A 
HETATM   32  C   UNL     1      -3.409   7.225 -27.187  1.00  0.00     0.027 A 
HETATM   33  C   UNL     1      -3.113   7.436 -28.555  1.00  0.00     0.037 A 
ENDBRANCH   6  29
TORSDOF 6
ENDMDL
