MODEL 1
REMARK VINA RESULT:      -9.5      0.000      0.000
REMARK  9 active torsions:
REMARK  status: ('A' for Active; 'I' for Inactive)
REMARK       I    between atoms: C_2  and  N_3 
REMARK    1  A    between atoms: N_3  and  C_4 
REMARK    2  A    between atoms: C_7  and  O_8 
REMARK    3  A    between atoms: O_8  and  C_9 
REMARK    4  A    between atoms: C_9  and  C_10 
REMARK    5  A    between atoms: C_11  and  O_12 
REMARK    6  A    between atoms: C_16  and  C_17 
REMARK    7  A    between atoms: C_31  and  O_32 
REMARK    8  A    between atoms: O_32  and  C_33 
REMARK    9  A    between atoms: C_33  and  C_34 
ROOT
HETATM    1  C   UNL     1      -2.709   5.193 -31.593  1.00  0.00     0.269 C 
HETATM    2  N   UNL     1      -2.591   5.857 -32.945  1.00  0.00    -0.061 N 
HETATM    3  H   UNL     1      -1.876   5.348 -33.473  1.00  0.00     0.278 HD
HETATM    4  H   UNL     1      -2.251   6.814 -32.807  1.00  0.00     0.278 HD
HETATM    5  C   UNL     1      -3.866   5.879 -33.757  1.00  0.00     0.238 C 
HETATM    6  C   UNL     1      -4.354   4.452 -34.067  1.00  0.00     0.069 C 
HETATM    7  C   UNL     1      -4.263   3.591 -32.854  1.00  0.00    -0.019 A 
HETATM    8  C   UNL     1      -3.500   3.942 -31.756  1.00  0.00     0.052 A 
HETATM    9  N   UNL     1      -3.609   2.942 -30.824  1.00  0.00    -0.356 N 
HETATM   10  H   UNL     1      -3.182   2.918 -29.906  1.00  0.00     0.166 HD
HETATM   11  C   UNL     1      -4.440   1.953 -31.304  1.00  0.00     0.043 A 
HETATM   12  C   UNL     1      -4.879   2.343 -32.572  1.00  0.00     0.002 A 
HETATM   13  C   UNL     1      -4.834   0.752 -30.709  1.00  0.00     0.033 A 
HETATM   14  C   UNL     1      -5.726  -0.057 -31.421  1.00  0.00     0.039 A 
HETATM   15  C   UNL     1      -6.214   0.322 -32.671  1.00  0.00     0.070 A 
HETATM   16  C   UNL     1      -5.773   1.506 -33.272  1.00  0.00     0.051 A 
ENDROOT
BRANCH   1  17
HETATM   17  C   UNL     1      -3.238   6.168 -30.556  1.00  0.00    -0.021 A 
HETATM   18  C   UNL     1      -2.358   7.091 -29.969  1.00  0.00     0.012 A 
HETATM   19  C   UNL     1      -2.825   8.059 -29.071  1.00  0.00     0.038 A 
HETATM   20  C   UNL     1      -4.179   8.128 -28.739  1.00  0.00     0.076 A 
HETATM   21  C   UNL     1      -5.077   7.201 -29.295  1.00  0.00    -0.000 A 
HETATM   22  C   UNL     1      -4.597   6.241 -30.209  1.00  0.00     0.021 A 
BRANCH  20  23
HETATM   23  O   UNL     1      -4.726   9.068 -27.908  1.00  0.00    -0.355 OA
HETATM   24  C   UNL     1      -4.342   9.054 -26.539  1.00  0.00     0.210 C 
ENDBRANCH  20  23
BRANCH  21  25
HETATM   25  C   UNL     1      -6.563   7.269 -28.983  1.00  0.00     0.217 C 
BRANCH  25  26
HETATM   26  O   UNL     1      -6.975   6.060 -28.333  1.00  0.00    -0.347 OA
BRANCH  26  27
HETATM   27  C   UNL     1      -7.714   5.200 -29.100  1.00  0.00     0.069 A 
HETATM   28  C   UNL     1      -7.120   3.964 -29.356  1.00  0.00     0.039 A 
HETATM   29  C   UNL     1      -7.784   3.000 -30.125  1.00  0.00     0.032 A 
HETATM   30  C   UNL     1      -9.048   3.264 -30.663  1.00  0.00     0.034 A 
HETATM   31  C   UNL     1      -9.630   4.509 -30.419  1.00  0.00     0.032 A 
HETATM   32  C   UNL     1      -8.969   5.471 -29.644  1.00  0.00     0.039 A 
BRANCH  30  33
HETATM   33  N   UNL     1      -9.658   2.247 -31.424  1.00  0.00    -0.328 N 
HETATM   34  C   UNL     1      -9.598   2.072 -32.796  1.00  0.00     0.218 C 
HETATM   35  C   UNL     1     -10.397   0.876 -33.251  1.00  0.00     0.117 C 
HETATM   36  O   UNL     1      -9.000   2.774 -33.603  1.00  0.00    -0.274 OA
HETATM   37  H   UNL     1     -10.207   1.570 -30.907  1.00  0.00     0.169 HD
ENDBRANCH  30  33
ENDBRANCH  26  27
ENDBRANCH  25  26
ENDBRANCH  21  25
ENDBRANCH   1  17
BRANCH  15  38
HETATM   38  O   UNL     1      -7.109  -0.551 -33.229  1.00  0.00    -0.347 OA
BRANCH  38  39
HETATM   39  C   UNL     1      -6.839  -0.951 -34.576  1.00  0.00     0.214 C 
BRANCH  39  40
HETATM   40  C   UNL     1      -6.154  -2.297 -34.575  1.00  0.00    -0.034 A 
HETATM   41  C   UNL     1      -4.805  -2.410 -34.206  1.00  0.00     0.009 A 
HETATM   42  C   UNL     1      -4.184  -3.659 -34.153  1.00  0.00     0.001 A 
HETATM   43  C   UNL     1      -4.909  -4.810 -34.457  1.00  0.00     0.000 A 
HETATM   44  C   UNL     1      -6.252  -4.712 -34.814  1.00  0.00     0.001 A 
HETATM   45  C   UNL     1      -6.874  -3.463 -34.870  1.00  0.00     0.009 A 
ENDBRANCH  39  40
ENDBRANCH  38  39
ENDBRANCH  15  38
TORSDOF 9
ENDMDL
MODEL 2
REMARK VINA RESULT:      -9.0      2.312      8.644
REMARK  9 active torsions:
REMARK  status: ('A' for Active; 'I' for Inactive)
REMARK       I    between atoms: C_2  and  N_3 
REMARK    1  A    between atoms: N_3  and  C_4 
REMARK    2  A    between atoms: C_7  and  O_8 
REMARK    3  A    between atoms: O_8  and  C_9 
REMARK    4  A    between atoms: C_9  and  C_10 
REMARK    5  A    between atoms: C_11  and  O_12 
REMARK    6  A    between atoms: C_16  and  C_17 
REMARK    7  A    between atoms: C_31  and  O_32 
REMARK    8  A    between atoms: O_32  and  C_33 
REMARK    9  A    between atoms: C_33  and  C_34 
ROOT
HETATM    1  C   UNL     1      -4.346   0.508 -30.933  1.00  0.00     0.269 C 
HETATM    2  N   UNL     1      -5.441   0.513 -29.890  1.00  0.00    -0.061 N 
HETATM    3  H   UNL     1      -4.995   0.672 -28.982  1.00  0.00     0.278 HD
HETATM    4  H   UNL     1      -5.868  -0.419 -29.866  1.00  0.00     0.278 HD
HETATM    5  C   UNL     1      -6.510   1.561 -30.095  1.00  0.00     0.238 C 
HETATM    6  C   UNL     1      -5.917   2.980 -30.039  1.00  0.00     0.069 C 
HETATM    7  C   UNL     1      -4.651   3.052 -30.823  1.00  0.00    -0.019 A 
HETATM    8  C   UNL     1      -3.952   1.919 -31.200  1.00  0.00     0.052 A 
HETATM    9  N   UNL     1      -2.834   2.318 -31.886  1.00  0.00    -0.356 N 
HETATM   10  H   UNL     1      -2.134   1.718 -32.307  1.00  0.00     0.166 HD
HETATM   11  C   UNL     1      -2.806   3.694 -31.963  1.00  0.00     0.043 A 
HETATM   12  C   UNL     1      -3.945   4.180 -31.317  1.00  0.00     0.002 A 
HETATM   13  C   UNL     1      -1.861   4.535 -32.556  1.00  0.00     0.033 A 
HETATM   14  C   UNL     1      -2.107   5.911 -32.513  1.00  0.00     0.039 A 
HETATM   15  C   UNL     1      -3.255   6.427 -31.912  1.00  0.00     0.070 A 
HETATM   16  C   UNL     1      -4.167   5.573 -31.282  1.00  0.00     0.051 A 
ENDROOT
BRANCH   1  17
HETATM   17  C   UNL     1      -4.764  -0.295 -32.152  1.00  0.00    -0.021 A 
HETATM   18  C   UNL     1      -4.112  -1.506 -32.433  1.00  0.00     0.012 A 
HETATM   19  C   UNL     1      -4.524  -2.313 -33.500  1.00  0.00     0.038 A 
HETATM   20  C   UNL     1      -5.596  -1.932 -34.310  1.00  0.00     0.076 A 
HETATM   21  C   UNL     1      -6.250  -0.712 -34.063  1.00  0.00    -0.000 A 
HETATM   22  C   UNL     1      -5.835   0.084 -32.977  1.00  0.00     0.021 A 
BRANCH  20  23
HETATM   23  O   UNL     1      -6.092  -2.680 -35.342  1.00  0.00    -0.355 OA
HETATM   24  C   UNL     1      -6.612  -3.970 -35.041  1.00  0.00     0.210 C 
ENDBRANCH  20  23
BRANCH  21  25
HETATM   25  C   UNL     1      -7.443  -0.283 -34.902  1.00  0.00     0.217 C 
BRANCH  25  26
HETATM   26  O   UNL     1      -7.724   1.103 -34.666  1.00  0.00    -0.347 OA
BRANCH  26  27
HETATM   27  C   UNL     1      -9.011   1.390 -34.299  1.00  0.00     0.069 A 
HETATM   28  C   UNL     1      -9.669   0.387 -33.587  1.00  0.00     0.039 A 
HETATM   29  C   UNL     1     -10.988   0.569 -33.154  1.00  0.00     0.032 A 
HETATM   30  C   UNL     1     -11.676   1.754 -33.440  1.00  0.00     0.034 A 
HETATM   31  C   UNL     1     -11.018   2.747 -34.168  1.00  0.00     0.032 A 
HETATM   32  C   UNL     1      -9.696   2.567 -34.595  1.00  0.00     0.039 A 
BRANCH  30  33
HETATM   33  N   UNL     1     -12.999   1.869 -32.970  1.00  0.00    -0.328 N 
HETATM   34  C   UNL     1     -14.164   1.566 -33.655  1.00  0.00     0.218 C 
HETATM   35  C   UNL     1     -15.395   1.838 -32.827  1.00  0.00     0.117 C 
HETATM   36  O   UNL     1     -14.256   1.140 -34.801  1.00  0.00    -0.274 OA
HETATM   37  H   UNL     1     -13.109   2.217 -32.026  1.00  0.00     0.169 HD
ENDBRANCH  30  33
ENDBRANCH  26  27
ENDBRANCH  25  26
ENDBRANCH  21  25
ENDBRANCH   1  17
BRANCH  15  38
HETATM   38  O   UNL     1      -3.379   7.788 -31.981  1.00  0.00    -0.347 OA
BRANCH  38  39
HETATM   39  C   UNL     1      -2.207   8.543 -31.658  1.00  0.00     0.214 C 
BRANCH  39  40
HETATM   40  C   UNL     1      -1.936   8.444 -30.176  1.00  0.00    -0.034 A 
HETATM   41  C   UNL     1      -0.768   7.825 -29.705  1.00  0.00     0.009 A 
HETATM   42  C   UNL     1      -0.488   7.781 -28.338  1.00  0.00     0.001 A 
HETATM   43  C   UNL     1      -1.368   8.363 -27.428  1.00  0.00     0.000 A 
HETATM   44  C   UNL     1      -2.525   8.990 -27.884  1.00  0.00     0.001 A 
HETATM   45  C   UNL     1      -2.808   9.035 -29.251  1.00  0.00     0.009 A 
ENDBRANCH  39  40
ENDBRANCH  38  39
ENDBRANCH  15  38
TORSDOF 9
ENDMDL
MODEL 3
REMARK VINA RESULT:      -8.9      3.130      8.053
REMARK  9 active torsions:
REMARK  status: ('A' for Active; 'I' for Inactive)
REMARK       I    between atoms: C_2  and  N_3 
REMARK    1  A    between atoms: N_3  and  C_4 
REMARK    2  A    between atoms: C_7  and  O_8 
REMARK    3  A    between atoms: O_8  and  C_9 
REMARK    4  A    between atoms: C_9  and  C_10 
REMARK    5  A    between atoms: C_11  and  O_12 
REMARK    6  A    between atoms: C_16  and  C_17 
REMARK    7  A    between atoms: C_31  and  O_32 
REMARK    8  A    between atoms: O_32  and  C_33 
REMARK    9  A    between atoms: C_33  and  C_34 
ROOT
HETATM    1  C   UNL     1     -10.411   4.579 -30.619  1.00  0.00     0.269 C 
HETATM    2  N   UNL     1     -10.458   6.057 -30.934  1.00  0.00    -0.061 N 
HETATM    3  H   UNL     1     -10.203   6.559 -30.078  1.00  0.00     0.278 HD
HETATM    4  H   UNL     1     -11.426   6.308 -31.162  1.00  0.00     0.278 HD
HETATM    5  C   UNL     1      -9.537   6.500 -32.047  1.00  0.00     0.238 C 
HETATM    6  C   UNL     1      -8.064   6.226 -31.694  1.00  0.00     0.069 C 
HETATM    7  C   UNL     1      -7.909   4.867 -31.102  1.00  0.00    -0.019 A 
HETATM    8  C   UNL     1      -8.985   4.151 -30.609  1.00  0.00     0.052 A 
HETATM    9  N   UNL     1      -8.514   2.959 -30.121  1.00  0.00    -0.356 N 
HETATM   10  H   UNL     1      -9.063   2.211 -29.713  1.00  0.00     0.166 HD
HETATM   11  C   UNL     1      -7.149   2.894 -30.300  1.00  0.00     0.043 A 
HETATM   12  C   UNL     1      -6.745   4.073 -30.931  1.00  0.00     0.002 A 
HETATM   13  C   UNL     1      -6.251   1.880 -29.955  1.00  0.00     0.033 A 
HETATM   14  C   UNL     1      -4.908   2.068 -30.292  1.00  0.00     0.039 A 
HETATM   15  C   UNL     1      -4.477   3.216 -30.957  1.00  0.00     0.070 A 
HETATM   16  C   UNL     1      -5.383   4.241 -31.253  1.00  0.00     0.051 A 
ENDROOT
BRANCH   1  17
HETATM   17  C   UNL     1     -11.320   3.798 -31.550  1.00  0.00    -0.021 A 
HETATM   18  C   UNL     1     -12.689   4.104 -31.590  1.00  0.00     0.012 A 
HETATM   19  C   UNL     1     -13.543   3.462 -32.495  1.00  0.00     0.038 A 
HETATM   20  C   UNL     1     -13.051   2.501 -33.381  1.00  0.00     0.076 A 
HETATM   21  C   UNL     1     -11.688   2.161 -33.346  1.00  0.00    -0.000 A 
HETATM   22  C   UNL     1     -10.836   2.825 -32.440  1.00  0.00     0.021 A 
BRANCH  20  23
HETATM   23  O   UNL     1     -13.805   1.861 -34.327  1.00  0.00    -0.355 OA
HETATM   24  C   UNL     1     -14.773   0.918 -33.882  1.00  0.00     0.210 C 
ENDBRANCH  20  23
BRANCH  21  25
HETATM   25  C   UNL     1     -11.111   1.146 -34.319  1.00  0.00     0.217 C 
BRANCH  25  26
HETATM   26  O   UNL     1      -9.833   1.598 -34.785  1.00  0.00    -0.347 OA
BRANCH  26  27
HETATM   27  C   UNL     1      -8.767   0.810 -34.442  1.00  0.00     0.069 A 
HETATM   28  C   UNL     1      -8.498   0.729 -33.075  1.00  0.00     0.039 A 
HETATM   29  C   UNL     1      -7.435  -0.052 -32.605  1.00  0.00     0.032 A 
HETATM   30  C   UNL     1      -6.614  -0.751 -33.496  1.00  0.00     0.034 A 
HETATM   31  C   UNL     1      -6.878  -0.652 -34.863  1.00  0.00     0.032 A 
HETATM   32  C   UNL     1      -7.946   0.123 -35.333  1.00  0.00     0.039 A 
BRANCH  30  33
HETATM   33  N   UNL     1      -5.566  -1.519 -32.950  1.00  0.00    -0.328 N 
HETATM   34  C   UNL     1      -4.257  -1.122 -32.736  1.00  0.00     0.218 C 
HETATM   35  C   UNL     1      -3.417  -2.230 -32.150  1.00  0.00     0.117 C 
HETATM   36  O   UNL     1      -3.770  -0.024 -32.981  1.00  0.00    -0.274 OA
HETATM   37  H   UNL     1      -5.796  -2.470 -32.692  1.00  0.00     0.169 HD
ENDBRANCH  30  33
ENDBRANCH  26  27
ENDBRANCH  25  26
ENDBRANCH  21  25
ENDBRANCH   1  17
BRANCH  15  38
HETATM   38  O   UNL     1      -3.142   3.243 -31.255  1.00  0.00    -0.347 OA
BRANCH  38  39
HETATM   39  C   UNL     1      -2.810   3.404 -32.637  1.00  0.00     0.214 C 
BRANCH  39  40
HETATM   40  C   UNL     1      -2.172   4.756 -32.848  1.00  0.00    -0.034 A 
HETATM   41  C   UNL     1      -2.614   5.600 -33.879  1.00  0.00     0.009 A 
HETATM   42  C   UNL     1      -2.063   6.872 -34.043  1.00  0.00     0.001 A 
HETATM   43  C   UNL     1      -1.071   7.318 -33.172  1.00  0.00     0.000 A 
HETATM   44  C   UNL     1      -0.631   6.494 -32.138  1.00  0.00     0.001 A 
HETATM   45  C   UNL     1      -1.180   5.221 -31.973  1.00  0.00     0.009 A 
ENDBRANCH  39  40
ENDBRANCH  38  39
ENDBRANCH  15  38
TORSDOF 9
ENDMDL
MODEL 4
REMARK VINA RESULT:      -8.8      2.565      5.329
REMARK  9 active torsions:
REMARK  status: ('A' for Active; 'I' for Inactive)
REMARK       I    between atoms: C_2  and  N_3 
REMARK    1  A    between atoms: N_3  and  C_4 
REMARK    2  A    between atoms: C_7  and  O_8 
REMARK    3  A    between atoms: O_8  and  C_9 
REMARK    4  A    between atoms: C_9  and  C_10 
REMARK    5  A    between atoms: C_11  and  O_12 
REMARK    6  A    between atoms: C_16  and  C_17 
REMARK    7  A    between atoms: C_31  and  O_32 
REMARK    8  A    between atoms: O_32  and  C_33 
REMARK    9  A    between atoms: C_33  and  C_34 
ROOT
HETATM    1  C   UNL     1      -5.463   7.053 -29.360  1.00  0.00     0.269 C 
HETATM    2  N   UNL     1      -6.910   7.071 -28.925  1.00  0.00    -0.061 N 
HETATM    3  H   UNL     1      -7.482   7.147 -29.771  1.00  0.00     0.278 HD
HETATM    4  H   UNL     1      -7.070   7.916 -28.367  1.00  0.00     0.278 HD
HETATM    5  C   UNL     1      -7.356   5.853 -28.148  1.00  0.00     0.238 C 
HETATM    6  C   UNL     1      -7.221   4.574 -28.993  1.00  0.00     0.069 C 
HETATM    7  C   UNL     1      -5.917   4.555 -29.714  1.00  0.00    -0.019 A 
HETATM    8  C   UNL     1      -5.150   5.693 -29.880  1.00  0.00     0.052 A 
HETATM    9  N   UNL     1      -4.031   5.352 -30.594  1.00  0.00    -0.356 N 
HETATM   10  H   UNL     1      -3.268   5.965 -30.857  1.00  0.00     0.166 HD
HETATM   11  C   UNL     1      -4.062   4.005 -30.885  1.00  0.00     0.043 A 
HETATM   12  C   UNL     1      -5.229   3.476 -30.329  1.00  0.00     0.002 A 
HETATM   13  C   UNL     1      -3.145   3.224 -31.593  1.00  0.00     0.033 A 
HETATM   14  C   UNL     1      -3.418   1.857 -31.708  1.00  0.00     0.039 A 
HETATM   15  C   UNL     1      -4.553   1.290 -31.130  1.00  0.00     0.070 A 
HETATM   16  C   UNL     1      -5.484   2.095 -30.465  1.00  0.00     0.051 A 
ENDROOT
BRANCH   1  17
HETATM   17  C   UNL     1      -4.558   7.551 -28.248  1.00  0.00    -0.021 A 
HETATM   18  C   UNL     1      -5.000   8.591 -27.415  1.00  0.00     0.012 A 
HETATM   19  C   UNL     1      -4.228   9.020 -26.329  1.00  0.00     0.038 A 
HETATM   20  C   UNL     1      -2.998   8.423 -26.049  1.00  0.00     0.076 A 
HETATM   21  C   UNL     1      -2.521   7.395 -26.881  1.00  0.00    -0.000 A 
HETATM   22  C   UNL     1      -3.315   6.962 -27.963  1.00  0.00     0.021 A 
BRANCH  20  23
HETATM   23  O   UNL     1      -2.203   8.748 -24.984  1.00  0.00    -0.355 OA
HETATM   24  C   UNL     1      -2.741   8.592 -23.676  1.00  0.00     0.210 C 
ENDBRANCH  20  23
BRANCH  21  25
HETATM   25  C   UNL     1      -1.204   6.698 -26.586  1.00  0.00     0.217 C 
BRANCH  25  26
HETATM   26  O   UNL     1      -0.180   7.220 -27.442  1.00  0.00    -0.347 OA
BRANCH  26  27
HETATM   27  C   UNL     1      -0.329   6.948 -28.775  1.00  0.00     0.069 A 
HETATM   28  C   UNL     1      -0.073   5.629 -29.150  1.00  0.00     0.039 A 
HETATM   29  C   UNL     1      -0.199   5.231 -30.486  1.00  0.00     0.032 A 
HETATM   30  C   UNL     1      -0.568   6.152 -31.473  1.00  0.00     0.034 A 
HETATM   31  C   UNL     1      -0.806   7.474 -31.095  1.00  0.00     0.032 A 
HETATM   32  C   UNL     1      -0.687   7.870 -29.756  1.00  0.00     0.039 A 
BRANCH  30  33
HETATM   33  N   UNL     1      -0.678   5.679 -32.796  1.00  0.00    -0.328 N 
HETATM   34  C   UNL     1      -1.773   5.782 -33.638  1.00  0.00     0.218 C 
HETATM   35  C   UNL     1      -1.519   5.139 -34.978  1.00  0.00     0.117 C 
HETATM   36  O   UNL     1      -2.851   6.306 -33.384  1.00  0.00    -0.274 OA
HETATM   37  H   UNL     1       0.135   5.207 -33.171  1.00  0.00     0.169 HD
ENDBRANCH  30  33
ENDBRANCH  26  27
ENDBRANCH  25  26
ENDBRANCH  21  25
ENDBRANCH   1  17
BRANCH  15  38
HETATM   38  O   UNL     1      -4.666  -0.065 -31.292  1.00  0.00    -0.347 OA
BRANCH  38  39
HETATM   39  C   UNL     1      -3.943  -0.628 -32.390  1.00  0.00     0.214 C 
BRANCH  39  40
HETATM   40  C   UNL     1      -4.882  -1.439 -33.250  1.00  0.00    -0.034 A 
HETATM   41  C   UNL     1      -4.426  -2.587 -33.916  1.00  0.00     0.009 A 
HETATM   42  C   UNL     1      -5.304  -3.369 -34.668  1.00  0.00     0.001 A 
HETATM   43  C   UNL     1      -6.649  -3.017 -34.755  1.00  0.00     0.000 A 
HETATM   44  C   UNL     1      -7.117  -1.886 -34.090  1.00  0.00     0.001 A 
HETATM   45  C   UNL     1      -6.240  -1.101 -33.338  1.00  0.00     0.009 A 
ENDBRANCH  39  40
ENDBRANCH  38  39
ENDBRANCH  15  38
TORSDOF 9
ENDMDL
MODEL 5
REMARK VINA RESULT:      -8.7      2.575      3.852
REMARK  9 active torsions:
REMARK  status: ('A' for Active; 'I' for Inactive)
REMARK       I    between atoms: C_2  and  N_3 
REMARK    1  A    between atoms: N_3  and  C_4 
REMARK    2  A    between atoms: C_7  and  O_8 
REMARK    3  A    between atoms: O_8  and  C_9 
REMARK    4  A    between atoms: C_9  and  C_10 
REMARK    5  A    between atoms: C_11  and  O_12 
REMARK    6  A    between atoms: C_16  and  C_17 
REMARK    7  A    between atoms: C_31  and  O_32 
REMARK    8  A    between atoms: O_32  and  C_33 
REMARK    9  A    between atoms: C_33  and  C_34 
ROOT
HETATM    1  C   UNL     1      -0.554   5.798 -31.561  1.00  0.00     0.269 C 
HETATM    2  N   UNL     1      -0.237   6.712 -32.721  1.00  0.00    -0.061 N 
HETATM    3  H   UNL     1       0.182   6.136 -33.457  1.00  0.00     0.278 HD
HETATM    4  H   UNL     1       0.472   7.388 -32.416  1.00  0.00     0.278 HD
HETATM    5  C   UNL     1      -1.426   7.444 -33.299  1.00  0.00     0.238 C 
HETATM    6  C   UNL     1      -2.469   6.459 -33.856  1.00  0.00     0.069 C 
HETATM    7  C   UNL     1      -2.684   5.329 -32.909  1.00  0.00    -0.019 A 
HETATM    8  C   UNL     1      -1.795   5.042 -31.889  1.00  0.00     0.052 A 
HETATM    9  N   UNL     1      -2.262   3.945 -31.213  1.00  0.00    -0.356 N 
HETATM   10  H   UNL     1      -1.840   3.506 -30.403  1.00  0.00     0.166 HD
HETATM   11  C   UNL     1      -3.446   3.524 -31.779  1.00  0.00     0.043 A 
HETATM   12  C   UNL     1      -3.744   4.387 -32.836  1.00  0.00     0.002 A 
HETATM   13  C   UNL     1      -4.270   2.452 -31.429  1.00  0.00     0.033 A 
HETATM   14  C   UNL     1      -5.446   2.277 -32.165  1.00  0.00     0.039 A 
HETATM   15  C   UNL     1      -5.794   3.144 -33.201  1.00  0.00     0.070 A 
HETATM   16  C   UNL     1      -4.933   4.186 -33.567  1.00  0.00     0.051 A 
ENDROOT
BRANCH   1  17
HETATM   17  C   UNL     1      -0.589   6.572 -30.255  1.00  0.00    -0.021 A 
HETATM   18  C   UNL     1       0.597   7.136 -29.759  1.00  0.00     0.012 A 
HETATM   19  C   UNL     1       0.589   7.925 -28.602  1.00  0.00     0.038 A 
HETATM   20  C   UNL     1      -0.601   8.171 -27.916  1.00  0.00     0.076 A 
HETATM   21  C   UNL     1      -1.799   7.599 -28.379  1.00  0.00    -0.000 A 
HETATM   22  C   UNL     1      -1.780   6.819 -29.553  1.00  0.00     0.021 A 
BRANCH  20  23
HETATM   23  O   UNL     1      -0.707   8.966 -26.807  1.00  0.00    -0.355 OA
HETATM   24  C   UNL     1       0.228   8.769 -25.753  1.00  0.00     0.210 C 
ENDBRANCH  20  23
BRANCH  21  25
HETATM   25  C   UNL     1      -3.118   7.874 -27.677  1.00  0.00     0.217 C 
BRANCH  25  26
HETATM   26  O   UNL     1      -4.133   8.152 -28.650  1.00  0.00    -0.347 OA
BRANCH  26  27
HETATM   27  C   UNL     1      -5.041   7.149 -28.859  1.00  0.00     0.069 A 
HETATM   28  C   UNL     1      -5.249   6.798 -30.193  1.00  0.00     0.039 A 
HETATM   29  C   UNL     1      -6.151   5.781 -30.530  1.00  0.00     0.032 A 
HETATM   30  C   UNL     1      -6.872   5.109 -29.536  1.00  0.00     0.034 A 
HETATM   31  C   UNL     1      -6.673   5.477 -28.204  1.00  0.00     0.032 A 
HETATM   32  C   UNL     1      -5.764   6.489 -27.868  1.00  0.00     0.039 A 
BRANCH  30  33
HETATM   33  N   UNL     1      -7.760   4.095 -29.948  1.00  0.00    -0.328 N 
HETATM   34  C   UNL     1      -9.097   4.231 -30.277  1.00  0.00     0.218 C 
HETATM   35  C   UNL     1      -9.725   2.913 -30.654  1.00  0.00     0.117 C 
HETATM   36  O   UNL     1      -9.756   5.265 -30.271  1.00  0.00    -0.274 OA
HETATM   37  H   UNL     1      -7.375   3.160 -30.004  1.00  0.00     0.169 HD
ENDBRANCH  30  33
ENDBRANCH  26  27
ENDBRANCH  25  26
ENDBRANCH  21  25
ENDBRANCH   1  17
BRANCH  15  38
HETATM   38  O   UNL     1      -6.991   2.871 -33.804  1.00  0.00    -0.347 OA
BRANCH  38  39
HETATM   39  C   UNL     1      -7.230   1.500 -34.133  1.00  0.00     0.214 C 
BRANCH  39  40
HETATM   40  C   UNL     1      -8.665   1.148 -33.820  1.00  0.00    -0.034 A 
HETATM   41  C   UNL     1      -9.718   1.889 -34.378  1.00  0.00     0.009 A 
HETATM   42  C   UNL     1     -11.046   1.533 -34.134  1.00  0.00     0.001 A 
HETATM   43  C   UNL     1     -11.334   0.426 -33.338  1.00  0.00     0.000 A 
HETATM   44  C   UNL     1     -10.298  -0.324 -32.787  1.00  0.00     0.001 A 
HETATM   45  C   UNL     1      -8.969   0.031 -33.029  1.00  0.00     0.009 A 
ENDBRANCH  39  40
ENDBRANCH  38  39
ENDBRANCH  15  38
TORSDOF 9
ENDMDL
MODEL 6
REMARK VINA RESULT:      -8.7      2.341      3.748
REMARK  9 active torsions:
REMARK  status: ('A' for Active; 'I' for Inactive)
REMARK       I    between atoms: C_2  and  N_3 
REMARK    1  A    between atoms: N_3  and  C_4 
REMARK    2  A    between atoms: C_7  and  O_8 
REMARK    3  A    between atoms: O_8  and  C_9 
REMARK    4  A    between atoms: C_9  and  C_10 
REMARK    5  A    between atoms: C_11  and  O_12 
REMARK    6  A    between atoms: C_16  and  C_17 
REMARK    7  A    between atoms: C_31  and  O_32 
REMARK    8  A    between atoms: O_32  and  C_33 
REMARK    9  A    between atoms: C_33  and  C_34 
ROOT
HETATM    1  C   UNL     1      -6.467   4.364 -29.307  1.00  0.00     0.269 C 
HETATM    2  N   UNL     1      -5.006   4.683 -29.532  1.00  0.00    -0.061 N 
HETATM    3  H   UNL     1      -4.460   3.955 -29.062  1.00  0.00     0.278 HD
HETATM    4  H   UNL     1      -4.796   5.574 -29.072  1.00  0.00     0.278 HD
HETATM    5  C   UNL     1      -4.584   4.743 -30.982  1.00  0.00     0.238 C 
HETATM    6  C   UNL     1      -4.797   3.388 -31.681  1.00  0.00     0.069 C 
HETATM    7  C   UNL     1      -6.123   2.813 -31.320  1.00  0.00    -0.019 A 
HETATM    8  C   UNL     1      -6.850   3.262 -30.232  1.00  0.00     0.052 A 
HETATM    9  N   UNL     1      -8.004   2.526 -30.159  1.00  0.00    -0.356 N 
HETATM   10  H   UNL     1      -8.751   2.633 -29.481  1.00  0.00     0.166 HD
HETATM   11  C   UNL     1      -8.035   1.612 -31.190  1.00  0.00     0.043 A 
HETATM   12  C   UNL     1      -6.873   1.783 -31.946  1.00  0.00     0.002 A 
HETATM   13  C   UNL     1      -9.005   0.657 -31.508  1.00  0.00     0.033 A 
HETATM   14  C   UNL     1      -8.790  -0.123 -32.647  1.00  0.00     0.039 A 
HETATM   15  C   UNL     1      -7.660   0.048 -33.446  1.00  0.00     0.070 A 
HETATM   16  C   UNL     1      -6.677   0.978 -33.087  1.00  0.00     0.051 A 
ENDROOT
BRANCH   1  17
HETATM   17  C   UNL     1      -7.315   5.619 -29.401  1.00  0.00    -0.021 A 
HETATM   18  C   UNL     1      -7.247   6.574 -28.374  1.00  0.00     0.012 A 
HETATM   19  C   UNL     1      -7.952   7.780 -28.466  1.00  0.00     0.038 A 
HETATM   20  C   UNL     1      -8.739   8.062 -29.583  1.00  0.00     0.076 A 
HETATM   21  C   UNL     1      -8.843   7.114 -30.615  1.00  0.00    -0.000 A 
HETATM   22  C   UNL     1      -8.117   5.909 -30.518  1.00  0.00     0.021 A 
BRANCH  20  23
HETATM   23  O   UNL     1      -9.422   9.233 -29.775  1.00  0.00    -0.355 OA
HETATM   24  C   UNL     1     -10.222   9.721 -28.705  1.00  0.00     0.210 C 
ENDBRANCH  20  23
BRANCH  21  25
HETATM   25  C   UNL     1      -9.662   7.402 -31.862  1.00  0.00     0.217 C 
BRANCH  25  26
HETATM   26  O   UNL     1      -9.196   6.586 -32.944  1.00  0.00    -0.347 OA
BRANCH  26  27
HETATM   27  C   UNL     1      -9.832   5.383 -33.093  1.00  0.00     0.069 A 
HETATM   28  C   UNL     1     -11.095   5.296 -32.507  1.00  0.00     0.039 A 
HETATM   29  C   UNL     1     -11.843   4.115 -32.598  1.00  0.00     0.032 A 
HETATM   30  C   UNL     1     -11.331   2.997 -33.264  1.00  0.00     0.034 A 
HETATM   31  C   UNL     1     -10.060   3.083 -33.833  1.00  0.00     0.032 A 
HETATM   32  C   UNL     1      -9.315   4.267 -33.748  1.00  0.00     0.039 A 
BRANCH  30  33
HETATM   33  N   UNL     1     -12.141   1.844 -33.318  1.00  0.00    -0.328 N 
HETATM   34  C   UNL     1     -12.890   1.393 -34.391  1.00  0.00     0.218 C 
HETATM   35  C   UNL     1     -13.644   0.128 -34.064  1.00  0.00     0.117 C 
HETATM   36  O   UNL     1     -12.985   1.916 -35.496  1.00  0.00    -0.274 OA
HETATM   37  H   UNL     1     -12.182   1.287 -32.474  1.00  0.00     0.169 HD
ENDBRANCH  30  33
ENDBRANCH  26  27
ENDBRANCH  25  26
ENDBRANCH  21  25
ENDBRANCH   1  17
BRANCH  15  38
HETATM   38  O   UNL     1      -7.606  -0.760 -34.549  1.00  0.00    -0.347 OA
BRANCH  38  39
HETATM   39  C   UNL     1      -6.308  -0.960 -35.117  1.00  0.00     0.214 C 
BRANCH  39  40
HETATM   40  C   UNL     1      -5.835  -2.361 -34.814  1.00  0.00    -0.034 A 
HETATM   41  C   UNL     1      -6.667  -3.464 -35.064  1.00  0.00     0.009 A 
HETATM   42  C   UNL     1      -6.212  -4.764 -34.835  1.00  0.00     0.001 A 
HETATM   43  C   UNL     1      -4.918  -4.976 -34.365  1.00  0.00     0.000 A 
HETATM   44  C   UNL     1      -4.079  -3.891 -34.123  1.00  0.00     0.001 A 
HETATM   45  C   UNL     1      -4.532  -2.589 -34.350  1.00  0.00     0.009 A 
ENDBRANCH  39  40
ENDBRANCH  38  39
ENDBRANCH  15  38
TORSDOF 9
ENDMDL
MODEL 7
REMARK VINA RESULT:      -8.6      1.958      3.320
REMARK  9 active torsions:
REMARK  status: ('A' for Active; 'I' for Inactive)
REMARK       I    between atoms: C_2  and  N_3 
REMARK    1  A    between atoms: N_3  and  C_4 
REMARK    2  A    between atoms: C_7  and  O_8 
REMARK    3  A    between atoms: O_8  and  C_9 
REMARK    4  A    between atoms: C_9  and  C_10 
REMARK    5  A    between atoms: C_11  and  O_12 
REMARK    6  A    between atoms: C_16  and  C_17 
REMARK    7  A    between atoms: C_31  and  O_32 
REMARK    8  A    between atoms: O_32  and  C_33 
REMARK    9  A    between atoms: C_33  and  C_34 
ROOT
HETATM    1  C   UNL     1      -1.710   4.822 -31.985  1.00  0.00     0.269 C 
HETATM    2  N   UNL     1      -1.639   5.411 -33.375  1.00  0.00    -0.061 N 
HETATM    3  H   UNL     1      -1.449   4.641 -34.023  1.00  0.00     0.278 HD
HETATM    4  H   UNL     1      -0.840   6.052 -33.414  1.00  0.00     0.278 HD
HETATM    5  C   UNL     1      -2.891   6.126 -33.828  1.00  0.00     0.238 C 
HETATM    6  C   UNL     1      -4.094   5.167 -33.875  1.00  0.00     0.069 C 
HETATM    7  C   UNL     1      -4.131   4.310 -32.656  1.00  0.00    -0.019 A 
HETATM    8  C   UNL     1      -3.034   4.159 -31.827  1.00  0.00     0.052 A 
HETATM    9  N   UNL     1      -3.380   3.302 -30.815  1.00  0.00    -0.356 N 
HETATM   10  H   UNL     1      -2.796   3.011 -30.040  1.00  0.00     0.166 HD
HETATM   11  C   UNL     1      -4.690   2.903 -30.975  1.00  0.00     0.043 A 
HETATM   12  C   UNL     1      -5.191   3.536 -32.115  1.00  0.00     0.002 A 
HETATM   13  C   UNL     1      -5.461   2.037 -30.196  1.00  0.00     0.033 A 
HETATM   14  C   UNL     1      -6.790   1.838 -30.578  1.00  0.00     0.039 A 
HETATM   15  C   UNL     1      -7.334   2.485 -31.688  1.00  0.00     0.070 A 
HETATM   16  C   UNL     1      -6.534   3.312 -32.484  1.00  0.00     0.051 A 
ENDROOT
BRANCH   1  17
HETATM   17  C   UNL     1      -1.376   5.868 -30.936  1.00  0.00    -0.021 A 
HETATM   18  C   UNL     1      -0.041   6.267 -30.765  1.00  0.00     0.012 A 
HETATM   19  C   UNL     1       0.295   7.287 -29.866  1.00  0.00     0.038 A 
HETATM   20  C   UNL     1      -0.692   7.932 -29.119  1.00  0.00     0.076 A 
HETATM   21  C   UNL     1      -2.034   7.536 -29.255  1.00  0.00    -0.000 A 
HETATM   22  C   UNL     1      -2.361   6.518 -30.174  1.00  0.00     0.021 A 
BRANCH  20  23
HETATM   23  O   UNL     1      -0.458   8.967 -28.255  1.00  0.00    -0.355 OA
HETATM   24  C   UNL     1       0.647   8.858 -27.366  1.00  0.00     0.210 C 
ENDBRANCH  20  23
BRANCH  21  25
HETATM   25  C   UNL     1      -3.138   8.240 -28.485  1.00  0.00     0.217 C 
BRANCH  25  26
HETATM   26  O   UNL     1      -3.786   7.307 -27.610  1.00  0.00    -0.347 OA
BRANCH  26  27
HETATM   27  C   UNL     1      -5.025   6.886 -28.009  1.00  0.00     0.069 A 
HETATM   28  C   UNL     1      -6.016   7.868 -28.025  1.00  0.00     0.039 A 
HETATM   29  C   UNL     1      -7.322   7.556 -28.421  1.00  0.00     0.032 A 
HETATM   30  C   UNL     1      -7.662   6.251 -28.793  1.00  0.00     0.034 A 
HETATM   31  C   UNL     1      -6.672   5.268 -28.759  1.00  0.00     0.032 A 
HETATM   32  C   UNL     1      -5.363   5.582 -28.370  1.00  0.00     0.039 A 
BRANCH  30  33
HETATM   33  N   UNL     1      -8.995   6.011 -29.183  1.00  0.00    -0.328 N 
HETATM   34  C   UNL     1      -9.473   5.816 -30.468  1.00  0.00     0.218 C 
HETATM   35  C   UNL     1     -10.967   5.606 -30.491  1.00  0.00     0.117 C 
HETATM   36  O   UNL     1      -8.820   5.815 -31.505  1.00  0.00    -0.274 OA
HETATM   37  H   UNL     1      -9.680   5.984 -28.438  1.00  0.00     0.169 HD
ENDBRANCH  30  33
ENDBRANCH  26  27
ENDBRANCH  25  26
ENDBRANCH  21  25
ENDBRANCH   1  17
BRANCH  15  38
HETATM   38  O   UNL     1      -8.658   2.222 -31.917  1.00  0.00    -0.347 OA
BRANCH  38  39
HETATM   39  C   UNL     1      -9.024   0.840 -31.969  1.00  0.00     0.214 C 
BRANCH  39  40
HETATM   40  C   UNL     1      -8.266   0.159 -33.084  1.00  0.00    -0.034 A 
HETATM   41  C   UNL     1      -8.425   0.579 -34.414  1.00  0.00     0.009 A 
HETATM   42  C   UNL     1      -7.685  -0.012 -35.439  1.00  0.00     0.001 A 
HETATM   43  C   UNL     1      -6.772  -1.023 -35.145  1.00  0.00     0.000 A 
HETATM   44  C   UNL     1      -6.597  -1.441 -33.828  1.00  0.00     0.001 A 
HETATM   45  C   UNL     1      -7.337  -0.852 -32.800  1.00  0.00     0.009 A 
ENDBRANCH  39  40
ENDBRANCH  38  39
ENDBRANCH  15  38
TORSDOF 9
ENDMDL
MODEL 8
REMARK VINA RESULT:      -8.6      2.891      6.466
REMARK  9 active torsions:
REMARK  status: ('A' for Active; 'I' for Inactive)
REMARK       I    between atoms: C_2  and  N_3 
REMARK    1  A    between atoms: N_3  and  C_4 
REMARK    2  A    between atoms: C_7  and  O_8 
REMARK    3  A    between atoms: O_8  and  C_9 
REMARK    4  A    between atoms: C_9  and  C_10 
REMARK    5  A    between atoms: C_11  and  O_12 
REMARK    6  A    between atoms: C_16  and  C_17 
REMARK    7  A    between atoms: C_31  and  O_32 
REMARK    8  A    between atoms: O_32  and  C_33 
REMARK    9  A    between atoms: C_33  and  C_34 
ROOT
HETATM    1  C   UNL     1     -12.128   3.157 -34.919  1.00  0.00     0.269 C 
HETATM    2  N   UNL     1     -13.262   2.164 -34.800  1.00  0.00    -0.061 N 
HETATM    3  H   UNL     1     -13.240   1.576 -35.638  1.00  0.00     0.278 HD
HETATM    4  H   UNL     1     -14.147   2.682 -34.809  1.00  0.00     0.278 HD
HETATM    5  C   UNL     1     -13.201   1.273 -33.581  1.00  0.00     0.238 C 
HETATM    6  C   UNL     1     -11.929   0.407 -33.587  1.00  0.00     0.069 C 
HETATM    7  C   UNL     1     -10.741   1.223 -33.966  1.00  0.00    -0.019 A 
HETATM    8  C   UNL     1     -10.858   2.456 -34.582  1.00  0.00     0.052 A 
HETATM    9  N   UNL     1      -9.596   2.937 -34.815  1.00  0.00    -0.356 N 
HETATM   10  H   UNL     1      -9.354   3.827 -35.235  1.00  0.00     0.166 HD
HETATM   11  C   UNL     1      -8.664   2.034 -34.350  1.00  0.00     0.043 A 
HETATM   12  C   UNL     1      -9.356   0.954 -33.796  1.00  0.00     0.002 A 
HETATM   13  C   UNL     1      -7.269   2.098 -34.378  1.00  0.00     0.033 A 
HETATM   14  C   UNL     1      -6.565   1.040 -33.795  1.00  0.00     0.039 A 
HETATM   15  C   UNL     1      -7.225  -0.034 -33.198  1.00  0.00     0.070 A 
HETATM   16  C   UNL     1      -8.622  -0.103 -33.221  1.00  0.00     0.051 A 
ENDROOT
BRANCH   1  17
HETATM   17  C   UNL     1     -12.417   4.408 -34.109  1.00  0.00    -0.021 A 
HETATM   18  C   UNL     1     -13.393   5.310 -34.562  1.00  0.00     0.012 A 
HETATM   19  C   UNL     1     -13.744   6.431 -33.801  1.00  0.00     0.038 A 
HETATM   20  C   UNL     1     -13.131   6.678 -32.571  1.00  0.00     0.076 A 
HETATM   21  C   UNL     1     -12.135   5.803 -32.105  1.00  0.00    -0.000 A 
HETATM   22  C   UNL     1     -11.800   4.669 -32.874  1.00  0.00     0.021 A 
BRANCH  20  23
HETATM   23  O   UNL     1     -13.447   7.721 -31.743  1.00  0.00    -0.355 OA
HETATM   24  C   UNL     1     -14.796   7.848 -31.313  1.00  0.00     0.210 C 
ENDBRANCH  20  23
BRANCH  21  25
HETATM   25  C   UNL     1     -11.472   6.021 -30.756  1.00  0.00     0.217 C 
BRANCH  25  26
HETATM   26  O   UNL     1     -11.037   4.763 -30.223  1.00  0.00    -0.347 OA
BRANCH  26  27
HETATM   27  C   UNL     1      -9.688   4.536 -30.274  1.00  0.00     0.069 A 
HETATM   28  C   UNL     1      -9.311   3.255 -30.680  1.00  0.00     0.039 A 
HETATM   29  C   UNL     1      -7.958   2.908 -30.774  1.00  0.00     0.032 A 
HETATM   30  C   UNL     1      -6.959   3.833 -30.449  1.00  0.00     0.034 A 
HETATM   31  C   UNL     1      -7.342   5.107 -30.027  1.00  0.00     0.032 A 
HETATM   32  C   UNL     1      -8.697   5.456 -29.939  1.00  0.00     0.039 A 
BRANCH  30  33
HETATM   33  N   UNL     1      -5.619   3.415 -30.571  1.00  0.00    -0.328 N 
HETATM   34  C   UNL     1      -4.780   3.587 -31.659  1.00  0.00     0.218 C 
HETATM   35  C   UNL     1      -3.417   2.985 -31.424  1.00  0.00     0.117 C 
HETATM   36  O   UNL     1      -5.051   4.139 -32.719  1.00  0.00    -0.274 OA
HETATM   37  H   UNL     1      -5.229   2.928 -29.774  1.00  0.00     0.169 HD
ENDBRANCH  30  33
ENDBRANCH  26  27
ENDBRANCH  25  26
ENDBRANCH  21  25
ENDBRANCH   1  17
BRANCH  15  38
HETATM   38  O   UNL     1      -6.405  -0.974 -32.635  1.00  0.00    -0.347 OA
BRANCH  38  39
HETATM   39  C   UNL     1      -5.167  -1.213 -33.312  1.00  0.00     0.214 C 
BRANCH  39  40
HETATM   40  C   UNL     1      -5.178  -2.600 -33.908  1.00  0.00    -0.034 A 
HETATM   41  C   UNL     1      -4.148  -3.508 -33.620  1.00  0.00     0.009 A 
HETATM   42  C   UNL     1      -4.184  -4.809 -34.126  1.00  0.00     0.001 A 
HETATM   43  C   UNL     1      -5.254  -5.217 -34.919  1.00  0.00     0.000 A 
HETATM   44  C   UNL     1      -6.288  -4.329 -35.204  1.00  0.00     0.001 A 
HETATM   45  C   UNL     1      -6.254  -3.027 -34.700  1.00  0.00     0.009 A 
ENDBRANCH  39  40
ENDBRANCH  38  39
ENDBRANCH  15  38
TORSDOF 9
ENDMDL
MODEL 9
REMARK VINA RESULT:      -8.6      3.800      7.479
REMARK  9 active torsions:
REMARK  status: ('A' for Active; 'I' for Inactive)
REMARK       I    between atoms: C_2  and  N_3 
REMARK    1  A    between atoms: N_3  and  C_4 
REMARK    2  A    between atoms: C_7  and  O_8 
REMARK    3  A    between atoms: O_8  and  C_9 
REMARK    4  A    between atoms: C_9  and  C_10 
REMARK    5  A    between atoms: C_11  and  O_12 
REMARK    6  A    between atoms: C_16  and  C_17 
REMARK    7  A    between atoms: C_31  and  O_32 
REMARK    8  A    between atoms: O_32  and  C_33 
REMARK    9  A    between atoms: C_33  and  C_34 
ROOT
HETATM    1  C   UNL     1      -2.474   5.287 -31.657  1.00  0.00     0.269 C 
HETATM    2  N   UNL     1      -2.256   5.861 -33.038  1.00  0.00    -0.061 N 
HETATM    3  H   UNL     1      -1.536   5.292 -33.494  1.00  0.00     0.278 HD
HETATM    4  H   UNL     1      -1.882   6.810 -32.938  1.00  0.00     0.278 HD
HETATM    5  C   UNL     1      -3.484   5.884 -33.918  1.00  0.00     0.238 C 
HETATM    6  C   UNL     1      -4.016   4.462 -34.170  1.00  0.00     0.069 C 
HETATM    7  C   UNL     1      -4.026   3.673 -32.906  1.00  0.00    -0.019 A 
HETATM    8  C   UNL     1      -3.308   4.060 -31.789  1.00  0.00     0.052 A 
HETATM    9  N   UNL     1      -3.510   3.124 -30.808  1.00  0.00    -0.356 N 
HETATM   10  H   UNL     1      -3.133   3.140 -29.867  1.00  0.00     0.166 HD
HETATM   11  C   UNL     1      -4.356   2.142 -31.274  1.00  0.00     0.043 A 
HETATM   12  C   UNL     1      -4.711   2.471 -32.585  1.00  0.00     0.002 A 
HETATM   13  C   UNL     1      -4.833   0.996 -30.632  1.00  0.00     0.033 A 
HETATM   14  C   UNL     1      -5.720   0.182 -31.342  1.00  0.00     0.039 A 
HETATM   15  C   UNL     1      -6.125   0.502 -32.638  1.00  0.00     0.070 A 
HETATM   16  C   UNL     1      -5.601   1.629 -33.282  1.00  0.00     0.051 A 
ENDROOT
BRANCH   1  17
HETATM   17  C   UNL     1      -3.014   6.344 -30.710  1.00  0.00    -0.021 A 
HETATM   18  C   UNL     1      -4.402   6.484 -30.556  1.00  0.00     0.012 A 
HETATM   19  C   UNL     1      -4.935   7.391 -29.633  1.00  0.00     0.038 A 
HETATM   20  C   UNL     1      -4.096   8.178 -28.841  1.00  0.00     0.076 A 
HETATM   21  C   UNL     1      -2.703   8.073 -28.992  1.00  0.00    -0.000 A 
HETATM   22  C   UNL     1      -2.178   7.146 -29.915  1.00  0.00     0.021 A 
BRANCH  20  23
HETATM   23  O   UNL     1      -4.531   9.053 -27.883  1.00  0.00    -0.355 OA
HETATM   24  C   UNL     1      -5.481   8.585 -26.933  1.00  0.00     0.210 C 
ENDBRANCH  20  23
BRANCH  21  25
HETATM   25  C   UNL     1      -1.760   8.887 -28.123  1.00  0.00     0.217 C 
BRANCH  25  26
HETATM   26  O   UNL     1      -0.877   8.008 -27.414  1.00  0.00    -0.347 OA
BRANCH  26  27
HETATM   27  C   UNL     1       0.116   8.620 -26.697  1.00  0.00     0.069 A 
HETATM   28  C   UNL     1       1.222   7.823 -26.403  1.00  0.00     0.039 A 
HETATM   29  C   UNL     1       2.302   8.342 -25.679  1.00  0.00     0.032 A 
HETATM   30  C   UNL     1       2.285   9.665 -25.224  1.00  0.00     0.034 A 
HETATM   31  C   UNL     1       1.169  10.454 -25.506  1.00  0.00     0.032 A 
HETATM   32  C   UNL     1       0.091   9.936 -26.237  1.00  0.00     0.039 A 
BRANCH  30  33
HETATM   33  N   UNL     1       3.408  10.121 -24.504  1.00  0.00    -0.328 N 
HETATM   34  C   UNL     1       3.699   9.897 -23.169  1.00  0.00     0.218 C 
HETATM   35  C   UNL     1       4.985  10.563 -22.750  1.00  0.00     0.117 C 
HETATM   36  O   UNL     1       3.029   9.257 -22.366  1.00  0.00    -0.274 OA
HETATM   37  H   UNL     1       4.074  10.680 -25.022  1.00  0.00     0.169 HD
ENDBRANCH  30  33
ENDBRANCH  26  27
ENDBRANCH  25  26
ENDBRANCH  21  25
ENDBRANCH   1  17
BRANCH  15  38
HETATM   38  O   UNL     1      -7.025  -0.367 -33.192  1.00  0.00    -0.347 OA
BRANCH  38  39
HETATM   39  C   UNL     1      -6.730  -0.816 -34.518  1.00  0.00     0.214 C 
BRANCH  39  40
HETATM   40  C   UNL     1      -6.122  -2.196 -34.460  1.00  0.00    -0.034 A 
HETATM   41  C   UNL     1      -6.881  -3.324 -34.807  1.00  0.00     0.009 A 
HETATM   42  C   UNL     1      -6.306  -4.596 -34.806  1.00  0.00     0.001 A 
HETATM   43  C   UNL     1      -4.964  -4.753 -34.468  1.00  0.00     0.000 A 
HETATM   44  C   UNL     1      -4.196  -3.640 -34.131  1.00  0.00     0.001 A 
HETATM   45  C   UNL     1      -4.770  -2.367 -34.130  1.00  0.00     0.009 A 
ENDBRANCH  39  40
ENDBRANCH  38  39
ENDBRANCH  15  38
TORSDOF 9
ENDMDL
MODEL 10
REMARK VINA RESULT:      -8.5      2.030      3.028
REMARK  9 active torsions:
REMARK  status: ('A' for Active; 'I' for Inactive)
REMARK       I    between atoms: C_2  and  N_3 
REMARK    1  A    between atoms: N_3  and  C_4 
REMARK    2  A    between atoms: C_7  and  O_8 
REMARK    3  A    between atoms: O_8  and  C_9 
REMARK    4  A    between atoms: C_9  and  C_10 
REMARK    5  A    between atoms: C_11  and  O_12 
REMARK    6  A    between atoms: C_16  and  C_17 
REMARK    7  A    between atoms: C_31  and  O_32 
REMARK    8  A    between atoms: O_32  and  C_33 
REMARK    9  A    between atoms: C_33  and  C_34 
ROOT
HETATM    1  C   UNL     1      -5.124   6.116 -29.492  1.00  0.00     0.269 C 
HETATM    2  N   UNL     1      -4.377   6.976 -30.487  1.00  0.00    -0.061 N 
HETATM    3  H   UNL     1      -3.378   6.781 -30.368  1.00  0.00     0.278 HD
HETATM    4  H   UNL     1      -4.531   7.960 -30.243  1.00  0.00     0.278 HD
HETATM    5  C   UNL     1      -4.747   6.742 -31.933  1.00  0.00     0.238 C 
HETATM    6  C   UNL     1      -4.436   5.296 -32.361  1.00  0.00     0.069 C 
HETATM    7  C   UNL     1      -4.885   4.332 -31.317  1.00  0.00    -0.019 A 
HETATM    8  C   UNL     1      -5.174   4.726 -30.024  1.00  0.00     0.052 A 
HETATM    9  N   UNL     1      -5.537   3.613 -29.310  1.00  0.00    -0.356 N 
HETATM   10  H   UNL     1      -5.826   3.582 -28.339  1.00  0.00     0.166 HD
HETATM   11  C   UNL     1      -5.493   2.506 -30.129  1.00  0.00     0.043 A 
HETATM   12  C   UNL     1      -5.103   2.931 -31.401  1.00  0.00     0.002 A 
HETATM   13  C   UNL     1      -5.773   1.168 -29.837  1.00  0.00     0.033 A 
HETATM   14  C   UNL     1      -5.679   0.247 -30.885  1.00  0.00     0.039 A 
HETATM   15  C   UNL     1      -5.331   0.645 -32.175  1.00  0.00     0.070 A 
HETATM   16  C   UNL     1      -5.009   1.981 -32.439  1.00  0.00     0.051 A 
ENDROOT
BRANCH   1  17
HETATM   17  C   UNL     1      -6.468   6.732 -29.148  1.00  0.00    -0.021 A 
HETATM   18  C   UNL     1      -6.549   7.663 -28.100  1.00  0.00     0.012 A 
HETATM   19  C   UNL     1      -7.754   8.313 -27.807  1.00  0.00     0.038 A 
HETATM   20  C   UNL     1      -8.906   8.049 -28.552  1.00  0.00     0.076 A 
HETATM   21  C   UNL     1      -8.856   7.103 -29.591  1.00  0.00    -0.000 A 
HETATM   22  C   UNL     1      -7.633   6.467 -29.886  1.00  0.00     0.021 A 
BRANCH  20  23
HETATM   23  O   UNL     1     -10.110   8.670 -28.364  1.00  0.00    -0.355 OA
HETATM   24  C   UNL     1     -10.152   9.795 -27.494  1.00  0.00     0.210 C 
ENDBRANCH  20  23
BRANCH  21  25
HETATM   25  C   UNL     1     -10.080   6.817 -30.445  1.00  0.00     0.217 C 
BRANCH  25  26
HETATM   26  O   UNL     1     -10.514   5.468 -30.229  1.00  0.00    -0.347 OA
BRANCH  26  27
HETATM   27  C   UNL     1      -9.951   4.528 -31.050  1.00  0.00     0.069 A 
HETATM   28  C   UNL     1      -9.969   4.834 -32.412  1.00  0.00     0.039 A 
HETATM   29  C   UNL     1      -9.417   3.950 -33.347  1.00  0.00     0.032 A 
HETATM   30  C   UNL     1      -8.852   2.738 -32.936  1.00  0.00     0.034 A 
HETATM   31  C   UNL     1      -8.852   2.430 -31.575  1.00  0.00     0.032 A 
HETATM   32  C   UNL     1      -9.398   3.318 -30.638  1.00  0.00     0.039 A 
BRANCH  30  33
HETATM   33  N   UNL     1      -8.312   1.900 -33.932  1.00  0.00    -0.328 N 
HETATM   34  C   UNL     1      -8.575   0.555 -34.132  1.00  0.00     0.218 C 
HETATM   35  C   UNL     1      -7.792  -0.008 -35.292  1.00  0.00     0.117 C 
HETATM   36  O   UNL     1      -9.329  -0.154 -33.477  1.00  0.00    -0.274 OA
HETATM   37  H   UNL     1      -7.654   2.330 -34.570  1.00  0.00     0.169 HD
ENDBRANCH  30  33
ENDBRANCH  26  27
ENDBRANCH  25  26
ENDBRANCH  21  25
ENDBRANCH   1  17
BRANCH  15  38
HETATM   38  O   UNL     1      -5.317  -0.361 -33.104  1.00  0.00    -0.347 OA
BRANCH  38  39
HETATM   39  C   UNL     1      -4.090  -1.085 -33.227  1.00  0.00     0.214 C 
BRANCH  39  40
HETATM   40  C   UNL     1      -4.377  -2.488 -33.704  1.00  0.00    -0.034 A 
HETATM   41  C   UNL     1      -3.614  -3.570 -33.238  1.00  0.00     0.009 A 
HETATM   42  C   UNL     1      -3.912  -4.874 -33.635  1.00  0.00     0.001 A 
HETATM   43  C   UNL     1      -4.983  -5.113 -34.494  1.00  0.00     0.000 A 
HETATM   44  C   UNL     1      -5.755  -4.049 -34.955  1.00  0.00     0.001 A 
HETATM   45  C   UNL     1      -5.458  -2.743 -34.560  1.00  0.00     0.009 A 
ENDBRANCH  39  40
ENDBRANCH  38  39
ENDBRANCH  15  38
TORSDOF 9
ENDMDL
