MODEL 1
REMARK VINA RESULT:      -8.7      0.000      0.000
REMARK  5 active torsions:
REMARK  status: ('A' for Active; 'I' for Inactive)
REMARK    1  A    between atoms: C_9  and  N_10 
REMARK       I    between atoms: N_10  and  C_11 
REMARK    2  A    between atoms: C_11  and  C_12 
REMARK    3  A    between atoms: C_14  and  C_15 
REMARK    4  A    between atoms: C_15  and  O_16 
REMARK    5  A    between atoms: O_16  and  C_17 
ROOT
HETATM    1  N   UNL     1      -8.139   1.561 -33.337  1.00  0.00    -0.321 N 
HETATM    2  C   UNL     1      -7.440   2.208 -32.326  1.00  0.00     0.279 C 
HETATM    3  O   UNL     1      -7.907   3.089 -31.612  1.00  0.00    -0.265 OA
HETATM    4  H   UNL     1      -7.595   0.969 -33.948  1.00  0.00     0.169 HD
ENDROOT
BRANCH   2   5
HETATM    5  C   UNL     1      -6.053   1.779 -32.220  1.00  0.00     0.143 A 
HETATM    6  O   UNL     1      -5.789   0.442 -32.341  1.00  0.00    -0.307 OA
HETATM    7  C   UNL     1      -4.448   0.262 -32.186  1.00  0.00     0.078 A 
HETATM    8  C   UNL     1      -3.833   1.480 -31.983  1.00  0.00     0.038 A 
HETATM    9  C   UNL     1      -4.863   2.454 -31.999  1.00  0.00     0.045 A 
BRANCH   7  10
HETATM   10  C   UNL     1      -3.959  -1.140 -32.239  1.00  0.00     0.240 C 
BRANCH  10  11
HETATM   11  O   UNL     1      -3.859  -1.496 -33.617  1.00  0.00    -0.345 OA
BRANCH  11  12
HETATM   12  C   UNL     1      -4.578  -2.593 -34.010  1.00  0.00     0.069 A 
HETATM   13  C   UNL     1      -4.108  -3.907 -34.053  1.00  0.00     0.037 A 
HETATM   14  C   UNL     1      -4.950  -4.940 -34.477  1.00  0.00     0.003 A 
HETATM   15  C   UNL     1      -6.261  -4.664 -34.862  1.00  0.00     0.000 A 
HETATM   16  C   UNL     1      -6.731  -3.353 -34.829  1.00  0.00     0.003 A 
HETATM   17  C   UNL     1      -5.890  -2.323 -34.407  1.00  0.00     0.037 A 
ENDBRANCH  11  12
ENDBRANCH  10  11
ENDBRANCH   7  10
ENDBRANCH   2   5
BRANCH   1  18
HETATM   18  C   UNL     1      -9.490   1.752 -33.707  1.00  0.00     0.037 A 
HETATM   19  C   UNL     1     -10.510   0.833 -33.428  1.00  0.00     0.063 A 
HETATM   20  C   UNL     1     -11.823   1.125 -33.833  1.00  0.00     0.087 A 
HETATM   21  N   UNL     1     -12.974   0.390 -33.679  1.00  0.00    -0.234 NA
HETATM   22  C   UNL     1     -12.085   2.317 -34.496  1.00  0.00     0.062 A 
HETATM   23  C   UNL     1     -13.933   1.108 -34.224  1.00  0.00     0.101 A 
HETATM   24  C   UNL     1     -15.368   0.753 -34.308  1.00  0.00     0.091 C 
HETATM   25  N   UNL     1     -13.437   2.286 -34.726  1.00  0.00    -0.343 N 
HETATM   26  H   UNL     1     -13.976   3.004 -35.186  1.00  0.00     0.167 HD
HETATM   27  C   UNL     1     -11.099   3.253 -34.800  1.00  0.00     0.034 A 
HETATM   28  C   UNL     1      -9.793   2.938 -34.396  1.00  0.00     0.032 A 
ENDBRANCH   1  18
TORSDOF 5
ENDMDL
MODEL 2
REMARK VINA RESULT:      -8.6      4.113      7.873
REMARK  5 active torsions:
REMARK  status: ('A' for Active; 'I' for Inactive)
REMARK    1  A    between atoms: C_9  and  N_10 
REMARK       I    between atoms: N_10  and  C_11 
REMARK    2  A    between atoms: C_11  and  C_12 
REMARK    3  A    between atoms: C_14  and  C_15 
REMARK    4  A    between atoms: C_15  and  O_16 
REMARK    5  A    between atoms: O_16  and  C_17 
ROOT
HETATM    1  N   UNL     1      -4.566   3.665 -33.070  1.00  0.00    -0.321 N 
HETATM    2  C   UNL     1      -5.677   4.099 -33.782  1.00  0.00     0.279 C 
HETATM    3  O   UNL     1      -5.841   5.246 -34.185  1.00  0.00    -0.265 OA
HETATM    4  H   UNL     1      -4.627   2.741 -32.667  1.00  0.00     0.169 HD
ENDROOT
BRANCH   2   5
HETATM    5  C   UNL     1      -6.683   3.063 -33.967  1.00  0.00     0.143 A 
HETATM    6  O   UNL     1      -6.255   1.824 -34.363  1.00  0.00    -0.307 OA
HETATM    7  C   UNL     1      -7.350   1.025 -34.498  1.00  0.00     0.078 A 
HETATM    8  C   UNL     1      -8.489   1.732 -34.174  1.00  0.00     0.038 A 
HETATM    9  C   UNL     1      -8.063   3.042 -33.838  1.00  0.00     0.045 A 
BRANCH   7  10
HETATM   10  C   UNL     1      -7.100  -0.362 -34.969  1.00  0.00     0.240 C 
BRANCH  10  11
HETATM   11  O   UNL     1      -5.893  -0.802 -34.351  1.00  0.00    -0.345 OA
BRANCH  11  12
HETATM   12  C   UNL     1      -5.640  -2.146 -34.410  1.00  0.00     0.069 A 
HETATM   13  C   UNL     1      -4.413  -2.761 -34.152  1.00  0.00     0.037 A 
HETATM   14  C   UNL     1      -4.289  -4.150 -34.249  1.00  0.00     0.003 A 
HETATM   15  C   UNL     1      -5.388  -4.929 -34.607  1.00  0.00     0.000 A 
HETATM   16  C   UNL     1      -6.612  -4.320 -34.873  1.00  0.00     0.003 A 
HETATM   17  C   UNL     1      -6.734  -2.933 -34.777  1.00  0.00     0.037 A 
ENDBRANCH  11  12
ENDBRANCH  10  11
ENDBRANCH   7  10
ENDBRANCH   2   5
BRANCH   1  18
HETATM   18  C   UNL     1      -3.426   4.420 -32.714  1.00  0.00     0.037 A 
HETATM   19  C   UNL     1      -3.196   4.920 -31.425  1.00  0.00     0.063 A 
HETATM   20  C   UNL     1      -2.023   5.652 -31.175  1.00  0.00     0.087 A 
HETATM   21  N   UNL     1      -1.585   6.239 -30.013  1.00  0.00    -0.234 NA
HETATM   22  C   UNL     1      -1.115   5.862 -32.205  1.00  0.00     0.062 A 
HETATM   23  C   UNL     1      -0.428   6.793 -30.305  1.00  0.00     0.101 A 
HETATM   24  C   UNL     1       0.453   7.546 -29.383  1.00  0.00     0.091 C 
HETATM   25  N   UNL     1      -0.104   6.583 -31.623  1.00  0.00    -0.343 N 
HETATM   26  H   UNL     1       0.733   6.906 -32.083  1.00  0.00     0.167 HD
HETATM   27  C   UNL     1      -1.310   5.389 -33.501  1.00  0.00     0.034 A 
HETATM   28  C   UNL     1      -2.491   4.669 -33.733  1.00  0.00     0.032 A 
ENDBRANCH   1  18
TORSDOF 5
ENDMDL
MODEL 3
REMARK VINA RESULT:      -8.6      2.080      2.930
REMARK  5 active torsions:
REMARK  status: ('A' for Active; 'I' for Inactive)
REMARK    1  A    between atoms: C_9  and  N_10 
REMARK       I    between atoms: N_10  and  C_11 
REMARK    2  A    between atoms: C_11  and  C_12 
REMARK    3  A    between atoms: C_14  and  C_15 
REMARK    4  A    between atoms: C_15  and  O_16 
REMARK    5  A    between atoms: O_16  and  C_17 
ROOT
HETATM    1  N   UNL     1     -10.836   1.518 -33.701  1.00  0.00    -0.321 N 
HETATM    2  C   UNL     1     -10.018   0.489 -33.255  1.00  0.00     0.279 C 
HETATM    3  O   UNL     1     -10.412  -0.492 -32.630  1.00  0.00    -0.265 OA
HETATM    4  H   UNL     1     -10.367   2.336 -34.064  1.00  0.00     0.169 HD
ENDROOT
BRANCH   2   5
HETATM    5  C   UNL     1      -8.609   0.703 -33.550  1.00  0.00     0.143 A 
HETATM    6  O   UNL     1      -7.702  -0.143 -32.971  1.00  0.00    -0.307 OA
HETATM    7  C   UNL     1      -6.456   0.249 -33.358  1.00  0.00     0.078 A 
HETATM    8  C   UNL     1      -6.547   1.336 -34.201  1.00  0.00     0.038 A 
HETATM    9  C   UNL     1      -7.929   1.632 -34.321  1.00  0.00     0.045 A 
BRANCH   7  10
HETATM   10  C   UNL     1      -5.318  -0.523 -32.796  1.00  0.00     0.240 C 
BRANCH  10  11
HETATM   11  O   UNL     1      -4.592  -1.062 -33.899  1.00  0.00    -0.345 OA
BRANCH  11  12
HETATM   12  C   UNL     1      -4.699  -2.413 -34.090  1.00  0.00     0.069 A 
HETATM   13  C   UNL     1      -3.835  -3.384 -33.579  1.00  0.00     0.037 A 
HETATM   14  C   UNL     1      -4.059  -4.737 -33.850  1.00  0.00     0.003 A 
HETATM   15  C   UNL     1      -5.143  -5.125 -34.635  1.00  0.00     0.000 A 
HETATM   16  C   UNL     1      -6.003  -4.160 -35.154  1.00  0.00     0.003 A 
HETATM   17  C   UNL     1      -5.778  -2.810 -34.884  1.00  0.00     0.037 A 
ENDBRANCH  11  12
ENDBRANCH  10  11
ENDBRANCH   7  10
ENDBRANCH   2   5
BRANCH   1  18
HETATM   18  C   UNL     1     -12.239   1.622 -33.566  1.00  0.00     0.037 A 
HETATM   19  C   UNL     1     -12.875   2.588 -32.774  1.00  0.00     0.063 A 
HETATM   20  C   UNL     1     -14.279   2.608 -32.716  1.00  0.00     0.087 A 
HETATM   21  N   UNL     1     -15.117   3.443 -32.019  1.00  0.00    -0.234 NA
HETATM   22  C   UNL     1     -15.007   1.676 -33.445  1.00  0.00     0.062 A 
HETATM   23  C   UNL     1     -16.338   3.050 -32.310  1.00  0.00     0.101 A 
HETATM   24  C   UNL     1     -17.602   3.639 -31.812  1.00  0.00     0.091 C 
HETATM   25  N   UNL     1     -16.316   1.985 -33.176  1.00  0.00    -0.343 N 
HETATM   26  H   UNL     1     -17.124   1.511 -33.548  1.00  0.00     0.167 HD
HETATM   27  C   UNL     1     -14.414   0.694 -34.236  1.00  0.00     0.034 A 
HETATM   28  C   UNL     1     -13.012   0.685 -34.273  1.00  0.00     0.032 A 
ENDBRANCH   1  18
TORSDOF 5
ENDMDL
MODEL 4
REMARK VINA RESULT:      -8.4      3.554      7.357
REMARK  5 active torsions:
REMARK  status: ('A' for Active; 'I' for Inactive)
REMARK    1  A    between atoms: C_9  and  N_10 
REMARK       I    between atoms: N_10  and  C_11 
REMARK    2  A    between atoms: C_11  and  C_12 
REMARK    3  A    between atoms: C_14  and  C_15 
REMARK    4  A    between atoms: C_15  and  O_16 
REMARK    5  A    between atoms: O_16  and  C_17 
ROOT
HETATM    1  N   UNL     1      -5.298   2.923 -32.694  1.00  0.00    -0.321 N 
HETATM    2  C   UNL     1      -6.366   2.835 -31.812  1.00  0.00     0.279 C 
HETATM    3  O   UNL     1      -6.513   3.548 -30.823  1.00  0.00    -0.265 OA
HETATM    4  H   UNL     1      -5.218   2.180 -33.373  1.00  0.00     0.169 HD
ENDROOT
BRANCH   2   5
HETATM    5  C   UNL     1      -7.294   1.760 -32.135  1.00  0.00     0.143 A 
HETATM    6  O   UNL     1      -6.931   0.882 -33.119  1.00  0.00    -0.307 OA
HETATM    7  C   UNL     1      -7.943  -0.017 -33.274  1.00  0.00     0.078 A 
HETATM    8  C   UNL     1      -8.957   0.261 -32.382  1.00  0.00     0.038 A 
HETATM    9  C   UNL     1      -8.543   1.405 -31.652  1.00  0.00     0.045 A 
BRANCH   7  10
HETATM   10  C   UNL     1      -7.761  -1.038 -34.337  1.00  0.00     0.240 C 
BRANCH  10  11
HETATM   11  O   UNL     1      -6.363  -1.118 -34.605  1.00  0.00    -0.345 OA
BRANCH  11  12
HETATM   12  C   UNL     1      -5.802  -2.365 -34.520  1.00  0.00     0.069 A 
HETATM   13  C   UNL     1      -4.498  -2.650 -34.109  1.00  0.00     0.037 A 
HETATM   14  C   UNL     1      -4.049  -3.973 -34.067  1.00  0.00     0.003 A 
HETATM   15  C   UNL     1      -4.898  -5.015 -34.438  1.00  0.00     0.000 A 
HETATM   16  C   UNL     1      -6.196  -4.734 -34.857  1.00  0.00     0.003 A 
HETATM   17  C   UNL     1      -6.644  -3.413 -34.900  1.00  0.00     0.037 A 
ENDBRANCH  11  12
ENDBRANCH  10  11
ENDBRANCH   7  10
ENDBRANCH   2   5
BRANCH   1  18
HETATM   18  C   UNL     1      -4.225   3.842 -32.657  1.00  0.00     0.037 A 
HETATM   19  C   UNL     1      -3.163   3.761 -31.747  1.00  0.00     0.063 A 
HETATM   20  C   UNL     1      -2.141   4.724 -31.801  1.00  0.00     0.087 A 
HETATM   21  N   UNL     1      -1.015   4.855 -31.025  1.00  0.00    -0.234 NA
HETATM   22  C   UNL     1      -2.201   5.732 -32.754  1.00  0.00     0.062 A 
HETATM   23  C   UNL     1      -0.382   5.912 -31.486  1.00  0.00     0.101 A 
HETATM   24  C   UNL     1       0.896   6.468 -30.988  1.00  0.00     0.091 C 
HETATM   25  N   UNL     1      -1.065   6.470 -32.539  1.00  0.00    -0.343 N 
HETATM   26  H   UNL     1      -0.780   7.284 -33.061  1.00  0.00     0.167 HD
HETATM   27  C   UNL     1      -3.244   5.854 -33.671  1.00  0.00     0.034 A 
HETATM   28  C   UNL     1      -4.259   4.889 -33.594  1.00  0.00     0.032 A 
ENDBRANCH   1  18
TORSDOF 5
ENDMDL
MODEL 5
REMARK VINA RESULT:      -8.3      4.967      8.782
REMARK  5 active torsions:
REMARK  status: ('A' for Active; 'I' for Inactive)
REMARK    1  A    between atoms: C_9  and  N_10 
REMARK       I    between atoms: N_10  and  C_11 
REMARK    2  A    between atoms: C_11  and  C_12 
REMARK    3  A    between atoms: C_14  and  C_15 
REMARK    4  A    between atoms: C_15  and  O_16 
REMARK    5  A    between atoms: O_16  and  C_17 
ROOT
HETATM    1  N   UNL     1      -3.353   4.681 -32.020  1.00  0.00    -0.321 N 
HETATM    2  C   UNL     1      -3.673   3.332 -31.931  1.00  0.00     0.279 C 
HETATM    3  O   UNL     1      -3.032   2.506 -31.289  1.00  0.00    -0.265 OA
HETATM    4  H   UNL     1      -3.869   5.218 -32.702  1.00  0.00     0.169 HD
ENDROOT
BRANCH   2   5
HETATM    5  C   UNL     1      -4.832   2.961 -32.730  1.00  0.00     0.143 A 
HETATM    6  O   UNL     1      -4.999   1.636 -33.032  1.00  0.00    -0.307 OA
HETATM    7  C   UNL     1      -6.118   1.518 -33.799  1.00  0.00     0.078 A 
HETATM    8  C   UNL     1      -6.692   2.758 -33.984  1.00  0.00     0.038 A 
HETATM    9  C   UNL     1      -5.865   3.686 -33.303  1.00  0.00     0.045 A 
BRANCH   7  10
HETATM   10  C   UNL     1      -6.451   0.150 -34.273  1.00  0.00     0.240 C 
BRANCH  10  11
HETATM   11  O   UNL     1      -5.443  -0.724 -33.770  1.00  0.00    -0.345 OA
BRANCH  11  12
HETATM   12  C   UNL     1      -5.565  -2.044 -34.109  1.00  0.00     0.069 A 
HETATM   13  C   UNL     1      -6.735  -2.675 -34.537  1.00  0.00     0.037 A 
HETATM   14  C   UNL     1      -6.723  -4.037 -34.854  1.00  0.00     0.003 A 
HETATM   15  C   UNL     1      -5.545  -4.774 -34.740  1.00  0.00     0.000 A 
HETATM   16  C   UNL     1      -4.378  -4.151 -34.306  1.00  0.00     0.003 A 
HETATM   17  C   UNL     1      -4.391  -2.792 -33.988  1.00  0.00     0.037 A 
ENDBRANCH  11  12
ENDBRANCH  10  11
ENDBRANCH   7  10
ENDBRANCH   2   5
BRANCH   1  18
HETATM   18  C   UNL     1      -2.288   5.355 -31.381  1.00  0.00     0.037 A 
HETATM   19  C   UNL     1      -2.456   6.209 -30.283  1.00  0.00     0.063 A 
HETATM   20  C   UNL     1      -1.327   6.824 -29.716  1.00  0.00     0.087 A 
HETATM   21  N   UNL     1      -1.239   7.691 -28.653  1.00  0.00    -0.234 NA
HETATM   22  C   UNL     1      -0.071   6.573 -30.252  1.00  0.00     0.062 A 
HETATM   23  C   UNL     1       0.040   7.967 -28.522  1.00  0.00     0.101 A 
HETATM   24  C   UNL     1       0.656   8.855 -27.509  1.00  0.00     0.091 C 
HETATM   25  N   UNL     1       0.784   7.305 -29.468  1.00  0.00    -0.343 N 
HETATM   26  H   UNL     1       1.786   7.353 -29.568  1.00  0.00     0.167 HD
HETATM   27  C   UNL     1       0.139   5.739 -31.349  1.00  0.00     0.034 A 
HETATM   28  C   UNL     1      -1.002   5.142 -31.905  1.00  0.00     0.032 A 
ENDBRANCH   1  18
TORSDOF 5
ENDMDL
MODEL 6
REMARK VINA RESULT:      -8.2      6.635     10.270
REMARK  5 active torsions:
REMARK  status: ('A' for Active; 'I' for Inactive)
REMARK    1  A    between atoms: C_9  and  N_10 
REMARK       I    between atoms: N_10  and  C_11 
REMARK    2  A    between atoms: C_11  and  C_12 
REMARK    3  A    between atoms: C_14  and  C_15 
REMARK    4  A    between atoms: C_15  and  O_16 
REMARK    5  A    between atoms: O_16  and  C_17 
ROOT
HETATM    1  N   UNL     1      -1.950   5.836 -30.130  1.00  0.00    -0.321 N 
HETATM    2  C   UNL     1      -1.418   4.991 -31.095  1.00  0.00     0.279 C 
HETATM    3  O   UNL     1      -0.228   4.932 -31.389  1.00  0.00    -0.265 OA
HETATM    4  H   UNL     1      -2.957   5.896 -30.095  1.00  0.00     0.169 HD
ENDROOT
BRANCH   2   5
HETATM    5  C   UNL     1      -2.426   4.199 -31.785  1.00  0.00     0.143 A 
HETATM    6  O   UNL     1      -2.604   2.903 -31.381  1.00  0.00    -0.307 OA
HETATM    7  C   UNL     1      -3.565   2.345 -32.168  1.00  0.00     0.078 A 
HETATM    8  C   UNL     1      -4.029   3.277 -33.073  1.00  0.00     0.038 A 
HETATM    9  C   UNL     1      -3.294   4.466 -32.831  1.00  0.00     0.045 A 
BRANCH   7  10
HETATM   10  C   UNL     1      -3.876   0.915 -31.916  1.00  0.00     0.240 C 
BRANCH  10  11
HETATM   11  O   UNL     1      -5.150   0.654 -32.501  1.00  0.00    -0.345 OA
BRANCH  11  12
HETATM   12  C   UNL     1      -5.248  -0.488 -33.249  1.00  0.00     0.069 A 
HETATM   13  C   UNL     1      -4.213  -1.390 -33.507  1.00  0.00     0.037 A 
HETATM   14  C   UNL     1      -4.448  -2.524 -34.291  1.00  0.00     0.003 A 
HETATM   15  C   UNL     1      -5.715  -2.759 -34.823  1.00  0.00     0.000 A 
HETATM   16  C   UNL     1      -6.748  -1.858 -34.575  1.00  0.00     0.003 A 
HETATM   17  C   UNL     1      -6.512  -0.726 -33.794  1.00  0.00     0.037 A 
ENDBRANCH  11  12
ENDBRANCH  10  11
ENDBRANCH   7  10
ENDBRANCH   2   5
BRANCH   1  18
HETATM   18  C   UNL     1      -1.250   6.737 -29.296  1.00  0.00     0.037 A 
HETATM   19  C   UNL     1      -0.222   6.351 -28.425  1.00  0.00     0.063 A 
HETATM   20  C   UNL     1       0.416   7.330 -27.645  1.00  0.00     0.087 A 
HETATM   21  N   UNL     1       1.433   7.200 -26.730  1.00  0.00    -0.234 NA
HETATM   22  C   UNL     1       0.020   8.657 -27.753  1.00  0.00     0.062 A 
HETATM   23  C   UNL     1       1.672   8.414 -26.284  1.00  0.00     0.101 A 
HETATM   24  C   UNL     1       2.689   8.806 -25.282  1.00  0.00     0.091 C 
HETATM   25  N   UNL     1       0.841   9.328 -26.884  1.00  0.00    -0.343 N 
HETATM   26  H   UNL     1       0.835  10.321 -26.711  1.00  0.00     0.167 HD
HETATM   27  C   UNL     1      -1.003   9.080 -28.600  1.00  0.00     0.034 A 
HETATM   28  C   UNL     1      -1.633   8.087 -29.363  1.00  0.00     0.032 A 
ENDBRANCH   1  18
TORSDOF 5
ENDMDL
MODEL 7
REMARK VINA RESULT:      -8.0      4.371      7.615
REMARK  5 active torsions:
REMARK  status: ('A' for Active; 'I' for Inactive)
REMARK    1  A    between atoms: C_9  and  N_10 
REMARK       I    between atoms: N_10  and  C_11 
REMARK    2  A    between atoms: C_11  and  C_12 
REMARK    3  A    between atoms: C_14  and  C_15 
REMARK    4  A    between atoms: C_15  and  O_16 
REMARK    5  A    between atoms: O_16  and  C_17 
ROOT
HETATM    1  N   UNL     1      -5.377   1.973 -32.010  1.00  0.00    -0.321 N 
HETATM    2  C   UNL     1      -5.710   2.270 -30.695  1.00  0.00     0.279 C 
HETATM    3  O   UNL     1      -5.960   1.432 -29.834  1.00  0.00    -0.265 OA
HETATM    4  H   UNL     1      -5.348   2.753 -32.650  1.00  0.00     0.169 HD
ENDROOT
BRANCH   2   5
HETATM    5  C   UNL     1      -5.795   3.699 -30.431  1.00  0.00     0.143 A 
HETATM    6  O   UNL     1      -5.233   4.549 -31.345  1.00  0.00    -0.307 OA
HETATM    7  C   UNL     1      -5.403   5.823 -30.893  1.00  0.00     0.078 A 
HETATM    8  C   UNL     1      -6.089   5.809 -29.697  1.00  0.00     0.038 A 
HETATM    9  C   UNL     1      -6.337   4.445 -29.396  1.00  0.00     0.045 A 
BRANCH   7  10
HETATM   10  C   UNL     1      -4.818   6.903 -31.729  1.00  0.00     0.240 C 
BRANCH  10  11
HETATM   11  O   UNL     1      -4.777   6.418 -33.070  1.00  0.00    -0.345 OA
BRANCH  11  12
HETATM   12  C   UNL     1      -3.533   6.175 -33.586  1.00  0.00     0.069 A 
HETATM   13  C   UNL     1      -3.209   5.179 -34.510  1.00  0.00     0.037 A 
HETATM   14  C   UNL     1      -1.892   5.039 -34.958  1.00  0.00     0.003 A 
HETATM   15  C   UNL     1      -0.894   5.888 -34.483  1.00  0.00     0.000 A 
HETATM   16  C   UNL     1      -1.211   6.878 -33.556  1.00  0.00     0.003 A 
HETATM   17  C   UNL     1      -2.525   7.017 -33.107  1.00  0.00     0.037 A 
ENDBRANCH  11  12
ENDBRANCH  10  11
ENDBRANCH   7  10
ENDBRANCH   2   5
BRANCH   1  18
HETATM   18  C   UNL     1      -5.226   0.693 -32.590  1.00  0.00     0.037 A 
HETATM   19  C   UNL     1      -6.282  -0.035 -33.154  1.00  0.00     0.063 A 
HETATM   20  C   UNL     1      -6.020  -1.297 -33.713  1.00  0.00     0.087 A 
HETATM   21  N   UNL     1      -6.878  -2.189 -34.311  1.00  0.00    -0.234 NA
HETATM   22  C   UNL     1      -4.724  -1.795 -33.700  1.00  0.00     0.062 A 
HETATM   23  C   UNL     1      -6.136  -3.213 -34.671  1.00  0.00     0.101 A 
HETATM   24  C   UNL     1      -6.594  -4.439 -35.365  1.00  0.00     0.091 C 
HETATM   25  N   UNL     1      -4.823  -3.012 -34.325  1.00  0.00    -0.343 N 
HETATM   26  H   UNL     1      -4.063  -3.652 -34.498  1.00  0.00     0.167 HD
HETATM   27  C   UNL     1      -3.648  -1.107 -33.142  1.00  0.00     0.034 A 
HETATM   28  C   UNL     1      -3.932   0.146 -32.581  1.00  0.00     0.032 A 
ENDBRANCH   1  18
TORSDOF 5
ENDMDL
MODEL 8
REMARK VINA RESULT:      -7.8      5.370      9.540
REMARK  5 active torsions:
REMARK  status: ('A' for Active; 'I' for Inactive)
REMARK    1  A    between atoms: C_9  and  N_10 
REMARK       I    between atoms: N_10  and  C_11 
REMARK    2  A    between atoms: C_11  and  C_12 
REMARK    3  A    between atoms: C_14  and  C_15 
REMARK    4  A    between atoms: C_15  and  O_16 
REMARK    5  A    between atoms: O_16  and  C_17 
ROOT
HETATM    1  N   UNL     1      -4.186   2.337 -31.438  1.00  0.00    -0.321 N 
HETATM    2  C   UNL     1      -3.474   3.433 -31.910  1.00  0.00     0.279 C 
HETATM    3  O   UNL     1      -2.674   3.394 -32.839  1.00  0.00    -0.265 OA
HETATM    4  H   UNL     1      -4.691   2.472 -30.574  1.00  0.00     0.169 HD
ENDROOT
BRANCH   2   5
HETATM    5  C   UNL     1      -3.724   4.651 -31.153  1.00  0.00     0.143 A 
HETATM    6  O   UNL     1      -2.696   5.546 -31.033  1.00  0.00    -0.307 OA
HETATM    7  C   UNL     1      -3.134   6.590 -30.274  1.00  0.00     0.078 A 
HETATM    8  C   UNL     1      -4.450   6.387 -29.914  1.00  0.00     0.038 A 
HETATM    9  C   UNL     1      -4.828   5.140 -30.474  1.00  0.00     0.045 A 
BRANCH   7  10
HETATM   10  C   UNL     1      -2.143   7.658 -29.986  1.00  0.00     0.240 C 
BRANCH  10  11
HETATM   11  O   UNL     1      -0.863   7.033 -29.916  1.00  0.00    -0.345 OA
BRANCH  11  12
HETATM   12  C   UNL     1      -0.148   7.250 -28.769  1.00  0.00     0.069 A 
HETATM   13  C   UNL     1       0.935   8.121 -28.631  1.00  0.00     0.037 A 
HETATM   14  C   UNL     1       1.581   8.249 -27.398  1.00  0.00     0.003 A 
HETATM   15  C   UNL     1       1.151   7.506 -26.300  1.00  0.00     0.000 A 
HETATM   16  C   UNL     1       0.077   6.630 -26.435  1.00  0.00     0.003 A 
HETATM   17  C   UNL     1      -0.566   6.501 -27.666  1.00  0.00     0.037 A 
ENDBRANCH  11  12
ENDBRANCH  10  11
ENDBRANCH   7  10
ENDBRANCH   2   5
BRANCH   1  18
HETATM   18  C   UNL     1      -4.162   1.016 -31.939  1.00  0.00     0.037 A 
HETATM   19  C   UNL     1      -5.090   0.518 -32.863  1.00  0.00     0.063 A 
HETATM   20  C   UNL     1      -4.971  -0.811 -33.304  1.00  0.00     0.087 A 
HETATM   21  N   UNL     1      -5.749  -1.517 -34.189  1.00  0.00    -0.234 NA
HETATM   22  C   UNL     1      -3.937  -1.601 -32.820  1.00  0.00     0.062 A 
HETATM   23  C   UNL     1      -5.211  -2.714 -34.264  1.00  0.00     0.101 A 
HETATM   24  C   UNL     1      -5.679  -3.847 -35.095  1.00  0.00     0.091 C 
HETATM   25  N   UNL     1      -4.106  -2.806 -33.454  1.00  0.00    -0.343 N 
HETATM   26  H   UNL     1      -3.522  -3.620 -33.343  1.00  0.00     0.167 HD
HETATM   27  C   UNL     1      -2.999  -1.148 -31.894  1.00  0.00     0.034 A 
HETATM   28  C   UNL     1      -3.141   0.178 -31.460  1.00  0.00     0.032 A 
ENDBRANCH   1  18
TORSDOF 5
ENDMDL
MODEL 9
REMARK VINA RESULT:      -7.8      4.218      7.178
REMARK  5 active torsions:
REMARK  status: ('A' for Active; 'I' for Inactive)
REMARK    1  A    between atoms: C_9  and  N_10 
REMARK       I    between atoms: N_10  and  C_11 
REMARK    2  A    between atoms: C_11  and  C_12 
REMARK    3  A    between atoms: C_14  and  C_15 
REMARK    4  A    between atoms: C_15  and  O_16 
REMARK    5  A    between atoms: O_16  and  C_17 
ROOT
HETATM    1  N   UNL     1      -6.237   2.700 -33.223  1.00  0.00    -0.321 N 
HETATM    2  C   UNL     1      -5.755   3.738 -32.435  1.00  0.00     0.279 C 
HETATM    3  O   UNL     1      -6.416   4.336 -31.591  1.00  0.00    -0.265 OA
HETATM    4  H   UNL     1      -5.641   2.401 -33.980  1.00  0.00     0.169 HD
ENDROOT
BRANCH   2   5
HETATM    5  C   UNL     1      -4.380   4.103 -32.742  1.00  0.00     0.143 A 
HETATM    6  O   UNL     1      -4.139   5.387 -33.153  1.00  0.00    -0.307 OA
HETATM    7  C   UNL     1      -2.806   5.503 -33.407  1.00  0.00     0.078 A 
HETATM    8  C   UNL     1      -2.173   4.306 -33.147  1.00  0.00     0.038 A 
HETATM    9  C   UNL     1      -3.183   3.404 -32.725  1.00  0.00     0.045 A 
BRANCH   7  10
HETATM   10  C   UNL     1      -2.343   6.821 -33.912  1.00  0.00     0.240 C 
BRANCH  10  11
HETATM   11  O   UNL     1      -1.030   7.029 -33.398  1.00  0.00    -0.345 OA
BRANCH  11  12
HETATM   12  C   UNL     1      -0.943   7.330 -32.066  1.00  0.00     0.069 A 
HETATM   13  C   UNL     1      -1.828   8.138 -31.349  1.00  0.00     0.037 A 
HETATM   14  C   UNL     1      -1.624   8.367 -29.985  1.00  0.00     0.003 A 
HETATM   15  C   UNL     1      -0.535   7.792 -29.333  1.00  0.00     0.000 A 
HETATM   16  C   UNL     1       0.355   6.991 -30.045  1.00  0.00     0.003 A 
HETATM   17  C   UNL     1       0.152   6.766 -31.407  1.00  0.00     0.037 A 
ENDBRANCH  11  12
ENDBRANCH  10  11
ENDBRANCH   7  10
ENDBRANCH   2   5
BRANCH   1  18
HETATM   18  C   UNL     1      -7.525   2.119 -33.185  1.00  0.00     0.037 A 
HETATM   19  C   UNL     1      -8.587   2.529 -34.002  1.00  0.00     0.063 A 
HETATM   20  C   UNL     1      -9.826   1.877 -33.890  1.00  0.00     0.087 A 
HETATM   21  N   UNL     1     -11.000   2.097 -34.569  1.00  0.00    -0.234 NA
HETATM   22  C   UNL     1      -9.974   0.841 -32.977  1.00  0.00     0.062 A 
HETATM   23  C   UNL     1     -11.857   1.216 -34.100  1.00  0.00     0.101 A 
HETATM   24  C   UNL     1     -13.267   1.040 -34.518  1.00  0.00     0.091 C 
HETATM   25  N   UNL     1     -11.273   0.431 -33.137  1.00  0.00    -0.343 N 
HETATM   26  H   UNL     1     -11.724  -0.317 -32.633  1.00  0.00     0.167 HD
HETATM   27  C   UNL     1      -8.946   0.409 -32.140  1.00  0.00     0.034 A 
HETATM   28  C   UNL     1      -7.720   1.079 -32.261  1.00  0.00     0.032 A 
ENDBRANCH   1  18
TORSDOF 5
ENDMDL
MODEL 10
REMARK VINA RESULT:      -7.6      4.236      8.284
REMARK  5 active torsions:
REMARK  status: ('A' for Active; 'I' for Inactive)
REMARK    1  A    between atoms: C_9  and  N_10 
REMARK       I    between atoms: N_10  and  C_11 
REMARK    2  A    between atoms: C_11  and  C_12 
REMARK    3  A    between atoms: C_14  and  C_15 
REMARK    4  A    between atoms: C_15  and  O_16 
REMARK    5  A    between atoms: O_16  and  C_17 
ROOT
HETATM    1  N   UNL     1      -5.660   2.163 -32.571  1.00  0.00    -0.321 N 
HETATM    2  C   UNL     1      -6.227   2.591 -31.377  1.00  0.00     0.279 C 
HETATM    3  O   UNL     1      -6.658   1.844 -30.504  1.00  0.00    -0.265 OA
HETATM    4  H   UNL     1      -5.489   2.877 -33.264  1.00  0.00     0.169 HD
ENDROOT
BRANCH   2   5
HETATM    5  C   UNL     1      -6.319   4.040 -31.270  1.00  0.00     0.143 A 
HETATM    6  O   UNL     1      -5.216   4.775 -31.613  1.00  0.00    -0.307 OA
HETATM    7  C   UNL     1      -5.510   6.091 -31.416  1.00  0.00     0.078 A 
HETATM    8  C   UNL     1      -6.806   6.218 -30.963  1.00  0.00     0.038 A 
HETATM    9  C   UNL     1      -7.325   4.902 -30.864  1.00  0.00     0.045 A 
BRANCH   7  10
HETATM   10  C   UNL     1      -4.418   7.059 -31.692  1.00  0.00     0.240 C 
BRANCH  10  11
HETATM   11  O   UNL     1      -3.627   7.145 -30.509  1.00  0.00    -0.345 OA
BRANCH  11  12
HETATM   12  C   UNL     1      -2.272   7.053 -30.681  1.00  0.00     0.069 A 
HETATM   13  C   UNL     1      -1.612   6.839 -31.893  1.00  0.00     0.037 A 
HETATM   14  C   UNL     1      -0.217   6.765 -31.930  1.00  0.00     0.003 A 
HETATM   15  C   UNL     1       0.525   6.900 -30.757  1.00  0.00     0.000 A 
HETATM   16  C   UNL     1      -0.129   7.106 -29.545  1.00  0.00     0.003 A 
HETATM   17  C   UNL     1      -1.522   7.178 -29.509  1.00  0.00     0.037 A 
ENDBRANCH  11  12
ENDBRANCH  10  11
ENDBRANCH   7  10
ENDBRANCH   2   5
BRANCH   1  18
HETATM   18  C   UNL     1      -5.438   0.832 -32.988  1.00  0.00     0.037 A 
HETATM   19  C   UNL     1      -6.400   0.051 -33.643  1.00  0.00     0.063 A 
HETATM   20  C   UNL     1      -6.073  -1.261 -34.023  1.00  0.00     0.087 A 
HETATM   21  N   UNL     1      -6.837  -2.207 -34.663  1.00  0.00    -0.234 NA
HETATM   22  C   UNL     1      -4.806  -1.757 -33.747  1.00  0.00     0.062 A 
HETATM   23  C   UNL     1      -6.064  -3.264 -34.792  1.00  0.00     0.101 A 
HETATM   24  C   UNL     1      -6.423  -4.552 -35.427  1.00  0.00     0.091 C 
HETATM   25  N   UNL     1      -4.822  -3.031 -34.255  1.00  0.00    -0.343 N 
HETATM   26  H   UNL     1      -4.056  -3.685 -34.237  1.00  0.00     0.167 HD
HETATM   27  C   UNL     1      -3.823  -1.018 -33.090  1.00  0.00     0.034 A 
HETATM   28  C   UNL     1      -4.173   0.287 -32.711  1.00  0.00     0.032 A 
ENDBRANCH   1  18
TORSDOF 5
ENDMDL
