MODEL 1
REMARK VINA RESULT:      -8.3      0.000      0.000
REMARK  4 active torsions:
REMARK  status: ('A' for Active; 'I' for Inactive)
REMARK    1  A    between atoms: C_3  and  N_4 
REMARK       I    between atoms: N_4  and  C_5 
REMARK    2  A    between atoms: C_5  and  C_6 
REMARK    3  A    between atoms: C_7  and  C_8 
REMARK    4  A    between atoms: C_16  and  C_17 
ROOT
HETATM    1  C   UNL     1      -7.675   0.152 -35.181  1.00  0.00     0.003 A 
HETATM    2  C   UNL     1      -6.942   1.066 -34.422  1.00  0.00     0.029 A 
HETATM    3  C   UNL     1      -5.816   0.650 -33.710  1.00  0.00     0.035 A 
HETATM    4  C   UNL     1      -5.438  -0.699 -33.766  1.00  0.00     0.042 A 
HETATM    5  C   UNL     1      -6.165  -1.630 -34.526  1.00  0.00    -0.021 A 
HETATM    6  C   UNL     1      -7.289  -1.187 -35.234  1.00  0.00     0.012 A 
ENDROOT
BRANCH   3   7
HETATM    7  N   UNL     1      -5.040   1.506 -32.902  1.00  0.00    -0.327 N 
HETATM    8  C   UNL     1      -5.484   2.493 -32.052  1.00  0.00     0.227 C 
HETATM    9  O   UNL     1      -6.641   2.874 -31.929  1.00  0.00    -0.273 OA
HETATM   10  H   UNL     1      -4.035   1.458 -33.037  1.00  0.00     0.169 HD
BRANCH   8  11
HETATM   11  C   UNL     1      -4.463   3.138 -31.174  1.00  0.00     0.089 A 
HETATM   12  C   UNL     1      -3.515   4.243 -31.593  1.00  0.00     0.057 A 
HETATM   13  C   UNL     1      -2.994   2.868 -31.214  1.00  0.00     0.027 A 
BRANCH  12  14
HETATM   14  C   UNL     1      -3.295   4.671 -33.032  1.00  0.00     0.057 A 
HETATM   15  O   UNL     1      -4.279   4.921 -33.941  1.00  0.00    -0.327 OA
HETATM   16  C   UNL     1      -3.668   5.247 -35.110  1.00  0.00     0.142 A 
HETATM   17  C   UNL     1      -2.302   5.195 -34.968  1.00  0.00     0.027 A 
HETATM   18  C   UNL     1      -2.060   4.819 -33.626  1.00  0.00     0.035 A 
ENDBRANCH  12  14
ENDBRANCH   8  11
ENDBRANCH   3   7
BRANCH   5  19
HETATM   19  C   UNL     1      -5.745  -3.021 -34.577  1.00  0.00     0.010 A 
HETATM   20  C   UNL     1      -6.423  -4.177 -35.034  1.00  0.00     0.152 A 
HETATM   21  N   UNL     1      -5.690  -5.287 -34.928  1.00  0.00    -0.187 NA
HETATM   22  N   UNL     1      -4.535  -4.850 -34.400  1.00  0.00    -0.289 N 
HETATM   23  H   UNL     1      -3.801  -5.525 -34.222  1.00  0.00     0.188 HD
HETATM   24  C   UNL     1      -4.518  -3.503 -34.174  1.00  0.00     0.123 A 
ENDBRANCH   5  19
TORSDOF 4
ENDMDL
MODEL 2
REMARK VINA RESULT:      -8.2      1.517      2.498
REMARK  4 active torsions:
REMARK  status: ('A' for Active; 'I' for Inactive)
REMARK    1  A    between atoms: C_3  and  N_4 
REMARK       I    between atoms: N_4  and  C_5 
REMARK    2  A    between atoms: C_5  and  C_6 
REMARK    3  A    between atoms: C_7  and  C_8 
REMARK    4  A    between atoms: C_16  and  C_17 
ROOT
HETATM    1  C   UNL     1      -3.322  -0.827 -32.199  1.00  0.00     0.003 A 
HETATM    2  C   UNL     1      -3.936   0.406 -32.428  1.00  0.00     0.029 A 
HETATM    3  C   UNL     1      -5.058   0.492 -33.254  1.00  0.00     0.035 A 
HETATM    4  C   UNL     1      -5.552  -0.676 -33.852  1.00  0.00     0.042 A 
HETATM    5  C   UNL     1      -4.945  -1.923 -33.630  1.00  0.00    -0.021 A 
HETATM    6  C   UNL     1      -3.823  -1.984 -32.794  1.00  0.00     0.012 A 
ENDROOT
BRANCH   3   7
HETATM    7  N   UNL     1      -5.718   1.702 -33.554  1.00  0.00    -0.327 N 
HETATM    8  C   UNL     1      -6.341   2.560 -32.678  1.00  0.00     0.227 C 
HETATM    9  O   UNL     1      -6.523   2.367 -31.482  1.00  0.00    -0.273 OA
HETATM   10  H   UNL     1      -5.836   1.913 -34.539  1.00  0.00     0.169 HD
BRANCH   8  11
HETATM   11  C   UNL     1      -6.811   3.866 -33.231  1.00  0.00     0.089 A 
HETATM   12  C   UNL     1      -5.952   4.860 -33.984  1.00  0.00     0.057 A 
HETATM   13  C   UNL     1      -6.541   5.206 -32.628  1.00  0.00     0.027 A 
BRANCH  12  14
HETATM   14  C   UNL     1      -4.438   4.788 -34.059  1.00  0.00     0.057 A 
HETATM   15  O   UNL     1      -3.628   4.206 -33.130  1.00  0.00    -0.327 OA
HETATM   16  C   UNL     1      -2.349   4.380 -33.552  1.00  0.00     0.142 A 
HETATM   17  C   UNL     1      -2.324   5.081 -34.734  1.00  0.00     0.027 A 
HETATM   18  C   UNL     1      -3.675   5.349 -35.061  1.00  0.00     0.035 A 
ENDBRANCH  12  14
ENDBRANCH   8  11
ENDBRANCH   3   7
BRANCH   5  19
HETATM   19  C   UNL     1      -5.484  -3.121 -34.252  1.00  0.00     0.010 A 
HETATM   20  C   UNL     1      -4.898  -4.389 -34.483  1.00  0.00     0.152 A 
HETATM   21  N   UNL     1      -5.730  -5.247 -35.078  1.00  0.00    -0.187 NA
HETATM   22  N   UNL     1      -6.856  -4.533 -35.234  1.00  0.00    -0.289 N 
HETATM   23  H   UNL     1      -7.653  -4.980 -35.674  1.00  0.00     0.188 HD
HETATM   24  C   UNL     1      -6.761  -3.258 -34.754  1.00  0.00     0.123 A 
ENDBRANCH   5  19
TORSDOF 4
ENDMDL
MODEL 3
REMARK VINA RESULT:      -8.0      3.448      5.240
REMARK  4 active torsions:
REMARK  status: ('A' for Active; 'I' for Inactive)
REMARK    1  A    between atoms: C_3  and  N_4 
REMARK       I    between atoms: N_4  and  C_5 
REMARK    2  A    between atoms: C_5  and  C_6 
REMARK    3  A    between atoms: C_7  and  C_8 
REMARK    4  A    between atoms: C_16  and  C_17 
ROOT
HETATM    1  C   UNL     1      -5.793   0.966 -33.487  1.00  0.00     0.003 A 
HETATM    2  C   UNL     1      -7.059   1.415 -33.866  1.00  0.00     0.029 A 
HETATM    3  C   UNL     1      -7.975   0.536 -34.446  1.00  0.00     0.035 A 
HETATM    4  C   UNL     1      -7.600  -0.800 -34.645  1.00  0.00     0.042 A 
HETATM    5  C   UNL     1      -6.330  -1.267 -34.268  1.00  0.00    -0.021 A 
HETATM    6  C   UNL     1      -5.431  -0.366 -33.685  1.00  0.00     0.012 A 
ENDROOT
BRANCH   3   7
HETATM    7  N   UNL     1      -9.261   0.918 -34.878  1.00  0.00    -0.327 N 
HETATM    8  C   UNL     1     -10.398   1.061 -34.116  1.00  0.00     0.227 C 
HETATM    9  O   UNL     1     -10.514   0.775 -32.930  1.00  0.00    -0.273 OA
HETATM   10  H   UNL     1      -9.389   0.999 -35.882  1.00  0.00     0.169 HD
BRANCH   8  11
HETATM   11  C   UNL     1     -11.593   1.651 -34.789  1.00  0.00     0.089 A 
HETATM   12  C   UNL     1     -11.711   3.081 -35.273  1.00  0.00     0.057 A 
HETATM   13  C   UNL     1     -12.585   2.564 -34.144  1.00  0.00     0.027 A 
BRANCH  12  14
HETATM   14  C   UNL     1     -10.732   4.182 -34.913  1.00  0.00     0.057 A 
HETATM   15  O   UNL     1      -9.500   3.995 -34.362  1.00  0.00    -0.327 OA
HETATM   16  C   UNL     1      -8.958   5.226 -34.170  1.00  0.00     0.142 A 
HETATM   17  C   UNL     1      -9.832   6.205 -34.578  1.00  0.00     0.027 A 
HETATM   18  C   UNL     1     -10.982   5.531 -35.055  1.00  0.00     0.035 A 
ENDBRANCH  12  14
ENDBRANCH   8  11
ENDBRANCH   3   7
BRANCH   5  19
HETATM   19  C   UNL     1      -5.970  -2.661 -34.474  1.00  0.00     0.010 A 
HETATM   20  C   UNL     1      -6.755  -3.769 -34.873  1.00  0.00     0.152 A 
HETATM   21  N   UNL     1      -6.050  -4.900 -34.964  1.00  0.00    -0.187 NA
HETATM   22  N   UNL     1      -4.808  -4.522 -34.622  1.00  0.00    -0.289 N 
HETATM   23  H   UNL     1      -4.075  -5.223 -34.617  1.00  0.00     0.188 HD
HETATM   24  C   UNL     1      -4.708  -3.193 -34.324  1.00  0.00     0.123 A 
ENDBRANCH   5  19
TORSDOF 4
ENDMDL
MODEL 4
REMARK VINA RESULT:      -7.8      4.323      6.032
REMARK  4 active torsions:
REMARK  status: ('A' for Active; 'I' for Inactive)
REMARK    1  A    between atoms: C_3  and  N_4 
REMARK       I    between atoms: N_4  and  C_5 
REMARK    2  A    between atoms: C_5  and  C_6 
REMARK    3  A    between atoms: C_7  and  C_8 
REMARK    4  A    between atoms: C_16  and  C_17 
ROOT
HETATM    1  C   UNL     1      -9.726   3.333 -34.219  1.00  0.00     0.003 A 
HETATM    2  C   UNL     1      -8.685   2.484 -33.839  1.00  0.00     0.029 A 
HETATM    3  C   UNL     1      -8.941   1.145 -33.539  1.00  0.00     0.035 A 
HETATM    4  C   UNL     1     -10.258   0.671 -33.619  1.00  0.00     0.042 A 
HETATM    5  C   UNL     1     -11.315   1.513 -34.001  1.00  0.00    -0.021 A 
HETATM    6  C   UNL     1     -11.033   2.851 -34.301  1.00  0.00     0.012 A 
ENDROOT
BRANCH   3   7
HETATM    7  N   UNL     1      -7.949   0.233 -33.124  1.00  0.00    -0.327 N 
HETATM    8  C   UNL     1      -7.087  -0.492 -33.915  1.00  0.00     0.227 C 
HETATM    9  O   UNL     1      -7.104  -0.548 -35.138  1.00  0.00    -0.273 OA
HETATM   10  H   UNL     1      -7.936   0.007 -32.135  1.00  0.00     0.169 HD
BRANCH   8  11
HETATM   11  C   UNL     1      -6.010  -1.255 -33.218  1.00  0.00     0.089 A 
HETATM   12  C   UNL     1      -4.900  -0.646 -32.386  1.00  0.00     0.057 A 
HETATM   13  C   UNL     1      -4.594  -1.372 -33.683  1.00  0.00     0.027 A 
BRANCH  12  14
HETATM   14  C   UNL     1      -4.579   0.836 -32.354  1.00  0.00     0.057 A 
HETATM   15  O   UNL     1      -5.374   1.828 -32.848  1.00  0.00    -0.327 OA
HETATM   16  C   UNL     1      -4.716   3.000 -32.651  1.00  0.00     0.142 A 
HETATM   17  C   UNL     1      -3.502   2.775 -32.049  1.00  0.00     0.027 A 
HETATM   18  C   UNL     1      -3.409   1.375 -31.861  1.00  0.00     0.035 A 
ENDBRANCH  12  14
ENDBRANCH   8  11
ENDBRANCH   3   7
BRANCH   5  19
HETATM   19  C   UNL     1     -12.671   0.993 -34.088  1.00  0.00     0.010 A 
HETATM   20  C   UNL     1     -13.850   1.568 -34.620  1.00  0.00     0.152 A 
HETATM   21  N   UNL     1     -14.910   0.762 -34.526  1.00  0.00    -0.187 NA
HETATM   22  N   UNL     1     -14.416  -0.336 -33.931  1.00  0.00    -0.289 N 
HETATM   23  H   UNL     1     -15.046  -1.109 -33.749  1.00  0.00     0.188 HD
HETATM   24  C   UNL     1     -13.082  -0.248 -33.652  1.00  0.00     0.123 A 
ENDBRANCH   5  19
TORSDOF 4
ENDMDL
MODEL 5
REMARK VINA RESULT:      -7.8      4.668      6.958
REMARK  4 active torsions:
REMARK  status: ('A' for Active; 'I' for Inactive)
REMARK    1  A    between atoms: C_3  and  N_4 
REMARK       I    between atoms: N_4  and  C_5 
REMARK    2  A    between atoms: C_5  and  C_6 
REMARK    3  A    between atoms: C_7  and  C_8 
REMARK    4  A    between atoms: C_16  and  C_17 
ROOT
HETATM    1  C   UNL     1      -7.230   0.779 -31.230  1.00  0.00     0.003 A 
HETATM    2  C   UNL     1      -8.566   0.985 -31.578  1.00  0.00     0.029 A 
HETATM    3  C   UNL     1      -9.126   0.308 -32.663  1.00  0.00     0.035 A 
HETATM    4  C   UNL     1      -8.323  -0.576 -33.398  1.00  0.00     0.042 A 
HETATM    5  C   UNL     1      -6.977  -0.795 -33.059  1.00  0.00    -0.021 A 
HETATM    6  C   UNL     1      -6.441  -0.106 -31.965  1.00  0.00     0.012 A 
ENDROOT
BRANCH   3   7
HETATM    7  N   UNL     1     -10.458   0.481 -33.092  1.00  0.00    -0.327 N 
HETATM    8  C   UNL     1     -10.927   1.352 -34.048  1.00  0.00     0.227 C 
HETATM    9  O   UNL     1     -10.274   2.213 -34.625  1.00  0.00    -0.273 OA
HETATM   10  H   UNL     1     -11.165  -0.021 -32.566  1.00  0.00     0.169 HD
BRANCH   8  11
HETATM   11  C   UNL     1     -12.360   1.212 -34.444  1.00  0.00     0.089 A 
HETATM   12  C   UNL     1     -13.505   2.044 -33.904  1.00  0.00     0.057 A 
HETATM   13  C   UNL     1     -13.422   0.554 -33.624  1.00  0.00     0.027 A 
BRANCH  12  14
HETATM   14  C   UNL     1     -13.395   2.960 -32.700  1.00  0.00     0.057 A 
HETATM   15  O   UNL     1     -12.270   3.627 -32.315  1.00  0.00    -0.327 OA
HETATM   16  C   UNL     1     -12.580   4.310 -31.183  1.00  0.00     0.142 A 
HETATM   17  C   UNL     1     -13.886   4.079 -30.825  1.00  0.00     0.027 A 
HETATM   18  C   UNL     1     -14.413   3.203 -31.803  1.00  0.00     0.035 A 
ENDBRANCH  12  14
ENDBRANCH   8  11
ENDBRANCH   3   7
BRANCH   5  19
HETATM   19  C   UNL     1      -6.170  -1.726 -33.830  1.00  0.00     0.010 A 
HETATM   20  C   UNL     1      -4.766  -1.893 -33.904  1.00  0.00     0.152 A 
HETATM   21  N   UNL     1      -4.401  -2.879 -34.728  1.00  0.00    -0.187 NA
HETATM   22  N   UNL     1      -5.571  -3.349 -35.188  1.00  0.00    -0.289 N 
HETATM   23  H   UNL     1      -5.554  -4.121 -35.846  1.00  0.00     0.188 HD
HETATM   24  C   UNL     1      -6.657  -2.696 -34.680  1.00  0.00     0.123 A 
ENDBRANCH   5  19
TORSDOF 4
ENDMDL
MODEL 6
REMARK VINA RESULT:      -7.7      2.640      4.422
REMARK  4 active torsions:
REMARK  status: ('A' for Active; 'I' for Inactive)
REMARK    1  A    between atoms: C_3  and  N_4 
REMARK       I    between atoms: N_4  and  C_5 
REMARK    2  A    between atoms: C_5  and  C_6 
REMARK    3  A    between atoms: C_7  and  C_8 
REMARK    4  A    between atoms: C_16  and  C_17 
ROOT
HETATM    1  C   UNL     1      -3.109  -1.122 -32.177  1.00  0.00     0.003 A 
HETATM    2  C   UNL     1      -3.760   0.113 -32.215  1.00  0.00     0.029 A 
HETATM    3  C   UNL     1      -4.956   0.260 -32.918  1.00  0.00     0.035 A 
HETATM    4  C   UNL     1      -5.488  -0.851 -33.590  1.00  0.00     0.042 A 
HETATM    5  C   UNL     1      -4.846  -2.099 -33.560  1.00  0.00    -0.021 A 
HETATM    6  C   UNL     1      -3.649  -2.221 -32.844  1.00  0.00     0.012 A 
ENDROOT
BRANCH   3   7
HETATM    7  N   UNL     1      -5.658   1.478 -33.025  1.00  0.00    -0.327 N 
HETATM    8  C   UNL     1      -6.157   2.253 -32.003  1.00  0.00     0.227 C 
HETATM    9  O   UNL     1      -6.169   1.962 -30.814  1.00  0.00    -0.273 OA
HETATM   10  H   UNL     1      -5.914   1.765 -33.963  1.00  0.00     0.169 HD
BRANCH   8  11
HETATM   11  C   UNL     1      -6.706   3.590 -32.377  1.00  0.00     0.089 A 
HETATM   12  C   UNL     1      -8.122   3.860 -32.842  1.00  0.00     0.057 A 
HETATM   13  C   UNL     1      -6.941   4.069 -33.774  1.00  0.00     0.027 A 
BRANCH  12  14
HETATM   14  C   UNL     1      -9.106   2.775 -33.239  1.00  0.00     0.057 A 
HETATM   15  O   UNL     1      -9.801   2.729 -34.411  1.00  0.00    -0.327 OA
HETATM   16  C   UNL     1     -10.588   1.622 -34.363  1.00  0.00     0.142 A 
HETATM   17  C   UNL     1     -10.418   0.962 -33.170  1.00  0.00     0.027 A 
HETATM   18  C   UNL     1      -9.463   1.709 -32.440  1.00  0.00     0.035 A 
ENDBRANCH  12  14
ENDBRANCH   8  11
ENDBRANCH   3   7
BRANCH   5  19
HETATM   19  C   UNL     1      -5.426  -3.238 -34.254  1.00  0.00     0.010 A 
HETATM   20  C   UNL     1      -4.909  -4.532 -34.502  1.00  0.00     0.152 A 
HETATM   21  N   UNL     1      -5.760  -5.313 -35.172  1.00  0.00    -0.187 NA
HETATM   22  N   UNL     1      -6.829  -4.522 -35.359  1.00  0.00    -0.289 N 
HETATM   23  H   UNL     1      -7.627  -4.901 -35.856  1.00  0.00     0.188 HD
HETATM   24  C   UNL     1      -6.680  -3.274 -34.827  1.00  0.00     0.123 A 
ENDBRANCH   5  19
TORSDOF 4
ENDMDL
MODEL 7
REMARK VINA RESULT:      -7.7      1.948      3.425
REMARK  4 active torsions:
REMARK  status: ('A' for Active; 'I' for Inactive)
REMARK    1  A    between atoms: C_3  and  N_4 
REMARK       I    between atoms: N_4  and  C_5 
REMARK    2  A    between atoms: C_5  and  C_6 
REMARK    3  A    between atoms: C_7  and  C_8 
REMARK    4  A    between atoms: C_16  and  C_17 
ROOT
HETATM    1  C   UNL     1      -7.714   0.113 -35.029  1.00  0.00     0.003 A 
HETATM    2  C   UNL     1      -7.213   0.945 -34.026  1.00  0.00     0.029 A 
HETATM    3  C   UNL     1      -6.225   0.483 -33.154  1.00  0.00     0.035 A 
HETATM    4  C   UNL     1      -5.751  -0.829 -33.300  1.00  0.00     0.042 A 
HETATM    5  C   UNL     1      -6.245  -1.677 -34.305  1.00  0.00    -0.021 A 
HETATM    6  C   UNL     1      -7.232  -1.189 -35.168  1.00  0.00     0.012 A 
ENDROOT
BRANCH   3   7
HETATM    7  N   UNL     1      -5.687   1.252 -32.102  1.00  0.00    -0.327 N 
HETATM    8  C   UNL     1      -5.125   2.506 -32.178  1.00  0.00     0.227 C 
HETATM    9  O   UNL     1      -4.897   3.135 -33.204  1.00  0.00    -0.273 OA
HETATM   10  H   UNL     1      -5.613   0.788 -31.203  1.00  0.00     0.169 HD
BRANCH   8  11
HETATM   11  C   UNL     1      -4.792   3.176 -30.886  1.00  0.00     0.089 A 
HETATM   12  C   UNL     1      -5.798   3.637 -29.851  1.00  0.00     0.057 A 
HETATM   13  C   UNL     1      -4.940   4.637 -30.607  1.00  0.00     0.027 A 
BRANCH  12  14
HETATM   14  C   UNL     1      -7.293   3.715 -30.097  1.00  0.00     0.057 A 
HETATM   15  O   UNL     1      -8.038   2.770 -30.737  1.00  0.00    -0.327 OA
HETATM   16  C   UNL     1      -9.316   3.229 -30.774  1.00  0.00     0.142 A 
HETATM   17  C   UNL     1      -9.401   4.464 -30.177  1.00  0.00     0.027 A 
HETATM   18  C   UNL     1      -8.092   4.781 -29.743  1.00  0.00     0.035 A 
ENDBRANCH  12  14
ENDBRANCH   8  11
ENDBRANCH   3   7
BRANCH   5  19
HETATM   19  C   UNL     1      -5.727  -3.029 -34.442  1.00  0.00     0.010 A 
HETATM   20  C   UNL     1      -6.337  -4.208 -34.933  1.00  0.00     0.152 A 
HETATM   21  N   UNL     1      -5.521  -5.264 -34.910  1.00  0.00    -0.187 NA
HETATM   22  N   UNL     1      -4.381  -4.768 -34.403  1.00  0.00    -0.289 N 
HETATM   23  H   UNL     1      -3.592  -5.395 -34.287  1.00  0.00     0.188 HD
HETATM   24  C   UNL     1      -4.452  -3.436 -34.110  1.00  0.00     0.123 A 
ENDBRANCH   5  19
TORSDOF 4
ENDMDL
MODEL 8
REMARK VINA RESULT:      -7.6      1.624      2.130
REMARK  4 active torsions:
REMARK  status: ('A' for Active; 'I' for Inactive)
REMARK    1  A    between atoms: C_3  and  N_4 
REMARK       I    between atoms: N_4  and  C_5 
REMARK    2  A    between atoms: C_5  and  C_6 
REMARK    3  A    between atoms: C_7  and  C_8 
REMARK    4  A    between atoms: C_16  and  C_17 
ROOT
HETATM    1  C   UNL     1      -7.389  -0.515 -34.918  1.00  0.00     0.003 A 
HETATM    2  C   UNL     1      -6.777   0.568 -34.283  1.00  0.00     0.029 A 
HETATM    3  C   UNL     1      -5.570   0.397 -33.603  1.00  0.00     0.035 A 
HETATM    4  C   UNL     1      -4.989  -0.879 -33.564  1.00  0.00     0.042 A 
HETATM    5  C   UNL     1      -5.593  -1.977 -34.198  1.00  0.00    -0.021 A 
HETATM    6  C   UNL     1      -6.801  -1.779 -34.876  1.00  0.00     0.012 A 
ENDROOT
BRANCH   3   7
HETATM    7  N   UNL     1      -4.904   1.433 -32.918  1.00  0.00    -0.327 N 
HETATM    8  C   UNL     1      -4.874   1.661 -31.561  1.00  0.00     0.227 C 
HETATM    9  O   UNL     1      -5.517   1.057 -30.712  1.00  0.00    -0.273 OA
HETATM   10  H   UNL     1      -4.481   2.151 -33.496  1.00  0.00     0.169 HD
BRANCH   8  11
HETATM   11  C   UNL     1      -3.946   2.725 -31.075  1.00  0.00     0.089 A 
HETATM   12  C   UNL     1      -4.206   4.216 -31.144  1.00  0.00     0.057 A 
HETATM   13  C   UNL     1      -3.082   3.581 -31.944  1.00  0.00     0.027 A 
BRANCH  12  14
HETATM   14  C   UNL     1      -5.328   4.845 -31.948  1.00  0.00     0.057 A 
HETATM   15  O   UNL     1      -5.992   4.250 -32.979  1.00  0.00    -0.327 OA
HETATM   16  C   UNL     1      -6.896   5.151 -33.444  1.00  0.00     0.142 A 
HETATM   17  C   UNL     1      -6.813   6.325 -32.733  1.00  0.00     0.027 A 
HETATM   18  C   UNL     1      -5.797   6.129 -31.768  1.00  0.00     0.035 A 
ENDBRANCH  12  14
ENDBRANCH   8  11
ENDBRANCH   3   7
BRANCH   5  19
HETATM   19  C   UNL     1      -4.963  -3.287 -34.152  1.00  0.00     0.010 A 
HETATM   20  C   UNL     1      -3.758  -3.713 -33.544  1.00  0.00     0.152 A 
HETATM   21  N   UNL     1      -3.521  -5.017 -33.715  1.00  0.00    -0.187 NA
HETATM   22  N   UNL     1      -4.575  -5.433 -34.435  1.00  0.00    -0.289 N 
HETATM   23  H   UNL     1      -4.623  -6.412 -34.695  1.00  0.00     0.188 HD
HETATM   24  C   UNL     1      -5.466  -4.438 -34.719  1.00  0.00     0.123 A 
ENDBRANCH   5  19
TORSDOF 4
ENDMDL
MODEL 9
REMARK VINA RESULT:      -7.6      3.034      4.836
REMARK  4 active torsions:
REMARK  status: ('A' for Active; 'I' for Inactive)
REMARK    1  A    between atoms: C_3  and  N_4 
REMARK       I    between atoms: N_4  and  C_5 
REMARK    2  A    between atoms: C_5  and  C_6 
REMARK    3  A    between atoms: C_7  and  C_8 
REMARK    4  A    between atoms: C_16  and  C_17 
ROOT
HETATM    1  C   UNL     1      -6.057  -2.699 -34.766  1.00  0.00     0.003 A 
HETATM    2  C   UNL     1      -7.165  -1.876 -34.973  1.00  0.00     0.029 A 
HETATM    3  C   UNL     1      -7.253  -0.638 -34.337  1.00  0.00     0.035 A 
HETATM    4  C   UNL     1      -6.215  -0.238 -33.482  1.00  0.00     0.042 A 
HETATM    5  C   UNL     1      -5.094  -1.055 -33.264  1.00  0.00    -0.021 A 
HETATM    6  C   UNL     1      -5.027  -2.291 -33.918  1.00  0.00     0.012 A 
ENDROOT
BRANCH   3   7
HETATM    7  N   UNL     1      -8.350   0.238 -34.475  1.00  0.00    -0.327 N 
HETATM    8  C   UNL     1      -9.293   0.562 -33.527  1.00  0.00     0.227 C 
HETATM    9  O   UNL     1      -9.404   0.058 -32.417  1.00  0.00    -0.273 OA
HETATM   10  H   UNL     1      -8.523   0.591 -35.410  1.00  0.00     0.169 HD
BRANCH   8  11
HETATM   11  C   UNL     1     -10.250   1.654 -33.873  1.00  0.00     0.089 A 
HETATM   12  C   UNL     1      -9.871   3.082 -34.204  1.00  0.00     0.057 A 
HETATM   13  C   UNL     1     -10.672   2.757 -32.956  1.00  0.00     0.027 A 
BRANCH  12  14
HETATM   14  C   UNL     1      -8.488   3.666 -33.981  1.00  0.00     0.057 A 
HETATM   15  O   UNL     1      -7.326   2.955 -33.950  1.00  0.00    -0.327 OA
HETATM   16  C   UNL     1      -6.325   3.839 -33.699  1.00  0.00     0.142 A 
HETATM   17  C   UNL     1      -6.830   5.109 -33.555  1.00  0.00     0.027 A 
HETATM   18  C   UNL     1      -8.230   4.998 -33.733  1.00  0.00     0.035 A 
ENDBRANCH  12  14
ENDBRANCH   8  11
ENDBRANCH   3   7
BRANCH   5  19
HETATM   19  C   UNL     1      -4.025  -0.612 -32.383  1.00  0.00     0.010 A 
HETATM   20  C   UNL     1      -3.785   0.645 -31.780  1.00  0.00     0.152 A 
HETATM   21  N   UNL     1      -2.690   0.656 -31.016  1.00  0.00    -0.187 NA
HETATM   22  N   UNL     1      -2.220  -0.597 -31.126  1.00  0.00    -0.289 N 
HETATM   23  H   UNL     1      -1.374  -0.841 -30.623  1.00  0.00     0.188 HD
HETATM   24  C   UNL     1      -2.984  -1.394 -31.930  1.00  0.00     0.123 A 
ENDBRANCH   5  19
TORSDOF 4
ENDMDL
MODEL 10
REMARK VINA RESULT:      -7.6      2.130      2.860
REMARK  4 active torsions:
REMARK  status: ('A' for Active; 'I' for Inactive)
REMARK    1  A    between atoms: C_3  and  N_4 
REMARK       I    between atoms: N_4  and  C_5 
REMARK    2  A    between atoms: C_5  and  C_6 
REMARK    3  A    between atoms: C_7  and  C_8 
REMARK    4  A    between atoms: C_16  and  C_17 
ROOT
HETATM    1  C   UNL     1      -7.274  -0.873 -34.993  1.00  0.00     0.003 A 
HETATM    2  C   UNL     1      -7.386   0.519 -35.016  1.00  0.00     0.029 A 
HETATM    3  C   UNL     1      -6.478   1.311 -34.312  1.00  0.00     0.035 A 
HETATM    4  C   UNL     1      -5.458   0.687 -33.579  1.00  0.00     0.042 A 
HETATM    5  C   UNL     1      -5.333  -0.711 -33.547  1.00  0.00    -0.021 A 
HETATM    6  C   UNL     1      -6.254  -1.484 -34.264  1.00  0.00     0.012 A 
ENDROOT
BRANCH   3   7
HETATM    7  N   UNL     1      -6.539   2.719 -34.266  1.00  0.00    -0.327 N 
HETATM    8  C   UNL     1      -7.366   3.501 -33.492  1.00  0.00     0.227 C 
HETATM    9  O   UNL     1      -8.277   3.102 -32.777  1.00  0.00    -0.273 OA
HETATM   10  H   UNL     1      -5.982   3.213 -34.955  1.00  0.00     0.169 HD
BRANCH   8  11
HETATM   11  C   UNL     1      -7.107   4.971 -33.499  1.00  0.00     0.089 A 
HETATM   12  C   UNL     1      -5.739   5.622 -33.489  1.00  0.00     0.057 A 
HETATM   13  C   UNL     1      -6.689   5.781 -32.315  1.00  0.00     0.027 A 
BRANCH  12  14
HETATM   14  C   UNL     1      -4.447   4.877 -33.211  1.00  0.00     0.057 A 
HETATM   15  O   UNL     1      -4.300   3.856 -32.320  1.00  0.00    -0.327 OA
HETATM   16  C   UNL     1      -2.993   3.486 -32.350  1.00  0.00     0.142 A 
HETATM   17  C   UNL     1      -2.294   4.266 -33.239  1.00  0.00     0.027 A 
HETATM   18  C   UNL     1      -3.232   5.169 -33.793  1.00  0.00     0.035 A 
ENDBRANCH  12  14
ENDBRANCH   8  11
ENDBRANCH   3   7
BRANCH   5  19
HETATM   19  C   UNL     1      -4.259  -1.333 -32.788  1.00  0.00     0.010 A 
HETATM   20  C   UNL     1      -3.878  -2.691 -32.667  1.00  0.00     0.152 A 
HETATM   21  N   UNL     1      -2.816  -2.864 -31.876  1.00  0.00    -0.187 NA
HETATM   22  N   UNL     1      -2.511  -1.617 -31.484  1.00  0.00    -0.289 N 
HETATM   23  H   UNL     1      -1.720  -1.487 -30.863  1.00  0.00     0.188 HD
HETATM   24  C   UNL     1      -3.342  -0.667 -32.004  1.00  0.00     0.123 A 
ENDBRANCH   5  19
TORSDOF 4
ENDMDL
